data_mof_unit_44044.cif
_audit_creation_date              2012-12-11T15:25:57-0500
_audit_creation_method            fapswitch 2.2
_symmetry_space_group_name_H-M    P1
_symmetry_Int_Tables_number       1
_space_group_crystal_system       triclinic
_cell_length_a                    24.605373
_cell_length_b                    16.975245
_cell_length_c                    15.639261
_cell_angle_alpha                 89.999979
_cell_angle_beta                  49.867462
_cell_angle_gamma                 90.0
_cell_volume                      4994.26104505

loop_
_atom_site_label
_atom_site_type_symbol
_atom_type_description
_atom_site_fract_x
_atom_site_fract_y
_atom_site_fract_z
_atom_type_partial_charge
C1    C     C_R   0.339939 0.129215 0.781929 -0.034624
C2    C     C_2   0.302832 0.829087 0.970507 -0.261620
C3    C     C_2   0.358820 0.324243 0.747245 1.053229
C4    C     C_2   0.713230 0.435939 0.038780 1.081910
C5    C     C_2   0.141180 0.824243 0.252755 1.053229
C6    C     C_2   0.286770 0.435939 0.961220 1.081910
C7    C     C_2   0.858820 0.824243 0.747245 1.053230
C8    C     C_2   0.332635 0.234868 0.898971 -0.316188
C9    C     C_2   0.697168 0.829087 0.029493 -0.261621
C10   C     C_2   0.167364 0.734868 0.101028 -0.316187
C11   C     C_2   0.802832 0.329087 0.970507 -0.261620
C12   C     C_2   0.832635 0.734868 0.898971 -0.316188
C13   C     C_2   0.197168 0.329087 0.029493 -0.261620
C14   C     C_2   0.680152 0.301532 0.133320 -0.136043
C15   C     C_2   0.234991 0.855536 0.044293 -0.101348
C16   C     C_2   0.319847 0.301532 0.866680 -0.136043
C17   C     C_R   0.665764 0.883225 0.205508 -0.091288
C18   C     C_2   0.765008 0.855536 0.955707 -0.101348
C19   C     C_2   0.180152 0.801532 0.133320 -0.136043
C20   C     C_2   0.734992 0.355536 0.044293 -0.101348
C21   C     C_2   0.819847 0.801532 0.866680 -0.136043
C22   C     C_2   0.265008 0.355536 0.955707 -0.101348
C23   C     C_R   0.596468 0.139028 0.590826 -0.055343
C24   C     C_R   0.385498 0.898724 0.407977 -0.094704
C25   C     C_R   0.403532 0.139028 0.409174 -0.055342
C26   C     C_R   0.614502 0.898724 0.592023 -0.094704
C27   C     C_R   0.096468 0.639028 0.590826 -0.055343
C28   C     C_R   0.660061 0.129215 0.218070 -0.034625
C29   C     C_R   0.885498 0.398724 0.407977 -0.094704
C30   C     C_R   0.903532 0.639028 0.409174 -0.055342
C31   C     C_R   0.114502 0.398724 0.592023 -0.094704
C32   C     C_R   0.671194 0.137629 0.405868 -0.084712
C33   C     C_R   0.309903 0.900579 0.592719 -0.124192
C34   C     C_R   0.328806 0.137629 0.594132 -0.084712
C35   C     C_R   0.690097 0.900579 0.407281 -0.124192
C36   C     C_R   0.171194 0.637629 0.405868 -0.084712
C37   C     C_R   0.809903 0.400579 0.592719 -0.124192
C38   C     C_R   0.828806 0.637629 0.594132 -0.084712
C39   C     C_R   0.334236 0.883225 0.794492 -0.091288
C40   C     C_R   0.190097 0.400579 0.407281 -0.124192
C41   C     C_R   0.569971 0.129920 0.217099 -0.041360
C42   C     C_R   0.423207 0.885017 0.798910 -0.092503
C43   C     C_R   0.430029 0.129920 0.782901 -0.041360
C44   C     C_R   0.576793 0.885017 0.201090 -0.092504
C45   C     C_R   0.069971 0.629920 0.217099 -0.041360
C46   C     C_R   0.923207 0.385016 0.798910 -0.092504
C47   C     C_R   0.930029 0.629920 0.782901 -0.041360
C48   C     C_R   0.076793 0.385016 0.201090 -0.092504
C49   C     C_R   0.366277 0.166202 0.826316 0.186092
C50   C     C_R   0.839939 0.629215 0.781929 -0.034624
C51   C     C_R   0.646722 0.860577 0.143405 0.169599
C52   C     C_R   0.633723 0.166202 0.173683 0.186092
C53   C     C_R   0.353278 0.860577 0.856595 0.169599
C54   C     C_R   0.866277 0.666202 0.826316 0.186092
C55   C     C_R   0.146722 0.360577 0.143405 0.169599
C56   C     C_R   0.133723 0.666202 0.173683 0.186092
C57   C     C_R   0.853278 0.360577 0.856595 0.169599
C58   C     C_R   0.649780 0.182988 0.496936 0.082615
C59   C     C_R   0.314318 0.889651 0.500389 0.074082
C60   C     C_R   0.350220 0.182988 0.503063 0.082614
C61   C     C_R   0.165764 0.383225 0.205508 -0.091288
C62   C     C_R   0.685682 0.889651 0.499611 0.074082
C63   C     C_R   0.149780 0.682988 0.496936 0.082615
C64   C     C_R   0.814318 0.389651 0.500389 0.074082
C65   C     C_R   0.850220 0.682988 0.503063 0.082614
C66   C     C_R   0.185682 0.389651 0.499611 0.074082
C67   C     C_R   0.264502 0.297962 0.606957 -0.016199
C68   C     C_R   0.813563 0.860659 0.402092 -0.018068
C69   C     C_R   0.735498 0.297962 0.393043 -0.016199
C70   C     C_R   0.186437 0.860659 0.597908 -0.018068
C71   C     C_R   0.764502 0.797962 0.606957 -0.016199
C72   C     C_R   0.160061 0.629215 0.218070 -0.034625
C73   C     C_R   0.313563 0.360659 0.402092 -0.018068
C74   C     C_R   0.235498 0.797962 0.393043 -0.016199
C75   C     C_R   0.686437 0.360659 0.597908 -0.018068
C76   C     C_R   0.728533 0.860603 0.603542 -0.132175
C77   C     C_R   0.353863 0.303701 0.404253 -0.112153
C78   C     C_R   0.271467 0.860603 0.396458 -0.132175
C79   C     C_R   0.646137 0.303701 0.595747 -0.112153
C80   C     C_R   0.228533 0.360603 0.603542 -0.132175
C81   C     C_R   0.853863 0.803701 0.404253 -0.112153
C82   C     C_R   0.771467 0.360603 0.396458 -0.132175
C83   C     C_R   0.834236 0.383225 0.794492 -0.091288
C84   C     C_R   0.146137 0.803701 0.595747 -0.112153
C85   C     C_R   0.744374 0.876396 0.501355 0.025853
C86   C     C_R   0.322450 0.261706 0.505043 0.028769
C87   C     C_R   0.255626 0.876397 0.498645 0.025853
C88   C     C_R   0.677550 0.261706 0.494956 0.028769
C89   C     C_R   0.244374 0.376397 0.501355 0.025853
C90   C     C_R   0.822450 0.761706 0.505043 0.028769
C91   C     C_R   0.755626 0.376397 0.498645 0.025853
C92   C     C_R   0.177550 0.761706 0.494956 0.028768
C93   C     C_2   0.680244 0.914256 0.700669 0.999322
C94   C     C_2   0.667364 0.234868 0.101028 -0.316188
C95   C     C_2   0.430208 0.296239 0.305730 1.001120
C96   C     C_2   0.319756 0.914256 0.299331 0.999322
C97   C     C_2   0.569792 0.296239 0.694270 1.001120
C98   C     C_2   0.180243 0.414256 0.700669 0.999322
C99   C     C_2   0.930208 0.796239 0.305730 1.001120
C100  C     C_2   0.819756 0.414256 0.299331 0.999323
C101  C     C_2   0.069792 0.796239 0.694270 1.001119
C102  C     C_2   0.213230 0.935939 0.038780 1.081910
C103  C     C_2   0.641180 0.324243 0.252755 1.053229
C104  C     C_2   0.786770 0.935939 0.961220 1.081910
H1    H     H_    0.287444 0.136985 0.809088 0.068906
H2    H     H_    0.410109 0.899896 0.320931 0.106501
H3    H     H_    0.426639 0.149047 0.323953 0.092244
H4    H     H_    0.589891 0.899896 0.679069 0.106502
H5    H     H_    0.073361 0.649047 0.676047 0.092244
H6    H     H_    0.910109 0.399896 0.320931 0.106501
H7    H     H_    0.926639 0.649047 0.323953 0.092244
H8    H     H_    0.089891 0.399896 0.679069 0.106501
H9    H     H_    0.717522 0.144077 0.320150 0.097936
H10   H     H_    0.262946 0.904551 0.679245 0.087725
H11   H     H_    0.282477 0.144077 0.679850 0.097936
H12   H     H_    0.718351 0.881199 0.180082 0.089051
H13   H     H_    0.737054 0.904551 0.320754 0.087725
H14   H     H_    0.217522 0.644077 0.320150 0.097936
H15   H     H_    0.762946 0.404551 0.679245 0.087725
H16   H     H_    0.782477 0.644077 0.679850 0.097936
H17   H     H_    0.237054 0.404551 0.320754 0.087725
H18   H     H_    0.539629 0.139841 0.190434 0.104418
H19   H     H_    0.451549 0.884875 0.830341 0.120589
H20   H     H_    0.460371 0.139841 0.809566 0.104419
H21   H     H_    0.548451 0.884875 0.169659 0.120589
H22   H     H_    0.039629 0.639841 0.190434 0.104418
H23   H     H_    0.712556 0.136985 0.190912 0.068906
H24   H     H_    0.951548 0.384875 0.830341 0.120589
H25   H     H_    0.960371 0.639841 0.809566 0.104418
H26   H     H_    0.048451 0.384875 0.169659 0.120589
H27   H     H_    0.317488 0.774165 0.986725 0.154856
H28   H     H_    0.692200 0.226335 0.013772 0.176290
H29   H     H_    0.682512 0.774165 0.013275 0.154856
H30   H     H_    0.307800 0.226335 0.986228 0.176290
H31   H     H_    0.817488 0.274165 0.986725 0.154856
H32   H     H_    0.192200 0.726336 0.013772 0.176290
H33   H     H_    0.182512 0.274165 0.013275 0.154856
H34   H     H_    0.281649 0.881199 0.819917 0.089051
H35   H     H_    0.807800 0.726335 0.986228 0.176290
H36   H     H_    0.191520 0.252179 0.762091 0.143365
H37   H     H_    0.245903 0.320769 0.751502 0.167628
H38   H     H_    0.847843 0.878213 0.245695 0.149344
H39   H     H_    0.819366 0.962196 0.324653 0.118851
H40   H     H_    0.808481 0.252179 0.237909 0.143366
H41   H     H_    0.754097 0.320769 0.248497 0.167628
H42   H     H_    0.152157 0.878213 0.754304 0.149344
H43   H     H_    0.180633 0.962196 0.675347 0.118851
H44   H     H_    0.691519 0.752179 0.762091 0.143365
H45   H     H_    0.787444 0.636985 0.809088 0.068906
H46   H     H_    0.745903 0.820769 0.751502 0.167628
H47   H     H_    0.347843 0.378213 0.245695 0.149344
H48   H     H_    0.319366 0.462196 0.324653 0.118851
H49   H     H_    0.308481 0.752179 0.237909 0.143365
H50   H     H_    0.254097 0.820769 0.248497 0.167628
H51   H     H_    0.652157 0.378213 0.754304 0.149344
H52   H     H_    0.680633 0.462196 0.675347 0.118851
H53   H     H_    0.642901 0.025033 0.752535 0.329975
H54   H     H_    0.530472 0.297722 0.246587 0.341081
H55   H     H_    0.357099 0.025033 0.247465 0.329975
H56   H     H_    0.218351 0.381199 0.180082 0.089051
H57   H     H_    0.469528 0.297722 0.753413 0.341081
H58   H     H_    0.142901 0.525033 0.752535 0.329975
H59   H     H_    0.030472 0.797722 0.246587 0.341081
H60   H     H_    0.857099 0.525033 0.247465 0.329975
H61   H     H_    0.969528 0.797722 0.753413 0.341081
H62   H     H_    0.240521 0.049509 0.992949 0.311747
H63   H     H_    0.569597 0.296917 0.416965 0.354051
H64   H     H_    0.759478 0.049509 0.007051 0.311747
H65   H     H_    0.430403 0.296917 0.583035 0.354050
H66   H     H_    0.740521 0.549509 0.992949 0.311747
H67   H     H_    0.212556 0.636985 0.190912 0.068906
H68   H     H_    0.069597 0.796917 0.416965 0.354050
H69   H     H_    0.259478 0.549509 0.007051 0.311747
H70   H     H_    0.930403 0.796917 0.583035 0.354050
H71   H     H_    0.781649 0.381199 0.819917 0.089051
H72   H     H_    0.573361 0.149047 0.676047 0.092244
N1    N     N_R   0.388930 0.078160 0.705470 -0.041752
N2    N     N_R   0.419500 0.922160 0.443350 -0.049842
N3    N     N_R   0.419500 0.077840 0.443350 -0.045924
N4    N     N_R   0.580500 0.922160 0.556650 -0.049842
N5    N     N_R   0.080500 0.577840 0.556650 -0.045924
N6    N     N_R   0.919500 0.422160 0.443350 -0.049842
N7    N     N_R   0.919500 0.577840 0.443350 -0.045924
N8    N     N_R   0.080500 0.422160 0.556650 -0.049842
N9    N     N_R   0.626210 0.077590 0.443410 -0.049316
N10   N     N_R   0.373790 0.922410 0.556590 -0.046715
N11   N     N_R   0.373790 0.077590 0.556590 -0.049316
N12   N     N_R   0.611070 0.921840 0.294530 -0.051716
N13   N     N_R   0.626210 0.922410 0.443410 -0.046715
N14   N     N_R   0.126210 0.577590 0.443410 -0.049316
N15   N     N_R   0.873790 0.422410 0.556590 -0.046715
N16   N     N_R   0.873790 0.577590 0.556590 -0.049316
N17   N     N_R   0.126210 0.422410 0.443410 -0.046715
N18   N     N_R   0.554800 0.077270 0.294580 -0.048027
N19   N     N_R   0.445200 0.922730 0.705420 -0.056578
N20   N     N_R   0.445200 0.077270 0.705420 -0.048027
N21   N     N_R   0.554800 0.922730 0.294580 -0.056578
N22   N     N_R   0.054800 0.577270 0.294580 -0.048027
N23   N     N_R   0.611070 0.078160 0.294530 -0.041751
N24   N     N_R   0.945200 0.422730 0.705420 -0.056578
N25   N     N_R   0.945200 0.577270 0.705420 -0.048027
N26   N     N_R   0.054800 0.422730 0.294580 -0.056578
N27   N     N_3   0.243764 0.273029 0.711819 -0.223538
N28   N     N_3   0.846870 0.909137 0.304434 -0.181731
N29   N     N_3   0.756236 0.273029 0.288181 -0.223538
N30   N     N_3   0.153130 0.909137 0.695566 -0.181731
N31   N     N_3   0.743764 0.773029 0.711819 -0.223538
N32   N     N_3   0.346870 0.409137 0.304434 -0.181731
N33   N     N_3   0.256236 0.773029 0.288181 -0.223538
N34   N     N_R   0.388930 0.921840 0.705470 -0.051716
N35   N     N_3   0.653130 0.409137 0.695566 -0.181731
N36   N     N_R   0.888930 0.578160 0.705470 -0.041752
N37   N     N_R   0.111070 0.421840 0.294530 -0.051716
N38   N     N_R   0.111070 0.578160 0.294530 -0.041751
N39   N     N_R   0.888930 0.421840 0.705470 -0.051716
N40   N     N_R   0.580500 0.077840 0.556650 -0.045924
Ni1   Ni    Ni4+2 0.382710 0.000000 0.629850 0.231097
Ni2   Ni    Ni4+2 0.617290 0.000000 0.370150 0.231097
Ni3   Ni    Ni4+2 0.882710 0.500000 0.629850 0.231097
Ni4   Ni    Ni4+2 0.117290 0.500000 0.370150 0.231097
Ni5   Ni    Ni4+2 0.513020 0.000000 0.629850 0.245124
Ni6   Ni    Ni4+2 0.486980 0.000000 0.370150 0.245124
Ni7   Ni    Ni4+2 0.013020 0.500000 0.629850 0.245124
Ni8   Ni    Ni4+2 0.986980 0.500000 0.370150 0.245124
O1    O     O_2   0.641254 0.889257 0.796565 -0.658582
O2    O     O_R   0.178333 0.494215 0.681005 -0.790495
O3    O     O_2   0.949460 0.789879 0.211807 -0.634864
O4    O     O_R   0.980291 0.798393 0.320594 -0.765873
O5    O     O_2   0.858745 0.389257 0.203435 -0.658582
O6    O     O_R   0.821667 0.494215 0.318995 -0.790496
O7    O     O_2   0.050540 0.789879 0.788193 -0.634863
O8    O     O_R   0.019708 0.798393 0.679406 -0.765873
O9    O     O_2   0.151319 0.948774 0.082158 -0.629967
O10   O     O_R   0.262623 0.997478 0.987966 -0.802165
O11   O     O_2   0.652609 0.388514 0.273784 -0.626202
O12   O     O_R   0.678333 0.994215 0.681005 -0.790495
O13   O     O_R   0.590996 0.274208 0.341108 -0.777564
O14   O     O_2   0.848681 0.948774 0.917842 -0.629967
O15   O     O_R   0.737376 0.997478 0.012034 -0.802165
O16   O     O_2   0.347391 0.388514 0.726216 -0.626202
O17   O     O_R   0.409004 0.274208 0.658892 -0.777564
O18   O     O_2   0.651319 0.448774 0.082158 -0.629967
O19   O     O_R   0.762623 0.497478 0.987966 -0.802165
O20   O     O_2   0.152609 0.888514 0.273783 -0.626202
O21   O     O_R   0.090996 0.774208 0.341108 -0.777564
O22   O     O_2   0.348681 0.448774 0.917842 -0.629967
O23   O     O_2   0.449460 0.289879 0.211807 -0.634864
O24   O     O_R   0.237376 0.497478 0.012034 -0.802165
O25   O     O_2   0.847391 0.888514 0.726216 -0.626202
O26   O     O_R   0.909004 0.774208 0.658892 -0.777564
O27   O     O_R   0.480291 0.298393 0.320594 -0.765873
O28   O     O_2   0.358745 0.889257 0.203435 -0.658583
O29   O     O_R   0.321667 0.994215 0.318995 -0.790495
O30   O     O_2   0.550540 0.289879 0.788193 -0.634864
O31   O     O_R   0.519708 0.298393 0.679406 -0.765873
O32   O     O_2   0.141254 0.389257 0.796565 -0.658582

loop_
_geom_bond_atom_site_label_1
_geom_bond_atom_site_label_2
_ccdc_geom_bond_type
C78   C87   A    
H62   O10   S    
C23   C58   A    
C72   N38   A    
C84   C101  S    
N1    N20   A    
C83   H71   S    
C31   N8    A    
C68   N28   S    
C18   C21   S    
C30   N7    A    
N22   Ni8   S    
C9    C51   S    
C32   C58   A    
H42   N30   S    
N7    N16   A    
C17   C51   A    
H41   N29   S    
C7    O26   S    
C104  O14   D    
C40   H17   S    
C75   N35   S    
C33   H10   S    
C50   C54   A    
N34   Ni1   S    
C32   N9    A    
C47   H25   S    
C36   N14   A    
C68   C81   A    
N12   N21   A    
C97   O31   S    
C46   H24   S    
C100  O5    D    
C10   H32   S    
H46   N31   S    
C35   C62   A    
H50   N33   S    
N39   Ni3   S    
N4    N13   A    
C42   C53   A    
C71   C76   A    
C35   N13   A    
N5    Ni7   S    
C17   N12   A    
N8    N17   A    
C6    C22   S    
C48   N26   A    
N24   N39   A    
C47   N25   A    
C99   O3    D    
H60   O6    S    
C3    O17   S    
C55   C61   A    
C74   C92   A    
C80   C89   A    
N40   Ni5   S    
C69   C82   A    
H44   N31   S    
C95   O23   D    
C104  O15   S    
C1    N1    A    
C6    O22   D    
C45   C56   A    
C78   C96   S    
N7    Ni8   S    
C56   C72   A    
C63   C92   S    
H61   O8    S    
C16   C22   S    
C31   H8    S    
C57   C83   A    
C52   C94   S    
C33   N10   A    
C31   C66   A    
C25   C60   A    
H65   O17   S    
H47   N32   S    
C66   C89   S    
C36   C63   A    
C70   C84   A    
C45   H22   S    
C4    O19   S    
N20   Ni5   S    
C28   H23   S    
C75   C91   A    
C3    O16   D    
N17   Ni4   S    
C38   H16   S    
C71   N31   S    
H39   N28   S    
C39   H34   S    
C50   N36   A    
C44   N21   A    
C33   C59   A    
C40   C66   A    
H52   N35   S    
C34   C60   A    
C68   C85   A    
C96   O28   D    
C48   H26   S    
C34   N11   A    
N23   Ni2   S    
C61   N37   A    
C8    C49   S    
C70   C87   A    
N25   Ni7   S    
C98   O32   D    
C79   C88   A    
H58   O2    S    
N37   Ni4   S    
C79   C97   S    
C42   H19   S    
H64   O15   S    
C40   N17   A    
C93   O12   S    
C65   C90   S    
C44   H21   S    
C62   C85   S    
C11   C20   D    
C28   N23   A    
C29   N6    A    
N3    Ni6   S    
C8    H30   S    
C72   H67   S    
C14   C20   S    
H66   O19   S    
H69   O24   S    
C67   N27   S    
H54   O27   S    
N19   N34   A    
N21   Ni6   S    
N9    Ni2   S    
C61   H56   S    
N15   Ni3   S    
N19   Ni5   S    
C60   C86   S    
H70   O26   S    
C23   H72   S    
C74   N33   S    
C34   H11   S    
C7    C21   S    
C12   C21   D    
C77   C95   S    
C94   H28   S    
C82   C91   A    
C39   N34   A    
C58   C88   S    
C43   N20   A    
C13   H33   S    
C41   H18   S    
H43   N30   S    
C15   C19   S    
C27   N5    A    
C41   N18   A    
C11   H31   S    
C76   C93   S    
N8    Ni7   S    
N5    N14   A    
C29   H6    S    
C46   N24   A    
N18   N23   A    
C37   H15   S    
C38   C65   A    
C10   C19   D    
C103  O13   S    
C2    H27   S    
C12   H35   S    
N4    Ni5   S    
C101  O7    D    
C18   C104  S    
C2    C15   D    
C69   C88   A    
C27   C63   A    
C47   C54   A    
C81   C90   A    
C44   C51   A    
C37   N15   A    
C73   N32   S    
C7    O25   D    
C77   C86   A    
C102  O10   S    
C38   N16   A    
C4    O18   D    
C46   C57   A    
C24   N2    A    
C32   H9    S    
H36   N27   S    
C24   H2    S    
N6    N15   A    
H55   O29   S    
C26   H4    S    
H59   O4    S    
N22   N38   A    
N1    Ni1   S    
H57   O31   S    
C37   C64   A    
C10   C56   S    
N13   Ni2   S    
C25   H3    S    
H40   N29   S    
N11   Ni1   S    
C6    O24   S    
C67   C86   A    
C103  O11   D    
C41   C52   A    
C48   C55   A    
C80   C98   S    
N24   Ni7   S    
C82   C100  S    
H48   N32   S    
C43   C49   A    
C67   C80   A    
C99   O4    S    
C5    O21   S    
C2    C53   S    
N14   Ni4   S    
C96   O29   S    
C83   N39   A    
C25   N3    A    
H53   O12   S    
C5    C19   S    
N36   Ni3   S    
C26   N4    A    
H37   N27   S    
C81   C99   S    
C5    O20   D    
C69   N29   S    
C64   C91   S    
N9    N40   A    
N18   Ni6   S    
C30   H7    S    
N26   Ni8   S    
H51   N35   S    
C45   N22   A    
C73   C89   A    
C23   N40   A    
N25   N36   A    
N38   Ni4   S    
N10   Ni1   S    
H49   N33   S    
N12   Ni2   S    
C28   C52   A    
C50   H45   S    
C14   C103  S    
C39   C53   A    
C71   C90   A    
C1    C49   A    
H68   O21   S    
C24   C59   A    
C4    C20   S    
C76   C85   A    
C100  O6    S    
C95   O27   S    
C13   C22   D    
C101  O8    S    
N26   N37   A    
C26   C62   A    
C42   N19   A    
C15   C102  S    
C59   C87   S    
C70   N30   S    
C29   C64   A    
C30   C65   A    
C35   H13   S    
N2    N10   A    
C93   O1    D    
C9    C18   D    
H63   O13   S    
N3    N11   A    
N6    Ni8   S    
C27   H5    S    
C102  O9    D    
C8    C16   D    
C74   C78   A    
C1    H1    S    
C73   C77   A    
N2    Ni6   S    
C36   H14   S    
C84   C92   A    
N16   Ni3   S    
C13   C55   S    
C11   C57   S    
C75   C79   A    
C43   H20   S    
C14   C94   D    
C12   C54   S    
C3    C16   S    
C17   H12   S    
H38   N28   S    
C97   O30   D    
C98   O2    S    
C9    H29   S    
