data_mof_unit_59673.cif
_audit_creation_date              2012-12-11T18:34:54-0500
_audit_creation_method            fapswitch 2.2
_symmetry_space_group_name_H-M    P1
_symmetry_Int_Tables_number       1
_space_group_crystal_system       triclinic
_cell_length_a                    8.293932
_cell_length_b                    14.447415
_cell_length_c                    22.817066
_cell_angle_alpha                 94.389714
_cell_angle_beta                  89.246843
_cell_angle_gamma                 91.610056
_cell_volume                      2724.81253266

loop_
_atom_site_label
_atom_site_type_symbol
_atom_type_description
_atom_site_fract_x
_atom_site_fract_y
_atom_site_fract_z
_atom_type_partial_charge
Ba1   Ba    Ba6+2 0.846250 0.544220 0.470860 1.692026
Ba2   Ba    Ba6+2 0.343570 0.455860 0.529140 1.674469
C1    C     C_3   0.607139 0.879402 0.306935 -0.317933
C2    C     C_R   0.088583 0.581782 0.939047 -0.068276
C3    C     C_R   0.044518 0.578477 0.879029 0.612712
C4    C     C_3   0.155506 0.798120 0.307267 0.359899
C5    C     C_R   0.974209 0.416368 0.879917 0.577513
C6    C     C_R   0.018308 0.417397 0.939827 -0.007592
C7    C     C_R   0.075259 0.500869 0.969615 -0.054877
C8    C     C_R   0.144460 0.664712 0.969159 -0.137266
C9    C     C_R   0.186854 0.668582 0.029003 0.428257
C10   C     C_R   0.174292 0.587100 0.060164 -0.034243
C11   C     C_R   0.118665 0.503308 0.030120 -0.117397
C12   C     C_3   0.611625 0.785383 0.332497 0.402645
C13   C     C_R   0.006488 0.336753 0.970694 -0.072301
C14   C     C_R   0.050032 0.338777 0.029798 -0.063556
C15   C     C_R   0.106282 0.421617 0.060316 -0.015589
C16   C     C_3   0.116570 0.826002 0.245486 0.437532
C17   C     C_R   0.151365 0.424042 0.120155 0.593186
C18   C     C_R   0.215724 0.587050 0.120578 0.618658
C19   C     C_2   0.784233 0.470507 0.772737 -0.087235
C20   C     C_3   0.732056 0.480029 0.709917 -0.006193
C21   C     C_1   0.006581 0.519798 0.685330 0.106176
C22   C     C_2   0.053203 0.524224 0.741298 -0.110742
C23   C     C_3   0.573045 0.308069 0.348235 0.388001
C24   C     C_2   0.937690 0.495339 0.788657 0.209390
C25   C     C_R   0.405427 0.546663 0.229378 -0.172033
C26   C     C_R   0.449900 0.552563 0.288704 -0.033666
C27   C     C_R   0.195285 0.478163 0.314816 0.038302
C28   C     C_3   0.169772 0.741033 0.588784 0.387022
C29   C     C_R   0.149448 0.472781 0.255186 -0.125239
C30   C     C_R   0.253270 0.508134 0.211662 0.205626
C31   C     C_2   0.874089 0.473916 0.668431 -0.193265
C32   C     C_R   0.694414 0.935272 0.528609 -0.050362
C33   C     C_R   0.513720 0.799702 0.496502 0.058617
C34   C     C_3   0.670968 0.290018 0.291577 -0.315823
C35   C     C_R   0.372950 0.767308 0.467914 -0.269260
C36   C     C_R   0.273514 0.827557 0.441738 -0.009331
C37   C     C_R   0.319661 0.919830 0.439700 -0.138008
C38   C     C_R   0.460698 0.955726 0.468011 -0.039862
C39   C     C_R   0.557897 0.896239 0.498229 -0.078153
C40   C     C_3   0.155611 0.846327 0.598716 -0.103395
C41   C     C_R   0.639464 0.089840 0.497618 -0.031783
C42   C     C_R   0.737947 0.030186 0.527445 -0.062959
C43   C     C_R   0.681701 0.186622 0.501004 0.050102
C44   C     C_R   0.818696 0.220461 0.531105 -0.282201
C45   C     C_3   0.167158 0.265234 0.693353 0.334245
C46   C     C_R   0.924460 0.160761 0.554258 0.088042
C47   C     C_R   0.882051 0.065917 0.554448 -0.115390
C48   C     C_R   0.502614 0.050651 0.466633 0.399373
C49   C     C_3   0.016726 0.258743 0.410467 0.297100
C50   C     C_3   0.992471 0.154749 0.395286 -0.403808
C51   C     C_3   0.639010 0.677862 0.649709 0.630278
C52   C     C_3   0.532565 0.694112 0.704596 -0.303788
C53   C     C_3   0.184543 0.243455 0.757119 -0.330486
C54   C     C_3   0.629439 0.225559 0.678250 0.651788
C55   C     C_3   0.582299 0.128970 0.696644 -0.335706
C56   C     C_R   0.344340 0.519402 0.330839 0.138387
H1    H     H_    0.690619 0.792078 0.371659 0.079141
H2    H     H_    0.730491 0.901908 0.293850 0.157994
H3    H     H_    0.570636 0.759370 0.730216 0.108239
H4    H     H_    0.540934 0.635535 0.733036 0.074628
H5    H     H_    0.405187 0.700690 0.692056 0.130839
H6    H     H_    0.487233 0.765449 0.346148 -0.114844
H7    H     H_    0.559021 0.931857 0.340237 0.074677
H8    H     H_    0.614700 0.376458 0.368888 0.106517
H9    H     H_    0.630409 0.223752 0.267654 0.123563
H10   H     H_    0.656339 0.347732 0.262733 0.086027
H11   H     H_    0.800451 0.285166 0.301593 0.136645
H12   H     H_    0.176038 0.879100 0.556692 0.023909
H13   H     H_    0.528372 0.874918 0.267773 0.114998
H14   H     H_    0.219252 0.806708 0.215550 0.086317
H15   H     H_    0.281830 0.294277 0.677642 0.107612
H16   H     H_    0.072417 0.317539 0.691141 0.037044
H17   H     H_    0.281757 0.193325 0.761264 0.125490
H18   H     H_    0.215125 0.308298 0.784499 0.115394
H19   H     H_    0.069970 0.213023 0.773647 0.147958
H20   H     H_    0.589293 0.226901 0.632120 0.046168
H21   H     H_    0.650794 0.075580 0.669850 0.094829
H22   H     H_    0.451692 0.114679 0.689193 0.088415
H23   H     H_    0.031270 0.862400 0.614431 0.104254
H24   H     H_    0.187236 0.723482 0.304324 -0.067702
H25   H     H_    0.608816 0.123713 0.743845 0.124451
H26   H     H_    0.039076 0.274873 0.051632 0.127071
H27   H     H_    0.963497 0.271442 0.949171 0.123654
H28   H     H_    0.488419 0.572835 0.197159 0.126707
H29   H     H_    0.155036 0.727458 0.946090 0.121103
H30   H     H_    0.174100 0.548801 0.753088 0.118017
H31   H     H_    0.695346 0.452481 0.805619 0.101248
H32   H     H_    0.033889 0.441111 0.242750 0.125618
H33   H     H_    0.260676 0.841449 0.323289 -0.122468
H34   H     H_    0.903478 0.288134 0.428381 -0.011665
H35   H     H_    0.875172 0.423820 0.630435 0.058015
H36   H     H_    0.333647 0.695980 0.470301 0.044156
H37   H     H_    0.240829 0.962734 0.416722 0.083107
H38   H     H_    0.961861 0.020245 0.574952 0.069750
H39   H     H_    0.849418 0.293962 0.533037 0.050469
H40   H     H_    0.769094 0.892725 0.553379 0.112767
H41   H     H_    0.295466 0.723498 0.577410 -0.057448
H42   H     H_    0.089467 0.716840 0.551870 0.039576
H43   H     H_    0.386812 0.881641 0.622974 0.180094
H44   H     H_    0.248316 0.955099 0.650897 0.194265
H45   H     H_    0.113063 0.270052 0.443632 0.066193
H46   H     H_    0.830195 0.742310 0.682323 0.318498
H47   H     H_    0.364949 0.246945 0.314903 0.203889
H48   H     H_    0.344861 0.321091 0.374106 0.199390
H49   H     H_    0.826067 0.243229 0.722599 0.313740
H50   H     H_    0.242388 0.800950 0.029571 0.303008
H51   H     H_    0.328464 0.570003 0.409129 0.297520
H52   H     H_    0.301595 0.102429 0.447843 0.298102
H53   H     H_    0.000448 0.713170 0.217363 0.316755
H54   H     H_    0.009092 0.947633 0.276327 0.199390
H55   H     H_    0.205640 0.960186 0.258068 0.135717
H56   H     H_    0.884598 0.141358 0.367276 0.141483
H57   H     H_    0.975993 0.117519 0.435638 0.049454
H58   H     H_    0.099598 0.126705 0.370998 0.137389
H59   H     H_    0.605628 0.608469 0.628410 0.047752
N1    N     N_R   0.987450 0.496450 0.850031 -0.425956
N2    N     N_R   0.204873 0.506259 0.149965 -0.432395
N3    N     N_3   0.271774 0.884594 0.642224 -0.468151
N4    N     N_3   0.404027 0.311914 0.333741 -0.504531
N5    N     N_3   0.097058 0.926360 0.245325 -0.434591
O1    O     O_2   0.901900 0.448470 0.362340 -0.476225
O2    O     O_2   0.263907 0.165533 0.554902 -0.518649
O3    O     O_3   0.128779 0.183852 0.658531 -0.592575
O4    O     O_3   0.142240 0.449440 0.433360 -0.470050
O5    O     O_3   0.549340 0.612930 0.525560 -0.480535
O6    O     O_2   0.396530 0.270940 0.479440 -0.440323
O7    O     O_3   0.593281 0.234678 0.384216 -0.607368
O8    O     O_2   0.403236 0.444892 0.707097 -0.520560
O9    O     O_3   0.554504 0.293567 0.716159 -0.627302
O10   O     O_2   0.054719 0.649164 0.852863 -0.583051
O11   O     O_2   0.924713 0.343955 0.854314 -0.612236
O12   O     O_3   0.617012 0.750779 0.613600 -0.666588
O13   O     O_2   0.145157 0.352417 0.145416 -0.586486
O14   O     O_2   0.260742 0.659373 0.147252 -0.556391
O15   O     O_3   0.645560 0.619080 0.391970 -0.438753
O16   O     O_2   0.789369 0.554235 0.291753 -0.483921
O17   O     O_3   0.060052 0.299864 0.359008 -0.637601
O18   O     O_3   0.673241 0.719800 0.289970 -0.554248
O19   O     O_2   0.793170 0.729090 0.520590 -0.459596
O20   O     O_3   0.052800 0.667320 0.419180 -0.486933
O21   O     O_2   0.942403 0.832294 0.455291 -0.496356
O22   O     O_3   0.800322 0.678184 0.666581 -0.770868
O23   O     O_3   0.021692 0.813202 0.344755 -0.576725
O24   O     O_3   0.796999 0.238322 0.680392 -0.779307
O25   O     O_3   0.241007 0.751444 0.057387 -0.657701
O26   O     O_3   0.393269 0.521469 0.387925 -0.701805
O27   O     O_3   0.413411 0.103119 0.432053 -0.710522
O28   O     O_3   0.975151 0.779869 0.224580 -0.637270
O29   O     O_2   0.287790 0.551560 0.637690 -0.497399
O30   O     O_3   0.047460 0.550640 0.566640 -0.489714
O31   O     O_3   0.544140 0.380990 0.608030 -0.485480
O32   O     O_3   0.125183 0.700498 0.640525 -0.595790
O33   O     O_3   0.640350 0.387150 0.474440 -0.472212
O34   O     O_3   0.136890 0.332750 0.580830 -0.502130
P1    P     P_3+3 0.074990 0.420800 0.372080 1.010717
P2    P     P_3+3 0.618830 0.715330 0.538180 0.988478
P3    P     P_3+3 0.074163 0.786653 0.415393 0.945624
P4    P     P_3+3 0.114710 0.579280 0.627920 1.039581
P5    P     P_3+3 0.115069 0.211254 0.585254 0.952552
P6    P     P_3+3 0.641059 0.609047 0.314758 1.034030
P7    P     P_3+3 0.579461 0.270863 0.459603 1.014128
P8    P     P_3+3 0.562215 0.400805 0.684587 0.936682

loop_
_geom_bond_atom_site_label_1
_geom_bond_atom_site_label_2
_ccdc_geom_bond_type
C42   C47   A    
C19   C24   D    
O30   P4    S    
Ba2   O33   S    
C4    H24   S    
C55   H21   S    
C5    N1    Am   
C14   H26   S    
O20   P3    S    
H52   O27   S    
C23   O7    S    
C34   H9    S    
C26   P6    S    
C5    C6    A    
C19   H31   S    
C43   C44   A    
O32   P4    S    
C12   H1    S    
C40   H23   S    
Ba1   P2    S    
C33   C35   A    
C22   C24   S    
C36   P3    S    
C5    O11   D    
O15   P6    S    
O23   P3    S    
C51   H59   S    
O4    P1    S    
C52   H5    S    
C49   H45   S    
C13   C14   A    
C28   H42   S    
C40   H12   S    
C54   H20   S    
C54   C55   S    
O7    P7    S    
Ba1   O30   S    
Ba1   Ba2   S    
Ba1   O33   S    
C7    C11   A    
Ba1   O20   S    
C15   C17   A    
C3    O10   D    
H55   N5    S    
C6    C7    A    
C21   C31   D    
C21   C22   D    
C55   H25   S    
C13   H27   S    
H50   O25   S    
C53   H17   S    
C1    H2    S    
C17   N2    Am   
C19   C20   S    
C16   H14   S    
C55   H22   S    
C1    H7    S    
C32   C39   A    
C45   O3    S    
C50   H58   S    
Ba2   O30   S    
C4    C16   S    
C44   C46   A    
C8    H29   S    
C23   H8    S    
O31   P8    S    
C49   C50   S    
C24   N1    S    
C32   C42   A    
Ba1   O4    S    
C45   H15   S    
C37   C38   A    
C4    O23   S    
C14   C15   A    
C27   P1    S    
C46   P5    S    
O1    P1    D    
O33   P7    S    
C51   C52   S    
C28   H41   S    
O6    P7    D    
C25   H28   S    
C1    H13   S    
C41   C42   A    
Ba1   O1    S    
H54   N5    S    
C35   C36   A    
C49   H34   S    
C20   P8    S    
O19   P2    D    
O18   P6    S    
C29   C30   A    
C29   H32   S    
C12   H6    S    
C21   P4    S    
C10   C18   A    
H46   O22   S    
H47   N4    S    
O16   P6    D    
C18   O14   D    
C41   C43   A    
C22   H30   S    
O5    P2    S    
C37   H37   S    
C1    C12   S    
C16   N5    S    
C53   H18   S    
Ba2   O4    S    
C46   C47   A    
O12   P2    S    
C44   H39   S    
C12   O18   S    
O34   P5    S    
C6    C13   A    
C50   H56   S    
H51   O26   S    
C30   N2    S    
C2    C8    A    
H53   O28   S    
Ba1   O15   S    
C34   H11   S    
C45   C53   S    
O2    P5    D    
C50   H57   S    
O8    P8    D    
Ba2   O29   S    
H49   O24   S    
C20   C31   S    
C38   C39   A    
Ba2   O34   S    
C25   C30   A    
H43   N3    S    
O3    P5    S    
C51   O12   S    
Ba1   O5    S    
C45   H16   S    
C2    C3    A    
C31   H35   S    
C9    C10   A    
C34   H10   S    
C41   C48   A    
O21   P3    D    
C52   H3    S    
C26   C56   A    
Ba2   O31   S    
C52   H4    S    
C11   C15   A    
C3    N1    Am   
H44   N3    S    
O29   P4    D    
C51   O22   S    
Ba1   P1    S    
C43   P7    S    
C33   P2    S    
C27   C29   A    
Ba2   O5    S    
C48   O27   S    
C9    O25   S    
C36   C37   A    
C23   N4    S    
O9    P8    S    
C53   H19   S    
H48   N4    S    
C32   H40   S    
C35   H36   S    
C56   O26   S    
C47   H38   S    
C54   O24   S    
C33   C39   A    
C54   O9    S    
Ba1   O19   S    
C8    C9    A    
C23   C34   S    
C38   C48   A    
C28   O32   S    
C27   C56   A    
O17   P1    S    
Ba2   P4    S    
C25   C26   A    
C40   N3    S    
C28   C40   S    
C10   C11   A    
C2    C7    A    
C16   O28   S    
C17   O13   D    
C18   N2    Am   
C4    H33   S    
Ba2   O6    S    
C49   O17   S    
