data_mof_unit_41555.cif
_audit_creation_date              2012-12-11T17:01:16-0500
_audit_creation_method            fapswitch 2.2
_symmetry_space_group_name_H-M    P1
_symmetry_Int_Tables_number       1
_space_group_crystal_system       triclinic
_cell_length_a                    19.451687
_cell_length_b                    7.127118
_cell_length_c                    17.495551
_cell_angle_alpha                 90.002802
_cell_angle_beta                  108.409046
_cell_angle_gamma                 90.002805
_cell_volume                      2301.36496366

loop_
_atom_site_label
_atom_site_type_symbol
_atom_type_description
_atom_site_fract_x
_atom_site_fract_y
_atom_site_fract_z
_atom_type_partial_charge
O1    O     O_R   0.413720 0.494330 0.415730 -0.540959
O2    O     O_R   0.586280 0.994330 0.584270 -0.540948
O3    O     O_R   0.560210 0.819300 0.430070 -0.519451
O4    O     O_R   0.439790 0.319300 0.569930 -0.519469
C1    C     C_R   0.580608 0.654877 0.413687 0.749984
C2    C     C_R   0.419384 0.154879 0.586303 0.749977
O5    O     O_R   0.412670 0.823730 0.406310 -0.546584
O6    O     O_R   0.587330 0.323730 0.593690 -0.546585
O7    O     O_R   0.437690 0.998790 0.560340 -0.542321
O8    O     O_R   0.562310 0.498790 0.439660 -0.542321
C3    C     C_R   0.386769 0.655137 0.381719 0.684425
C4    C     C_R   0.613230 0.155142 0.618283 0.684395
O9    O     O_3   0.508380 0.662350 0.550560 -0.384789
O10   O     O_3   0.491620 0.162350 0.449440 -0.384788
V1    V     V_3+5 0.498450 0.935370 0.490620 1.405192
V2    V     V_3+5 0.501550 0.435370 0.509380 1.405167
C5    C     C_R   0.725636 0.987848 0.699057 0.052443
C6    C     C_R   0.274354 0.487855 0.300948 0.052412
C7    C     C_R   0.681764 0.146473 0.686870 -0.096926
C8    C     C_R   0.318234 0.646473 0.313137 -0.096899
C9    C     C_R   0.708146 0.298828 0.738647 -0.168179
C10   C     C_R   0.291858 0.798830 0.261366 -0.168140
H1    H     H_    0.675122 0.422082 0.734030 0.128802
H2    H     H_    0.324889 0.922086 0.265983 0.128783
C11   C     C_R   0.774966 0.287005 0.800994 -0.157163
C12   C     C_R   0.225036 0.787008 0.199019 -0.157176
H3    H     H_    0.789917 0.401091 0.843818 0.123535
H4    H     H_    0.210090 0.901090 0.156200 0.123538
C13   C     C_R   0.819953 0.126500 0.810511 -0.122934
C14   C     C_R   0.180043 0.626507 0.189497 -0.122934
C15   C     C_R   0.796471 0.983461 0.752412 0.064764
C16   C     C_R   0.203519 0.483468 0.247592 0.064785
C17   C     C_3   0.791505 0.776007 0.764174 -0.211099
C18   C     C_3   0.208482 0.276008 0.235829 -0.211093
C19   C     C_3   0.709882 0.793016 0.720844 -0.201883
C20   C     C_3   0.290106 0.293024 0.279157 -0.201888
H5    H     H_    0.806083 0.732490 0.828260 0.124163
H6    H     H_    0.193900 0.232482 0.171743 0.124158
H7    H     H_    0.688244 0.702279 0.666853 0.127832
H8    H     H_    0.311742 0.202289 0.333145 0.127824
C21   C     C_R   0.317493 0.010701 0.623108 -0.283350
C22   C     C_R   0.682419 0.510506 0.376786 -0.283249
C23   C     C_R   0.373080 0.144428 0.639127 -0.191175
C24   C     C_R   0.626900 0.644414 0.360850 -0.191321
C25   C     C_R   0.384943 0.265822 0.706043 0.448859
C26   C     C_R   0.615083 0.765934 0.293982 0.448897
C27   C     C_R   0.335467 0.267877 0.751023 -0.102795
C28   C     C_R   0.664558 0.767967 0.249002 -0.102870
C29   C     C_R   0.278396 0.134354 0.732371 -0.074759
C30   C     C_R   0.721571 0.634299 0.267586 -0.074799
C31   C     C_R   0.270878 0.002878 0.669767 0.135519
C32   C     C_R   0.729019 0.502657 0.330111 0.135528
C33   C     C_R   0.341996 0.396843 0.814871 0.505774
C34   C     C_R   0.658079 0.897045 0.185207 0.505768
C35   C     C_R   0.289077 0.399118 0.854351 -0.293009
C36   C     C_R   0.711007 0.899331 0.145740 -0.293030
C37   C     C_R   0.233835 0.265151 0.837119 0.035011
C38   C     C_R   0.766205 0.765251 0.162922 0.034976
C39   C     C_R   0.228950 0.130289 0.776824 0.074570
C40   C     C_R   0.771018 0.630234 0.223137 0.074564
C41   C     C_R   0.174328 0.991481 0.760732 0.117420
C42   C     C_R   0.825569 0.491259 0.239146 0.117366
C43   C     C_R   0.168730 0.859631 0.699599 -0.190351
C44   C     C_R   0.831080 0.359202 0.300180 -0.190342
C45   C     C_R   0.216110 0.866451 0.654007 -0.160077
C46   C     C_R   0.783702 0.366020 0.345773 -0.159869
C47   C     C_R   0.183980 0.262532 0.880256 -0.185786
C48   C     C_R   0.816070 0.762657 0.119801 -0.185839
C49   C     C_R   0.130627 0.122296 0.865869 -0.086728
C50   C     C_R   0.869363 0.622278 0.134116 -0.086753
C51   C     C_R   0.126287 0.986731 0.806118 -0.224999
C52   C     C_R   0.873621 0.486530 0.193776 -0.224994
H9    H     H_    0.309853 0.914027 0.573228 0.143373
H10   H     H_    0.690013 0.413693 0.426613 0.143419
H11   H     H_    0.291737 0.505315 0.899422 0.132869
H12   H     H_    0.708384 0.005608 0.100708 0.132883
H13   H     H_    0.188199 0.366039 0.926964 0.120297
H14   H     H_    0.811906 0.866304 0.073157 0.120342
H15   H     H_    0.084913 0.878889 0.794294 0.130502
H16   H     H_    0.914939 0.378552 0.205541 0.130541
H17   H     H_    0.127217 0.752172 0.686505 0.125292
H18   H     H_    0.872527 0.251571 0.313194 0.125285
H19   H     H_    0.210011 0.764418 0.606396 0.118370
H20   H     H_    0.789730 0.263813 0.393308 0.118343
O11   O     O_R   0.937800 0.775460 0.060470 -0.538148
O12   O     O_R   0.062200 0.275460 0.939530 -0.538133
O13   O     O_R   0.087350 0.441340 0.093710 -0.543406
O14   O     O_R   0.912650 0.941340 0.906290 -0.543411
C53   C     C_R   0.113601 0.610783 0.118007 0.681704
C54   C     C_R   0.886396 0.110777 0.881996 0.681689
O15   O     O_R   0.939820 0.446010 0.069950 -0.537430
O16   O     O_R   0.060180 0.946010 0.930050 -0.537407
O17   O     O_R   0.913690 0.271230 0.915700 -0.545197
O18   O     O_R   0.086310 0.771230 0.084300 -0.545197
C55   C     C_R   0.918945 0.614325 0.085095 0.699235
C56   C     C_R   0.081052 0.114327 0.914902 0.699236
O19   O     O_3   0.991670 0.603050 0.949510 -0.382349
O20   O     O_3   0.008330 0.103050 0.050490 -0.382364
V3    V     V_3+5 0.001550 0.329940 0.009370 1.363737
V4    V     V_3+5 0.998450 0.829940 0.990630 1.363754
C57   C     C_R   0.832469 0.668538 0.716380 0.121437
C58   C     C_R   0.889962 0.550988 0.757469 -0.116490
C59   C     C_R   0.928272 0.448404 0.716136 -0.121566
C60   C     C_R   0.909919 0.463522 0.632563 -0.104497
C61   C     C_R   0.853584 0.582145 0.590450 -0.135503
C62   C     C_R   0.815316 0.685024 0.631824 -0.114731
H21   H     H_    0.904339 0.537416 0.821612 0.151594
H22   H     H_    0.972070 0.356879 0.748977 0.110558
H23   H     H_    0.939468 0.383861 0.600483 0.108933
H24   H     H_    0.839537 0.594608 0.525649 0.117604
H25   H     H_    0.772332 0.776457 0.597330 0.100403
C63   C     C_R   0.167521 0.168539 0.283625 0.121447
C64   C     C_R   0.110026 0.050974 0.242537 -0.116516
C65   C     C_R   0.071721 0.948375 0.283871 -0.121568
C66   C     C_R   0.090083 0.963492 0.367445 -0.104479
C67   C     C_R   0.146419 0.082131 0.409558 -0.135531
C68   C     C_R   0.184683 0.185026 0.368184 -0.114724
H26   H     H_    0.095644 0.037403 0.178393 0.151599
H27   H     H_    0.027921 0.856838 0.251029 0.110543
H28   H     H_    0.060539 0.883819 0.399526 0.108922
H29   H     H_    0.160473 0.094593 0.474361 0.117626
H30   H     H_    0.227670 0.276469 0.402679 0.100410
C69   C     C_R   0.662582 0.798357 0.776506 0.103799
C70   C     C_R   0.686187 0.880633 0.854109 -0.092152
C71   C     C_R   0.638246 0.906292 0.898126 -0.144058
C72   C     C_R   0.566040 0.852265 0.865706 -0.147002
C73   C     C_R   0.542091 0.768277 0.789937 -0.101969
C74   C     C_R   0.590366 0.738176 0.746539 -0.162765
H31   H     H_    0.740996 0.929361 0.880893 0.099605
H32   H     H_    0.656864 0.972082 0.956723 0.102474
H33   H     H_    0.528517 0.877346 0.898926 0.111816
H34   H     H_    0.485864 0.728280 0.764428 0.203957
H35   H     H_    0.571181 0.670132 0.689012 0.160374
C75   C     C_R   0.337409 0.298390 0.223499 0.103784
C76   C     C_R   0.313803 0.380651 0.145900 -0.092137
C77   C     C_R   0.361754 0.406426 0.101903 -0.144000
C78   C     C_R   0.433970 0.352513 0.134338 -0.147038
C79   C     C_R   0.457918 0.268512 0.210098 -0.102032
C80   C     C_R   0.409633 0.238311 0.253479 -0.162728
H36   H     H_    0.258988 0.429303 0.119109 0.099589
H37   H     H_    0.343137 0.472223 0.043314 0.102445
H38   H     H_    0.471499 0.377688 0.101133 0.111764
H39   H     H_    0.514150 0.228584 0.235615 0.203901
H40   H     H_    0.428819 0.170285 0.311001 0.160376
O21   O     O_3   0.444912 0.382297 0.726954 -0.537221
C81   C     C_3   0.505158 0.278376 0.774319 -0.186067
H41   H     H_    0.520226 0.166006 0.738524 0.111297
H42   H     H_    0.495133 0.217583 0.828455 0.130374
H43   H     H_    0.552464 0.373200 0.795924 0.156670
O22   O     O_3   0.555133 0.882473 0.273095 -0.537159
C82   C     C_3   0.494880 0.778615 0.225679 -0.186184
H44   H     H_    0.479838 0.666072 0.261386 0.111313
H45   H     H_    0.504872 0.718110 0.171491 0.130404
H46   H     H_    0.447572 0.873392 0.204171 0.156645
O23   O     O_3   0.397659 0.527658 0.835111 -0.526702
C83   C     C_3   0.438033 0.512355 0.917727 -0.267540
H47   H     H_    0.443198 0.364916 0.940257 0.111746
H48   H     H_    0.414022 0.602605 0.954385 0.131843
H49   H     H_    0.493807 0.563176 0.926544 0.162018
O24   O     O_3   0.602447 0.027933 0.164997 -0.526681
C84   C     C_3   0.562069 0.012672 0.082384 -0.267368
H50   H     H_    0.556867 0.865216 0.059833 0.111670
H51   H     H_    0.586113 0.102884 0.045736 0.131828
H52   H     H_    0.506306 0.063570 0.073572 0.162006

loop_
_geom_bond_atom_site_label_1
_geom_bond_atom_site_label_2
_ccdc_geom_bond_type
C78   H38   S    
C43   C45   A    
C57   C58   A    
C36   H12   S    
C18   C63   S    
C60   C61   A    
O1    C3    A    
C61   H24   S    
C49   C56   S    
O2    C4    A    
C84   H52   S    
C2    O7    A    
C51   H15   S    
C65   C66   A    
C32   C46   A    
C69   C70   A    
C27   C29   A    
C28   C34   A    
C72   C73   A    
C43   H17   S    
C25   O21   S    
C83   H47   S    
C7    C9    A    
C81   H41   S    
C79   H39   S    
O21   C81   S    
C63   C68   A    
C17   C19   S    
C37   C39   A    
C38   C40   A    
C66   C67   A    
O16   C56   A    
C67   C68   A    
C40   C42   A    
C31   C45   A    
C82   H46   S    
C53   O18   A    
C49   C51   A    
C73   H34   S    
C13   C54   S    
C20   H8    S    
C42   C44   A    
O19   V3    S    
C71   H32   S    
C29   C31   A    
C47   H13   S    
C30   C32   A    
C82   H44   S    
C15   C17   S    
C59   H22   S    
O17   V3    S    
C18   C20   S    
C65   H27   S    
C27   C33   A    
C35   H11   S    
C48   C50   A    
C41   C51   A    
C28   C30   A    
O6    V2    S    
C11   C13   A    
C21   C23   A    
C34   O24   S    
C22   C24   A    
C37   C47   A    
C14   C53   S    
C63   C64   A    
C84   H51   S    
C24   C26   A    
C84   H50   S    
C81   H42   S    
C62   H25   S    
C33   C35   A    
C48   H14   S    
C76   H36   S    
C26   C28   A    
C3    C8    S    
C22   H10   S    
C39   C41   A    
C67   H29   S    
C76   C77   A    
O4    C2    A    
C75   C80   A    
O15   C55   A    
C17   H5    S    
C47   C49   A    
C46   H20   S    
C16   C18   S    
O4    V2    S    
C19   H7    S    
C68   H30   S    
C77   H37   S    
O12   V3    S    
C81   H43   S    
C80   H40   S    
O5    C3    A    
C83   H48   S    
O18   V4    S    
O6    C4    A    
C41   C43   A    
C42   C52   A    
C58   H21   S    
O1    V2    S    
O2    V1    S    
C23   C25   A    
C44   H18   S    
O14   V4    S    
O12   C56   A    
C38   C48   A    
C26   O22   S    
C1    C24   S    
C8    C10   A    
C33   O23   S    
O20   V4    S    
C2    C23   S    
C9    H1    S    
C71   C72   A    
C5    C15   A    
C10   H2    S    
C6    C16   A    
C73   C74   A    
C59   C60   A    
O19   V4    S    
O3    V1    S    
O16   V4    S    
C54   O17   A    
C64   C65   A    
C61   C62   A    
C57   C62   A    
C9    C11   A    
C18   H6    S    
C83   H49   S    
O10   V1    S    
O14   C54   A    
C77   C78   A    
O3    C1    A    
C20   C75   S    
C19   C69   S    
C66   H28   S    
C34   C36   A    
C12   C14   A    
C75   C76   A    
C11   H3    S    
C78   C79   A    
C12   H4    S    
C29   C39   A    
C30   C40   A    
O24   C84   S    
C17   C57   S    
C35   C37   A    
C50   C55   S    
O7    V1    S    
C1    O8    A    
C52   H16   S    
O11   V4    S    
O8    V2    S    
C74   H35   S    
C14   C16   A    
O11   C55   A    
C69   C74   A    
C60   H23   S    
C72   H33   S    
C4    C7    S    
O5    V1    S    
C5    C7    A    
C36   C38   A    
C70   H31   S    
C6    C8    A    
C82   H45   S    
C58   C59   A    
C45   H19   S    
C79   C80   A    
C21   H9    S    
C64   H26   S    
O13   V3    S    
C25   C27   A    
C13   C15   A    
O20   V3    S    
C10   C12   A    
O9    V2    S    
C22   C32   A    
O23   C83   S    
O13   C53   A    
O22   C82   S    
C50   C52   A    
C5    C19   S    
O15   V3    S    
C6    C20   S    
C21   C31   A    
C44   C46   A    
C70   C71   A    
