data_mof_unit_21224.cif
_audit_creation_date              2012-12-10T17:15:48-0500
_audit_creation_method            fapswitch 2.2
_symmetry_space_group_name_H-M    P1
_symmetry_Int_Tables_number       1
_space_group_crystal_system       triclinic
_cell_length_a                    10.135795
_cell_length_b                    10.672492
_cell_length_c                    10.740635
_cell_angle_alpha                 90.116434
_cell_angle_beta                  95.446031
_cell_angle_gamma                 81.380466
_cell_volume                      1143.463605

loop_
_atom_site_label
_atom_site_type_symbol
_atom_type_description
_atom_site_fract_x
_atom_site_fract_y
_atom_site_fract_z
_atom_type_partial_charge
C1    C     C_R   0.443719 0.503386 0.266996 0.964965
C2    C     C_2   0.489803 0.444945 0.933744 -0.213353
C3    C     C_2   0.072528 0.491466 0.486701 0.405569
C4    C     C_R   0.502679 0.259204 0.509380 0.878042
C5    C     C_2   0.927492 0.511702 0.508225 -0.171462
C6    C     C_R   0.556382 0.487458 0.733281 0.875905
C7    C     C_R   0.496812 0.739488 0.484068 0.896207
C8    C     C_R   0.755462 0.071010 0.535989 -0.135288
C9    C     C_R   0.868523 0.995831 0.497210 -0.178807
C10   C     C_R   0.853185 0.893394 0.419697 -0.177194
C11   C     C_R   0.726617 0.857454 0.392732 0.192562
C12   C     C_R   0.625827 0.040359 0.501761 0.070806
C13   C     C_R   0.615147 0.921865 0.449807 0.047386
C14   C     C_R   0.505403 0.124073 0.513914 -0.123500
C15   C     C_R   0.382060 0.079527 0.505088 -0.164450
C16   C     C_R   0.377520 0.953558 0.484295 -0.196051
C17   C     C_R   0.494623 0.873002 0.462265 -0.115561
C18   C     C_2   0.411598 0.491096 0.134246 -0.320464
C19   C     C_2   0.508619 0.436867 0.067583 -0.099360
C20   C     C_2   0.589468 0.464575 0.866166 0.005373
Cl1   Cl    Cl    0.128743 0.384529 0.370774 -0.595510
H1    H     H_    0.288900 0.141443 0.515547 0.200201
H2    H     H_    0.387948 0.446042 0.890895 0.182814
H3    H     H_    0.606592 0.396637 0.111873 0.217027
H4    H     H_    0.312615 0.529671 0.090743 0.173310
H5    H     H_    0.891650 0.581550 0.575609 0.156739
H6    H     H_    0.876445 0.381659 0.385694 0.234009
H7    H     H_    0.120186 0.613184 0.617711 0.126456
H8    H     H_    0.770716 0.151650 0.593812 0.168492
H9    H     H_    0.967097 0.021472 0.521155 0.157226
H10   H     H_    0.939201 0.843613 0.378462 0.165537
H11   H     H_    0.282837 0.918918 0.488593 0.169771
I1    I     I_    0.705569 0.737631 0.235910 -0.295991
I2    I     I_    0.791217 0.466967 0.942854 -0.304592
N1    N     N_2   0.157290 0.551390 0.551110 -0.220721
N2    N     N_2   0.842740 0.448550 0.448960 -0.174580
O1    O     O_R   0.568950 0.489660 0.307530 -0.595928
O2    O     O_R   0.348880 0.522640 0.340350 -0.555518
O3    O     O_R   0.610060 0.300270 0.483590 -0.629560
O4    O     O_R   0.389990 0.333260 0.516410 -0.570219
O5    O     O_R   0.651120 0.477360 0.659650 -0.592240
O6    O     O_R   0.431050 0.510340 0.692470 -0.625160
O7    O     O_R   0.610010 0.666740 0.483590 -0.600029
O8    O     O_R   0.389940 0.699730 0.516410 -0.619265
Zn1   Zn    Zn3+2 0.646940 0.477980 0.478090 0.986542
Zn2   Zn    Zn3+2 0.353060 0.522020 0.521910 0.999863

loop_
_geom_bond_atom_site_label_1
_geom_bond_atom_site_label_2
_ccdc_geom_bond_type
C8    C9    A    
O3    Zn1   S    
C7    O7    A    
H6    N2    S    
C16   H11   S    
O7    Zn1   S    
C9    C10   A    
C4    O3    A    
C13   C17   A    
C8    C12   A    
C20   I2    S    
C19   H3    S    
N2    Zn1   S    
C7    O8    A    
O4    Zn2   S    
C11   C13   A    
C1    C18   S    
C18   H4    S    
C9    H9    S    
C8    H8    S    
C1    O2    A    
C12   C14   A    
C4    C14   S    
O2    Zn2   S    
C3    Cl1   S    
C10   C11   A    
C3    N1    D    
C15   C16   A    
C5    N2    D    
C4    O4    A    
C11   I1    S    
C6    C20   S    
C12   C13   A    
C18   C19   D    
O6    Zn2   S    
C2    H2    S    
C2    C20   D    
O5    Zn1   S    
C14   C15   A    
C16   C17   A    
C7    C17   S    
C2    C19   S    
N1    Zn2   S    
O1    Zn1   S    
C10   H10   S    
C15   H1    S    
C5    H5    S    
H7    N1    S    
O8    Zn2   S    
C1    O1    A    
C3    C5    S    
C6    O5    A    
C6    O6    A    
