data_mof_unit_40083.cif
_audit_creation_date              2012-12-10T19:09:35-0500
_audit_creation_method            fapswitch 2.2
_symmetry_space_group_name_H-M    P1
_symmetry_Int_Tables_number       1
_space_group_crystal_system       triclinic
_cell_length_a                    9.522339
_cell_length_b                    10.791531
_cell_length_c                    17.045783
_cell_angle_alpha                 88.531413
_cell_angle_beta                  94.447038
_cell_angle_gamma                 90.042143
_cell_volume                      1745.7867436

loop_
_atom_site_label
_atom_site_type_symbol
_atom_type_description
_atom_site_fract_x
_atom_site_fract_y
_atom_site_fract_z
_atom_type_partial_charge
C1    C     C_R   0.500325 0.262097 0.502394 0.793785
C2    C     C_R   0.657007 0.515267 0.786173 0.054807
C3    C     C_R   0.536178 0.398274 0.140776 -0.212508
C4    C     C_R   0.556185 0.401647 0.222921 0.055628
C5    C     C_R   0.430129 0.468763 0.098497 0.317068
C6    C     C_R   0.468157 0.480402 0.263306 -0.086320
C7    C     C_R   0.356522 0.543299 0.221014 -0.287090
C8    C     C_R   0.334219 0.536117 0.139349 0.087066
C9    C     C_R   0.628003 0.063311 0.510007 0.127252
C10   C     C_R   0.502336 0.128747 0.512865 -0.100328
C11   C     C_R   0.380503 0.063376 0.530819 -0.222635
C12   C     C_R   0.518556 0.498434 0.651512 0.785865
C13   C     C_R   0.381254 0.933872 0.532367 -0.217746
C14   C     C_R   0.502906 0.869949 0.514572 -0.108444
C15   C     C_R   0.628095 0.936017 0.510876 0.139788
C16   C     C_3   0.738403 0.930332 0.453685 -0.495076
C17   C     C_3   0.738078 0.071077 0.452194 -0.475963
C18   C     C_R   0.068492 0.591666 0.460032 0.244534
C19   C     C_R   0.080671 0.417230 0.545185 -0.091187
C20   C     C_R   0.931693 0.417220 0.545180 -0.095592
C21   C     C_R   0.920397 0.591245 0.460133 0.220768
C22   C     C_3   0.899618 0.618629 0.374037 -0.503223
C23   C     C_R   0.500486 0.737607 0.503136 0.801614
C24   C     C_3   0.059115 0.617420 0.372810 -0.173022
C25   C     C_R   0.481973 0.493798 0.349238 0.791818
C26   C     C_R   0.529382 0.492946 0.738762 -0.076903
C27   C     C_R   0.406051 0.462787 0.775412 -0.259630
C28   C     C_R   0.405770 0.455351 0.856607 -0.176308
C29   C     C_R   0.530075 0.477054 0.903843 0.347409
C30   C     C_R   0.653999 0.505152 0.868634 -0.196016
Cu1   Cu    Cu3+1 0.640670 0.499980 0.500000 0.923400
Cu2   Cu    Cu3+1 0.359330 0.500020 0.500000 0.928210
H1    H     H_    0.285104 0.884733 0.542722 0.164672
H2    H     H_    0.837635 0.889253 0.481453 0.192834
H3    H     H_    0.698824 0.890169 0.396741 0.189510
H4    H     H_    0.838234 0.111486 0.477900 0.200138
H5    H     H_    0.697605 0.112183 0.394438 0.195442
H6    H     H_    0.141557 0.348713 0.580556 0.134353
H7    H     H_    0.880487 0.348636 0.580485 0.135363
H8    H     H_    0.848713 0.540748 0.342224 0.215770
H9    H     H_    0.846303 0.708557 0.360555 0.186680
H10   H     H_    0.095962 0.536712 0.340575 0.170119
H11   H     H_    0.602421 0.338752 0.109099 0.156264
H12   H     H_    0.747405 0.520167 0.907337 0.133099
H13   H     H_    0.286117 0.599524 0.251712 0.146994
H14   H     H_    0.308329 0.431539 0.882136 0.157330
H15   H     H_    0.308396 0.443443 0.741103 0.166555
H16   H     H_    0.283350 0.111480 0.539517 0.159769
N1    N     N_2   0.536173 0.471115 0.987161 -0.264068
N2    N     N_2   0.419045 0.472364 0.015164 -0.271617
N3    N     N_R   0.147870 0.500930 0.499500 -0.193946
N4    N     N_R   0.851960 0.500890 0.499500 -0.180218
O1    O     O_R   0.618810 0.319640 0.500000 -0.585846
O2    O     O_R   0.381230 0.319680 0.499990 -0.584021
O3    O     O_R   0.631790 0.498830 0.613930 -0.596154
O4    O     O_R   0.394210 0.498870 0.613920 -0.578564
O5    O     O_R   0.618770 0.680320 0.500010 -0.573602
O6    O     O_R   0.381190 0.680360 0.500000 -0.583926
O7    O     O_R   0.605790 0.501130 0.386080 -0.580870
O8    O     O_R   0.368210 0.501170 0.386070 -0.586840
C31   C     C_3   0.663176 0.312300 0.263903 -0.404280
C32   C     C_3   0.812576 0.334545 0.237862 -0.346057
C33   C     C_3   0.924617 0.274637 0.295726 -0.869454
H17   H     H_    0.907397 0.172949 0.300156 0.260703
H18   H     H_    0.030690 0.291981 0.274858 0.242650
H19   H     H_    0.921170 0.314554 0.354987 0.260919
H20   H     H_    0.821572 0.294434 0.179068 0.211823
H21   H     H_    0.834102 0.435221 0.232014 0.220389
H22   H     H_    0.664112 0.315235 0.328645 0.221993
H23   H     H_    0.630943 0.216237 0.248772 0.177398
C34   C     C_3   0.128121 0.739702 0.345983 -0.354113
C35   C     C_3   0.081550 0.858637 0.384501 -0.340212
C36   C     C_3   0.167758 0.969939 0.358992 -0.855412
H24   H     H_    0.282083 0.952841 0.372623 0.264357
H25   H     H_    0.147574 0.988307 0.294683 0.248797
H26   H     H_    0.137024 0.053342 0.390500 0.248992
H27   H     H_    0.969956 0.879417 0.365876 0.218904
H28   H     H_    0.093690 0.847582 0.449542 0.211206
H29   H     H_    0.243914 0.729549 0.357820 0.217014
H30   H     H_    0.105685 0.750579 0.281185 0.188485
C37   C     C_3   0.793052 0.550125 0.748983 -0.359702
C38   C     C_3   0.920289 0.583290 0.805724 -0.404212
C39   C     C_3   0.046183 0.621751 0.760400 -0.833634
H31   H     H_    0.074961 0.546269 0.721535 0.250454
H32   H     H_    0.020839 0.706722 0.723898 0.252277
H33   H     H_    0.137951 0.641336 0.802489 0.247843
H34   H     H_    0.892803 0.661511 0.842905 0.224968
H35   H     H_    0.951716 0.501549 0.844111 0.218945
H36   H     H_    0.825022 0.470594 0.714217 0.212183
H37   H     H_    0.770718 0.631761 0.708809 0.213865
C40   C     C_3   0.208722 0.602924 0.097766 -0.397827
C41   C     C_3   0.071115 0.537053 0.115173 -0.358228
C42   C     C_3   0.943418 0.601306 0.072405 -0.855110
H38   H     H_    0.935454 0.698173 0.092163 0.255599
H39   H     H_    0.951952 0.601885 0.007759 0.247440
H40   H     H_    0.846006 0.550826 0.085711 0.248989
H41   H     H_    0.074527 0.439444 0.095989 0.224481
H42   H     H_    0.058435 0.536249 0.179478 0.215957
H43   H     H_    0.206737 0.699992 0.118082 0.188752
H44   H     H_    0.216214 0.607957 0.033066 0.216614

loop_
_geom_bond_atom_site_label_1
_geom_bond_atom_site_label_2
_ccdc_geom_bond_type
C31   H23   S    
C23   O6    A    
C33   H18   S    
C42   H38   S    
C18   C21   A    
C24   H10   S    
C36   H24   S    
C19   C20   A    
Cu2   O6    S    
Cu1   N4    S    
C34   H29   S    
C37   C38   S    
C41   H42   S    
C7    C8    A    
C29   N1    S    
C3    H11   S    
C26   C27   A    
C35   H27   S    
C32   H20   S    
C18   C24   S    
C7    H13   S    
C28   C29   A    
C16   H3    S    
C6    C25   S    
C27   H15   S    
C38   H34   S    
Cu1   O7    S    
C1    O1    A    
C35   H28   S    
C16   H2    S    
C39   H31   S    
C16   C17   S    
C18   N3    A    
C25   O8    A    
C40   H44   S    
C29   C30   A    
C9    C10   A    
C37   H36   S    
C33   H19   S    
C22   H8    S    
C42   H39   S    
C21   C22   S    
C36   H25   S    
C30   H12   S    
C11   H16   S    
Cu2   O2    S    
C34   H30   S    
C41   H41   S    
C17   H4    S    
C4    C6    A    
C40   C41   S    
C20   H7    S    
C4    C31   S    
C12   C26   S    
C14   C23   S    
C1    O2    A    
Cu2   N3    S    
C13   H1    S    
C32   C33   S    
C19   H6    S    
Cu1   Cu2   S    
C28   H14   S    
C2    C26   A    
C8    C40   S    
C17   H5    S    
Cu1   O1    S    
C12   O4    A    
C37   H37   S    
C9    C17   S    
C39   H32   S    
C38   C39   S    
C42   H40   S    
C36   H26   S    
C22   C24   S    
C5    N2    S    
Cu2   O8    S    
C3    C4    A    
C31   H22   S    
C23   O5    A    
C1    C10   S    
C35   C36   S    
C3    C5    A    
C5    C8    A    
C6    C7    A    
C32   H21   S    
C2    C30   A    
Cu1   O3    S    
Cu1   O5    S    
C9    C15   A    
C34   C35   S    
C20   N4    A    
C11   C13   A    
C38   H35   S    
C41   C42   S    
C31   C32   S    
C12   O3    A    
C10   C11   A    
C33   H17   S    
C22   H9    S    
C19   N3    A    
C39   H33   S    
N1    N2    D    
C27   C28   A    
C14   C15   A    
C2    C37   S    
C25   O7    A    
C40   H43   S    
C13   C14   A    
Cu2   O4    S    
C21   N4    A    
C15   C16   S    
C24   C34   S    
