data_mof_unit_50980.cif
_audit_creation_date              2013-03-05T16:45:44-0500
_audit_creation_method            fapswitch 2.2
_symmetry_space_group_name_H-M    P1
_symmetry_Int_Tables_number       1
_space_group_crystal_system       triclinic
_cell_length_a                    16.967081
_cell_length_b                    10.73832
_cell_length_c                    9.912489
_cell_angle_alpha                 90.858894
_cell_angle_beta                  90.693718
_cell_angle_gamma                 91.082021
_cell_volume                      1805.37152645

loop_
_atom_site_label
_atom_site_type_symbol
_atom_site_description
_atom_site_fract_x
_atom_site_fract_y
_atom_site_fract_z
_atom_type_partial_charge
O1    O     O_R   0.500010 0.316790 0.614690 -0.528899
O2    O     O_R   0.500000 0.316760 0.385350 -0.643990
C1    C     C_R   0.502682 0.259970 0.499405 0.905765
O3    O     O_R   0.389120 0.500020 0.614710 -0.625692
O4    O     O_R   0.389110 0.499990 0.385370 -0.616339
C2    C     C_R   0.357373 0.531531 0.501158 0.862342
Zn1   Zn    Zn3+2 0.500010 0.500020 0.653130 0.977576
Zn2   Zn    Zn3+2 0.499990 0.499980 0.346870 0.931902
O5    O     O_R   0.500000 0.683240 0.614650 -0.629980
O6    O     O_R   0.499990 0.683210 0.385310 -0.626034
O7    O     O_R   0.610890 0.500010 0.614630 -0.619783
O8    O     O_R   0.610880 0.499980 0.385290 -0.617217
C3    C     C_R   0.498510 0.739425 0.500947 0.854738
C4    C     C_R   0.648162 0.503981 0.500785 0.848276
C5    C     C_R   0.863777 0.550824 0.602620 -0.198775
H1    H     H_    0.905917 0.525110 0.680051 0.130015
C6    C     C_R   0.786095 0.504573 0.606259 0.160562
C7    C     C_R   0.732900 0.536640 0.500935 -0.059289
C8    C     C_R   0.759916 0.612267 0.395336 -0.242490
H2    H     H_    0.720563 0.639723 0.314689 0.157075
C9    C     C_R   0.837448 0.655885 0.393102 -0.174296
H3    H     H_    0.857330 0.712197 0.309852 0.139295
C10   C     C_R   0.888970 0.625455 0.496970 0.125884
C11   C     C_1   0.970475 0.657416 0.489349 -0.056259
C12   C     C_1   0.040472 0.671422 0.487589 -0.061758
C13   C     C_R   0.162540 0.665048 0.616438 -0.161453
H4    H     H_    0.129489 0.681285 0.707787 0.133342
C14   C     C_R   0.242839 0.637033 0.624513 0.187762
C15   C     C_R   0.280618 0.595722 0.503850 -0.112466
C16   C     C_R   0.244472 0.622384 0.379790 -0.241734
H5    H     H_    0.276264 0.612207 0.287347 0.179225
C17   C     C_R   0.166142 0.657190 0.373107 -0.170246
H6    H     H_    0.137305 0.665923 0.275646 0.138747
C18   C     C_R   0.124205 0.670979 0.491769 0.117622
C19   C     C_R   0.519325 0.064636 0.618203 0.309157
C20   C     C_R   0.502613 0.126967 0.499084 -0.133604
C21   C     C_R   0.477682 0.060137 0.383871 -0.248239
H7    H     H_    0.466207 0.105015 0.290593 0.179605
C22   C     C_R   0.470829 0.932418 0.386510 -0.212748
H8    H     H_    0.453224 0.882323 0.294965 0.174696
C23   C     C_R   0.492145 0.870568 0.503821 -0.107066
C24   C     C_R   0.512732 0.936808 0.621126 0.144766
C25   C     C_3   0.586251 0.923339 0.702927 -0.511630
C26   C     C_3   0.596478 0.062616 0.693532 -0.507270
H9    H     H_    0.573653 0.891321 0.806756 0.218529
H10   H     H_    0.632621 0.870714 0.649350 0.202482
H11   H     H_    0.595921 0.110464 0.793290 0.262573
H12   H     H_    0.646659 0.088617 0.628469 0.188652
C27   C     C_R   0.430318 0.480653 0.067523 0.066014
N1    N     N_R   0.499490 0.499140 0.142800 -0.101193
C28   C     C_R   0.565555 0.533904 0.073815 -0.098354
H13   H     H_    0.619001 0.559433 0.128737 0.133834
C29   C     C_R   0.565203 0.535364 0.930330 -0.079234
H14   H     H_    0.618012 0.563801 0.878535 0.116437
N2    N     N_R   0.499490 0.499180 0.857150 -0.073628
C30   C     C_R   0.432609 0.477533 0.926042 0.021275
C31   C     C_3   0.377589 0.370715 0.906489 0.103052
C32   C     C_3   0.367845 0.373065 0.061747 0.138622
H15   H     H_    0.325672 0.397331 0.844666 0.081340
N3    N     N_R   0.415311 0.259993 0.850984 0.252715
O9    O     O_R   0.487434 0.233026 0.883641 -0.443714
O10   O     O_R   0.375701 0.186555 0.768321 -0.426459
C33   C     C_3   0.281309 0.414432 0.092411 -0.411375
C34   C     C_3   0.241211 0.360164 0.217143 -0.819371
H16   H     H_    0.228459 0.259197 0.203052 0.258383
H17   H     H_    0.276874 0.374180 0.309863 0.273021
H18   H     H_    0.183772 0.405990 0.231815 0.242888
H19   H     H_    0.278968 0.517396 0.094580 0.178769
H20   H     H_    0.241207 0.385424 0.007648 0.192680
C35   C     C_3   0.765172 0.415478 0.717728 -0.417864
C36   C     C_3   0.756573 0.282815 0.662751 -0.855453
H21   H     H_    0.708584 0.276485 0.585817 0.244353
H22   H     H_    0.812530 0.253190 0.616071 0.260356
H23   H     H_    0.742673 0.219213 0.746813 0.251514
H24   H     H_    0.812083 0.416302 0.797095 0.196205
H25   H     H_    0.711056 0.443273 0.770075 0.225195
C37   C     C_3   0.394110 0.254819 0.135685 -0.235387
C38   C     C_3   0.350211 0.134408 0.089700 -0.841910
H26   H     H_    0.296801 0.153762 0.028305 0.276543
H27   H     H_    0.389534 0.074944 0.028711 0.282316
H28   H     H_    0.331882 0.080032 0.178849 0.225918
H29   H     H_    0.458523 0.242963 0.124156 0.216646
H30   H     H_    0.384331 0.268958 0.244818 0.223023
C39   C     C_3   0.283759 0.659137 0.760741 -0.451819
C40   C     C_3   0.275736 0.793802 0.810961 -0.846972
H31   H     H_    0.298397 0.859474 0.734300 0.282990
H32   H     H_    0.213494 0.815326 0.833303 0.252530
H33   H     H_    0.310786 0.808152 0.905527 0.246511
H34   H     H_    0.257725 0.595273 0.835984 0.186911
H35   H     H_    0.347705 0.644930 0.758732 0.249363

loop_
_geom_bond_atom_site_label_1
_geom_bond_atom_site_label_2
_geom_bond_distance
_ccdc_geom_bond_type
N2    C30   1.349693 A    
C14   C39   1.524252 S    
C23   C24   1.391407 A    
C4    C7    1.473439 S    
C19   C20   1.394766 A    
Zn1   N2    2.022627 S    
C3    C23   1.414302 S    
C22   C23   1.395063 A    
C29   H14   1.079440 S    
Zn1   O7    1.924151 S    
C13   H4    1.084463 S    
C15   C16   1.403307 A    
C37   H29   1.109744 S    
C20   C21   1.396595 A    
C8    C9    1.388577 A    
O4    C2    1.316136 A    
O7    C4    1.301126 A    
C38   H27   1.110245 S    
C31   H15   1.111237 S    
C37   H30   1.105074 S    
C5    H1    1.084933 S    
C30   C31   1.474201 S    
N3    O10   1.300865 A    
C7    C8    1.410103 A    
C19   C24   1.375872 A    
O5    C3    1.286556 A    
C32   C37   1.545770 S    
C13   C18   1.392388 A    
C33   H20   1.111874 S    
C10   C11   1.421727 S    
C35   C36   1.521399 S    
C26   H11   1.107740 S    
C37   C38   1.540198 S    
C12   C18   1.420912 S    
C5    C10   1.394554 A    
C6    C35   1.513477 S    
C9    H3    1.083712 S    
C39   H35   1.098865 S    
O3    Zn1   1.915113 S    
C6    C7    1.422273 A    
C29   N2    1.369641 A    
C40   H32   1.109537 S    
C28   H13   1.080749 S    
C34   H18   1.110174 S    
C11   C12   1.194672 T    
O3    C2    1.294294 A    
C22   H8    1.083870 S    
C36   H22   1.111018 S    
C38   H26   1.110111 S    
C31   N3    1.464121 S    
C40   H31   1.111529 S    
C27   C32   1.553026 S    
N3    O9    1.301043 A    
C28   C29   1.422555 A    
C34   H17   1.101119 S    
C25   C26   1.506777 S    
C21   H7    1.066580 S    
C36   H23   1.110023 S    
Zn2   O8    1.915113 S    
N1    C28   1.368892 A    
C39   C40   1.531337 S    
C19   C26   1.499849 S    
C25   H9    1.111904 S    
O8    C4    1.301005 A    
C9    C10   1.389278 A    
C35   H25   1.103922 S    
C39   H34   1.110661 S    
Zn2   N1    2.022641 S    
C40   H33   1.111218 S    
C32   C33   1.573829 S    
C5    C6    1.400773 A    
C33   H19   1.107011 S    
C14   C15   1.432351 A    
O1    Zn1   1.998523 S    
O2    Zn2   2.009717 S    
O6    C3    1.288202 A    
O4    Zn2   1.924151 S    
C27   C30   1.403346 A    
C13   C14   1.402393 A    
C34   H16   1.108015 S    
C8    H2    1.083229 S    
O2    C1    1.293298 A    
C36   H21   1.109273 S    
C21   C22   1.374879 A    
C17   H6    1.083745 S    
C16   C17   1.388452 A    
C38   H28   1.110779 S    
C31   C32   1.549719 S    
C16   H5    1.074145 S    
C1    C20   1.428159 S    
C25   H10   1.112793 S    
C33   C34   1.535626 S    
Zn1   O5    2.009717 S    
C2    C15   1.485284 S    
Zn2   O6    1.998523 S    
C27   N1    1.392551 A    
C24   C25   1.490040 S    
C35   H24   1.112158 S    
O1    C1    1.289049 A    
C26   H12   1.108401 S    
C17   C18   1.389526 A    
