data_mof_unit_34955.cif
_audit_creation_date              2012-12-11T16:56:14-0500
_audit_creation_method            fapswitch 2.2
_symmetry_space_group_name_H-M    P1
_symmetry_Int_Tables_number       1
_space_group_crystal_system       triclinic
_cell_length_a                    6.987616
_cell_length_b                    14.538884
_cell_length_c                    16.214668
_cell_angle_alpha                 90.483945
_cell_angle_beta                  89.949396
_cell_angle_gamma                 90.017588
_cell_volume                      1647.22332012

loop_
_atom_site_label
_atom_site_type_symbol
_atom_type_description
_atom_site_fract_x
_atom_site_fract_y
_atom_site_fract_z
_atom_type_partial_charge
O1    O     O_R   0.505830 0.583360 0.413880 -0.536947
O2    O     O_R   0.175830 0.595460 0.585520 -0.553339
O3    O     O_R   0.005520 0.416640 0.586120 -0.538646
C1    C     C_R   0.344894 0.617545 0.614324 0.695694
O4    O     O_R   0.176120 0.594390 0.414490 -0.534714
O5    O     O_R   0.005810 0.415570 0.413870 -0.536094
C2    C     C_R   0.345288 0.618077 0.387448 0.707576
O6    O     O_R   0.505540 0.584430 0.586130 -0.535178
O7    O     O_3   0.339200 0.441330 0.500000 -0.367930
V1    V     V_3+5 0.064350 0.510880 0.500000 1.393003
O8    O     O_R   0.676100 0.404540 0.414480 -0.542122
C3    C     C_R   0.845004 0.379987 0.388222 0.717328
O9    O     O_R   0.675810 0.405610 0.585510 -0.546337
C4    C     C_R   0.844452 0.387866 0.616330 0.628913
V2    V     V_3+5 0.564340 0.489120 0.500000 1.397473
O10   O     O_3   0.839360 0.558670 0.500000 -0.381481
C5    C     C_2   0.726264 0.215550 0.789427 0.347764
C6    C     C_2   0.885161 0.167471 0.811233 0.220056
C7    C     C_2   0.721856 0.270591 0.711836 -0.196309
C8    C     C_2   0.857480 0.332852 0.692949 0.258058
H1    H     H_    0.597602 0.262726 0.672153 0.092779
C9    C     C_R   0.715728 0.234260 0.200979 0.032538
C10   C     C_R   0.876314 0.177118 0.191378 -0.221184
C11   C     C_R   0.997794 0.170900 0.261243 0.338638
C12   C     C_R   0.997597 0.241945 0.321252 -0.172952
H2    H     H_    0.094502 0.239386 0.372769 0.141106
C13   C     C_R   0.853645 0.308884 0.322476 -0.154814
C14   C     C_R   0.701407 0.296464 0.267850 -0.003102
C15   C     C_3   0.504221 0.263505 0.290531 -0.006643
C16   C     C_3   0.513500 0.201520 0.213457 0.272920
H3    H     H_    0.396324 0.319565 0.286691 0.133750
C17   C     C_R   0.502315 0.752046 0.688439 0.023793
C18   C     C_R   0.354183 0.686902 0.682359 -0.086236
C19   C     C_R   0.211891 0.689949 0.743905 -0.159461
H4    H     H_    0.100082 0.638984 0.743776 0.161253
C20   C     C_R   0.221456 0.753396 0.810149 -0.091045
H5    H     H_    0.111743 0.751548 0.857276 0.127187
C21   C     C_R   0.378086 0.813849 0.818627 -0.105065
C22   C     C_R   0.513283 0.813909 0.754898 -0.087726
C23   C     C_3   0.726931 0.806715 0.759612 0.221042
C24   C     C_3   0.715127 0.739204 0.686591 0.385463
H6    H     H_    0.776313 0.775309 0.818134 0.129652
C25   C     C_R   0.495864 0.679193 0.258345 -0.016297
C26   C     C_R   0.354378 0.686813 0.319790 -0.223723
C27   C     C_R   0.214687 0.757674 0.310158 0.338520
C28   C     C_R   0.223023 0.816714 0.241516 -0.193086
H7    H     H_    0.116523 0.870429 0.236287 0.142703
C29   C     C_R   0.375978 0.813093 0.184889 -0.220518
C30   C     C_R   0.508324 0.741998 0.193957 0.114435
C31   C     C_3   0.721260 0.745648 0.196990 0.211089
C32   C     C_3   0.709372 0.675369 0.266696 -0.070700
H8    H     H_    0.776969 0.814423 0.215975 0.067607
H9    H     H_    0.758343 0.702910 0.327189 0.172321
O11   O     O_R   0.229930 0.912420 0.917160 -0.533674
O12   O     O_R   0.559420 0.902500 0.088780 -0.536348
O13   O     O_R   0.729660 0.081330 0.089380 -0.538705
C33   C     C_R   0.390232 0.880834 0.117268 0.705767
O14   O     O_R   0.559650 0.901420 0.917750 -0.534332
O15   O     O_R   0.729880 0.080250 0.917130 -0.510391
C34   C     C_R   0.390675 0.879392 0.889123 0.715383
O16   O     O_R   0.229700 0.913500 0.089410 -0.549820
O17   O     O_3   0.396250 0.055540 0.003280 -0.371816
V3    V     V_3+5 0.671130 0.986010 0.003260 1.479603
O18   O     O_R   0.059600 0.091310 0.917720 -0.542343
C35   C     C_R   0.891143 0.110240 0.887364 0.691824
O19   O     O_R   0.059370 0.092380 0.088750 -0.546191
C36   C     C_R   0.890029 0.112456 0.119151 0.682473
V4    V     V_3+5 0.171120 0.007820 0.003230 1.443231
O20   O     O_3   0.896130 0.938240 0.003240 -0.367030
O21   O     O_3   0.563452 0.211287 0.837804 -0.651902
H10   H     H_    0.463504 0.250314 0.812416 0.306041
C37   C     C_3   0.494382 0.095453 0.227062 -0.585140
H11   H     H_    0.632980 0.060334 0.236498 0.152976
H12   H     H_    0.416598 0.076549 0.282911 0.224576
H13   H     H_    0.420273 0.062394 0.174238 0.209608
O22   O     O_3   0.824713 0.889325 0.742368 -0.643668
H14   H     H_    0.736185 0.932833 0.714934 0.290610
O23   O     O_3   0.766392 0.649765 0.710787 -0.662138
H15   H     H_    0.809559 0.614745 0.661507 0.314304
C38   C     C_3   0.807740 0.771803 0.605452 -0.718460
H16   H     H_    0.758480 0.841925 0.589053 0.195733
H17   H     H_    0.965897 0.772359 0.611720 0.221997
H18   H     H_    0.767697 0.725044 0.553932 0.203025
O24   O     O_3   0.076530 0.776549 0.368679 -0.655198
H19   H     H_    0.123835 0.756863 0.423251 0.287751
O25   O     O_3   0.040373 0.167036 0.757890 -0.631373
H20   H     H_    0.137708 0.122960 0.777708 0.300919
O26   O     O_3   0.801318 0.711477 0.123579 -0.625581
H21   H     H_    0.941601 0.719763 0.129319 0.298113
C39   C     C_3   0.790586 0.579948 0.246463 -0.641961
H22   H     H_    0.731371 0.552059 0.187771 0.226733
H23   H     H_    0.948892 0.583958 0.241686 0.199608
H24   H     H_    0.753515 0.531979 0.296566 0.196063
O27   O     O_3   0.004522 0.348806 0.748561 -0.617285
H25   H     H_    0.081663 0.401852 0.729791 0.290352
O28   O     O_3   0.094980 0.091594 0.279564 -0.661500
H26   H     H_    0.055757 0.041622 0.241379 0.271075
C40   C     C_3   0.499832 0.214209 0.375024 -0.744342
H27   H     H_    0.624897 0.167835 0.382542 0.218334
H28   H     H_    0.498397 0.264590 0.426449 0.223601
H29   H     H_    0.369222 0.172546 0.382611 0.219710
C41   C     C_3   0.391315 0.238251 0.141956 -0.716100
H30   H     H_    0.428830 0.202688 0.083532 0.237622
H31   H     H_    0.238153 0.228987 0.154313 0.211776
H32   H     H_    0.415509 0.313102 0.132774 0.175478

loop_
_geom_bond_atom_site_label_1
_geom_bond_atom_site_label_2
_ccdc_geom_bond_type
O19   V4    S    
C7    C8    D    
C1    O6    A    
C24   C38   S    
C29   C33   S    
O11   C34   A    
C27   C28   A    
C6    C35   S    
C6    O25   S    
C15   C40   S    
O18   V4    S    
C20   H5    S    
C7    H1    S    
C38   H18   S    
C32   C39   S    
O5    C3    A    
C21   C22   A    
O11   V4    S    
O14   C34   A    
V2    O10   S    
C41   H32   S    
C19   H4    S    
C17   C22   A    
C10   C36   S    
C1    C18   S    
O8    V2    S    
O24   H19   S    
O17   V3    S    
V3    O20   S    
V4    O20   S    
O12   V3    S    
C31   H8    S    
C17   C24   S    
O21   H10   S    
O1    V2    S    
O7    V1    S    
C31   O26   S    
C37   H11   S    
C23   H6    S    
O19   C36   A    
C5    O21   S    
C9    C14   A    
O9    C4    A    
O27   H25   S    
C37   H13   S    
C31   C32   S    
C28   C29   A    
C3    C13   S    
C4    C8    S    
C11   C12   A    
C37   H12   S    
C24   O23   S    
O4    C2    A    
O25   H20   S    
C25   C30   A    
C12   H2    S    
C23   O22   S    
C32   H9    S    
O2    C1    A    
C25   C26   A    
C15   C16   S    
C39   H23   S    
C10   C11   A    
O28   H26   S    
C16   C41   S    
C11   O28   S    
C5    C6    D    
O13   V3    S    
C2    C26   S    
O22   H14   S    
C41   H31   S    
O3    C4    A    
C21   C34   S    
C38   H17   S    
C23   C24   S    
C40   H27   S    
O6    V2    S    
C40   H28   S    
O9    V2    S    
C27   O24   S    
O2    V1    S    
C22   C23   S    
C26   C27   A    
C39   H24   S    
O14   V3    S    
C8    O27   S    
C28   H7    S    
C14   C15   S    
C9    C16   S    
O1    C2    A    
C38   H16   S    
O5    V1    S    
C16   C37   S    
O8    C3    A    
C33   O16   A    
C12   C13   A    
O13   C36   A    
O15   V3    S    
C40   H29   S    
O17   V4    S    
C17   C18   A    
O12   C33   A    
O7    V2    S    
O4    V1    S    
C15   H3    S    
O3    V1    S    
V1    O10   S    
O18   C35   A    
O23   H15   S    
O16   V4    S    
C25   C32   S    
C39   H22   S    
C29   C30   A    
C20   C21   A    
C5    C7    S    
C18   C19   A    
C19   C20   A    
C41   H30   S    
O26   H21   S    
C30   C31   S    
C13   C14   A    
C9    C10   A    
O15   C35   A    
