data_mof_unit_59430.cif
_audit_creation_date              2012-12-11T15:18:38-0500
_audit_creation_method            fapswitch 2.2
_symmetry_space_group_name_H-M    P1
_symmetry_Int_Tables_number       1
_space_group_crystal_system       triclinic
_cell_length_a                    6.937246
_cell_length_b                    19.797272
_cell_length_c                    23.902176
_cell_angle_alpha                 93.388113
_cell_angle_beta                  91.157512
_cell_angle_gamma                 87.682515
_cell_volume                      3273.7500232

loop_
_atom_site_label
_atom_site_type_symbol
_atom_type_description
_atom_site_fract_x
_atom_site_fract_y
_atom_site_fract_z
_atom_type_partial_charge
O1    O     O_R   0.620100 0.812200 0.810870 -0.522911
O2    O     O_R   0.379900 0.187800 0.189130 -0.522911
O3    O     O_R   0.296960 0.671650 0.794750 -0.541857
O4    O     O_R   0.703040 0.328350 0.205250 -0.541857
O5    O     O_R   0.120160 0.687800 0.689130 -0.552405
O6    O     O_R   0.879840 0.312200 0.310870 -0.552405
C1    C     C_R   0.470519 0.646290 0.804171 0.766773
C2    C     C_R   0.529481 0.353709 0.195829 0.766772
O7    O     O_R   0.290810 0.810670 0.817290 -0.521891
O8    O     O_R   0.709190 0.189330 0.182710 -0.521891
O9    O     O_R   0.113980 0.827820 0.711840 -0.527681
O10   O     O_R   0.886020 0.172180 0.288160 -0.527681
C3    C     C_R   0.458506 0.831692 0.834198 0.827375
C4    C     C_R   0.541494 0.168307 0.165802 0.827376
O11   O     O_R   0.626290 0.672180 0.788160 -0.517760
O12   O     O_R   0.373710 0.327820 0.211840 -0.517760
O13   O     O_3   0.451520 0.755460 0.715370 -0.382631
O14   O     O_3   0.548480 0.244540 0.284630 -0.382631
V1    V     V_3+5 0.179200 0.748980 0.756420 1.560802
V2    V     V_3+5 0.820800 0.251020 0.243580 1.560802
O15   O     O_R   0.783880 0.828350 0.705250 -0.543900
O16   O     O_R   0.216120 0.171650 0.294750 -0.543899
C5    C     C_R   0.948870 0.852574 0.694267 0.724902
C6    C     C_R   0.051130 0.147426 0.305733 0.724902
O17   O     O_R   0.790030 0.689320 0.682700 -0.533421
O18   O     O_R   0.209970 0.310680 0.317300 -0.533421
C7    C     C_R   0.960206 0.667862 0.665900 0.734571
C8    C     C_R   0.039794 0.332138 0.334100 0.734571
V3    V     V_3+5 0.678400 0.751010 0.743570 1.563986
V4    V     V_3+5 0.321600 0.248990 0.256430 1.563986
O19   O     O_3   0.955950 0.744540 0.784620 -0.348144
O20   O     O_3   0.044050 0.255460 0.215380 -0.348144
C9    C     C_R   0.864422 0.426299 0.390185 -0.128306
C10   C     C_R   0.135578 0.573701 0.609814 -0.128306
C11   C     C_R   0.026823 0.381649 0.383313 -0.074527
C12   C     C_R   0.973177 0.618351 0.616687 -0.074526
C13   C     C_R   0.177137 0.384759 0.423443 -0.092277
C14   C     C_R   0.822863 0.615242 0.576557 -0.092277
C15   C     C_R   0.166120 0.431174 0.470088 0.087077
C16   C     C_R   0.833881 0.568827 0.529912 0.087077
C17   C     C_R   0.004414 0.476319 0.476586 0.035654
C18   C     C_R   0.995587 0.523681 0.523414 0.035653
C19   C     C_R   0.852182 0.474296 0.436250 0.044052
C20   C     C_R   0.147819 0.525705 0.563750 0.044052
C21   C     C_R   0.315406 0.433101 0.510290 -0.154707
C22   C     C_R   0.684595 0.566899 0.489710 -0.154707
C23   C     C_R   0.307155 0.479334 0.556795 0.261934
C24   C     C_R   0.692846 0.520667 0.443205 0.261934
H1    H     H_    0.749533 0.423868 0.358933 0.174957
H2    H     H_    0.250468 0.576132 0.641067 0.174957
H3    H     H_    0.302372 0.350461 0.418680 0.132697
H4    H     H_    0.697628 0.649539 0.581320 0.132698
H5    H     H_    0.439667 0.398366 0.505614 0.170378
H6    H     H_    0.560334 0.601634 0.494386 0.170378
C25   C     C_R   0.943625 0.914553 0.662353 -0.064392
C26   C     C_R   0.056374 0.085447 0.337647 -0.064393
C27   C     C_R   0.859004 0.033868 0.658517 -0.068468
C28   C     C_R   0.140989 0.966132 0.341483 -0.068467
C29   C     C_R   0.867299 0.974819 0.687513 -0.117776
C30   C     C_R   0.132696 0.025180 0.312486 -0.117777
C31   C     C_R   0.997958 0.913025 0.605837 -0.131398
C32   C     C_R   0.002044 0.086975 0.394163 -0.131398
C33   C     C_R   0.966268 0.970593 0.573151 0.086707
C34   C     C_R   0.033733 0.029407 0.426849 0.086706
C35   C     C_R   0.915253 0.033238 0.602056 -0.006294
C36   C     C_R   0.084744 0.966762 0.397944 -0.006294
C37   C     C_R   0.991971 0.968792 0.513518 -0.089560
C38   C     C_R   0.008030 0.031208 0.486482 -0.089559
C39   C     C_R   0.002769 0.092766 0.520426 0.241514
C40   C     C_R   0.997230 0.907234 0.479575 0.241515
C41   C     C_R   0.933875 0.094159 0.575383 0.250441
C42   C     C_R   0.066121 0.905840 0.424617 0.250440
H7    H     H_    0.932391 0.132957 0.411614 0.151304
H8    H     H_    0.067614 0.867043 0.588387 0.151303
H9    H     H_    0.179614 0.023261 0.269429 0.153658
H10   H     H_    0.820377 0.976738 0.730570 0.153657
H11   H     H_    0.809497 0.079909 0.681229 0.180615
H12   H     H_    0.190492 0.920090 0.318770 0.180615
C43   C     C_R   0.500517 0.583986 0.835268 -0.117022
C44   C     C_R   0.499483 0.416014 0.164732 -0.117022
C45   C     C_R   0.669949 0.475337 0.844057 -0.152367
C46   C     C_R   0.330052 0.524663 0.155943 -0.152367
C47   C     C_R   0.617250 0.529902 0.812281 0.266897
C48   C     C_R   0.382750 0.470098 0.187719 0.266897
C49   C     C_R   0.442501 0.582778 0.891311 -0.222919
C50   C     C_R   0.557498 0.417221 0.108689 -0.222919
C51   C     C_R   0.504564 0.528945 0.925533 0.087830
C52   C     C_R   0.495435 0.471054 0.074467 0.087830
C53   C     C_R   0.617881 0.474756 0.900206 0.068793
C54   C     C_R   0.382118 0.525244 0.099794 0.068793
C55   C     C_R   0.463712 0.527744 0.984141 0.065301
C56   C     C_R   0.536286 0.472256 0.015859 0.065301
C57   C     C_R   0.645564 0.419563 0.987791 -0.155593
C58   C     C_R   0.354434 0.580437 0.012209 -0.155593
C59   C     C_R   0.684625 0.420894 0.931265 -0.154865
C60   C     C_R   0.315374 0.579106 0.068735 -0.154865
H13   H     H_    0.771062 0.379464 0.911748 0.145559
H14   H     H_    0.228938 0.620536 0.088252 0.145559
H15   H     H_    0.759342 0.434235 0.825255 0.167944
H16   H     H_    0.240659 0.565765 0.174745 0.167944
C61   C     C_R   0.644039 0.057855 0.115712 0.175452
C62   C     C_R   0.355960 0.942145 0.884288 0.175451
C63   C     C_R   0.533277 0.119433 0.116232 -0.173194
C64   C     C_R   0.466723 0.880567 0.883768 -0.173193
C65   C     C_R   0.410941 0.133628 0.070012 0.172657
C66   C     C_R   0.589059 0.866372 0.929988 0.172657
C67   C     C_R   0.395817 0.085683 0.023898 0.057275
C68   C     C_R   0.604183 0.914317 0.976102 0.057275
C69   C     C_R   0.507065 0.024091 0.023307 0.003416
C70   C     C_R   0.492935 0.975909 0.976693 0.003416
C71   C     C_R   0.632406 0.010459 0.069104 0.055470
C72   C     C_R   0.367594 0.989541 0.930896 0.055470
C73   C     C_R   0.271422 0.097809 0.978132 -0.128484
C74   C     C_R   0.728578 0.902191 0.021868 -0.128484
C75   C     C_R   0.257523 0.050799 0.932694 -0.126080
C76   C     C_R   0.742476 0.949201 0.067306 -0.126080
H17   H     H_    0.158418 0.063451 0.899113 0.185938
H18   H     H_    0.841581 0.936549 0.100887 0.185938
H19   H     H_    0.641297 0.373708 0.092459 0.135826
H20   H     H_    0.358701 0.626292 0.907541 0.135825
Br1   Br    Br    0.280319 0.470674 0.261626 -0.464076
Br2   Br    Br    0.719682 0.529326 0.738374 -0.464076
H21   H     H_    0.704823 0.376290 0.008366 0.143181
H22   H     H_    0.295175 0.623710 0.991634 0.143181
Br3   Br    Br    0.802538 0.037324 0.180683 -0.576839
Br4   Br    Br    0.197460 0.962675 0.819317 -0.576837
Br5   Br    Br    0.272776 0.220699 0.069225 -0.572378
Br6   Br    Br    0.727224 0.779300 0.930775 -0.572378
H23   H     H_    0.182006 0.143667 0.976721 0.183657
H24   H     H_    0.817994 0.856333 0.023279 0.183657
Br7   Br    Br    0.517653 0.474690 0.609511 -0.453318
Br8   Br    Br    0.482348 0.525310 0.390489 -0.453318
Br9   Br    Br    0.884854 0.180902 0.615345 -0.371345
Br10  Br    Br    0.115135 0.819098 0.384654 -0.371345
Br11  Br    Br    0.137340 0.171599 0.500194 -0.475807
Br12  Br    Br    0.862658 0.828401 0.499807 -0.475808

loop_
_geom_bond_atom_site_label_1
_geom_bond_atom_site_label_2
_ccdc_geom_bond_type
V4    O20   S    
C33   C35   A    
C25   C29   A    
C17   C19   A    
C17   C18   A    
C62   C72   A    
C6    C26   S    
C44   C48   A    
V1    O19   S    
C64   C66   A    
C15   C17   A    
C16   C22   A    
C65   C67   A    
O9    V1    S    
C73   H23   S    
C34   C38   A    
O16   C6    A    
C11   C13   A    
O3    C1    A    
C69   C71   A    
C13   H3    S    
C50   C52   A    
C27   C29   A    
C14   H4    S    
C28   C30   A    
C66   Br6   S    
O13   V3    S    
C31   C33   A    
C21   C23   A    
C68   C74   A    
C39   C41   A    
O7    C3    A    
C57   C59   A    
C67   C73   A    
C44   C50   A    
O13   V1    S    
O5    C7    A    
C28   C36   A    
C36   C42   A    
C52   C56   A    
C8    C11   S    
O8    V2    S    
C38   C39   A    
C75   H17   S    
C60   H14   S    
C61   Br3   S    
C32   H7    S    
O3    V1    S    
C50   H19   S    
O14   V4    S    
C19   C24   A    
O14   V2    S    
C20   C23   A    
O4    C2    A    
C15   C21   A    
C45   C53   A    
C16   C18   A    
C21   H5    S    
C5    C25   S    
C2    O12   A    
C40   Br12  S    
C74   H24   S    
C22   H6    S    
C18   C20   A    
C45   C47   A    
O7    V1    S    
O11   V3    S    
C22   C24   A    
C49   C51   A    
O17   V3    S    
C33   C37   A    
C10   H2    S    
C51   C55   A    
C65   Br5   S    
C37   C38   A    
C9    C19   A    
C27   H11   S    
C10   C20   A    
O8    C4    A    
C55   C56   A    
C1    O11   A    
C45   H15   S    
C48   Br1   S    
C35   C41   A    
O15   V3    S    
C26   C30   A    
C23   Br7   S    
C34   C36   A    
C53   C59   A    
C49   H20   S    
C58   C60   A    
C42   Br10  S    
V3    O19   S    
O10   V2    S    
O1    V3    S    
C63   C65   A    
C3    C64   S    
C62   C64   A    
C71   C76   A    
C52   C54   A    
O18   V4    S    
C46   C48   A    
O15   C5    A    
C31   H8    S    
C26   C32   A    
O1    C3    A    
O12   V4    S    
C43   C49   A    
C1    C43   S    
V2    O20   S    
O16   V4    S    
C46   H16   S    
C57   H21   S    
C27   C35   A    
C62   Br4   S    
C41   Br9   S    
C74   C76   A    
C59   H13   S    
C54   C60   A    
O5    V1    S    
O4    V2    S    
C7    C12   S    
O17   C7    A    
O6    V2    S    
O10   C6    A    
C30   H9    S    
O18   C8    A    
C46   C54   A    
C61   C63   A    
O2    V4    S    
C37   C40   A    
C12   C14   A    
C32   C34   A    
C13   C15   A    
C69   C70   A    
C55   C58   A    
C14   C16   A    
C4    C63   S    
C67   C69   A    
C68   C70   A    
C66   C68   A    
C61   C71   A    
C25   C31   A    
O9    C5    A    
C56   C57   A    
C9    C11   A    
C76   H18   S    
C10   C12   A    
C47   Br2   S    
O2    C4    A    
C70   C72   A    
C28   H12   S    
C43   C47   A    
O6    C8    A    
C39   Br11  S    
C2    C44   S    
C51   C53   A    
C24   Br8   S    
C40   C42   A    
C9    H1    S    
C29   H10   S    
C72   C75   A    
C73   C75   A    
C58   H22   S    
