data_mof_unit_32341.cif
_audit_creation_date              2013-03-05T15:48:30-0500
_audit_creation_method            fapswitch 2.2
_symmetry_space_group_name_H-M    P1
_symmetry_Int_Tables_number       1
_space_group_crystal_system       triclinic
_cell_length_a                    20.229044
_cell_length_b                    7.101629
_cell_length_c                    13.459074
_cell_angle_alpha                 90.000368
_cell_angle_beta                  103.702539
_cell_angle_gamma                 89.999565
_cell_volume                      1878.48871807

loop_
_atom_site_label
_atom_site_type_symbol
_atom_site_description
_atom_site_fract_x
_atom_site_fract_y
_atom_site_fract_z
_atom_type_partial_charge
O1    O     O_R   0.449830 0.506740 0.599960 -0.574149
O2    O     O_R   0.550170 0.006740 0.400040 -0.574174
O3    O     O_R   0.588980 0.179860 0.596720 -0.592881
O4    O     O_R   0.411020 0.679860 0.403280 -0.592882
C1    C     C_R   0.615541 0.344761 0.621166 0.966849
C2    C     C_R   0.384459 0.844761 0.378834 0.966847
O5    O     O_R   0.452740 0.177340 0.612040 -0.605129
O6    O     O_R   0.547260 0.677340 0.387960 -0.605113
O7    O     O_R   0.412960 0.002070 0.415460 -0.584576
O8    O     O_R   0.587040 0.502070 0.584540 -0.584564
C3    C     C_R   0.436775 0.345794 0.638849 1.044286
C4    C     C_R   0.563224 0.845793 0.361150 1.044330
O9    O     O_3   0.487110 0.337570 0.435490 -0.259948
O10   O     O_3   0.512890 0.837570 0.564510 -0.259940
V1    V     V_3+5 0.502390 0.064650 0.511970 1.259796
V2    V     V_3+5 0.497610 0.564650 0.488030 1.259813
C5    C     C_R   0.609920 0.857805 0.108016 -0.095420
C6    C     C_R   0.390087 0.357782 0.891994 -0.095424
H1    H     H_    0.516513 0.839322 0.156421 0.171072
H2    H     H_    0.483492 0.339263 0.843580 0.171063
H3    H     H_    0.692079 0.889831 0.982788 0.173879
H4    H     H_    0.307927 0.389861 0.017225 0.173861
H5    H     H_    0.583857 0.858914 0.027743 0.161507
H6    H     H_    0.416153 0.358882 0.972267 0.161507
C7    C     C_R   0.603616 0.853452 0.284529 -0.270069
C8    C     C_R   0.396385 0.353455 0.715474 -0.270101
C9    C     C_R   0.932430 0.842343 0.318790 -0.140939
C10   C     C_R   0.067581 0.342247 0.681218 -0.140986
C11   C     C_R   0.897711 0.819234 0.395305 -0.096354
C12   C     C_R   0.102305 0.319053 0.604714 -0.096299
C13   C     C_R   0.826877 0.819200 0.371768 -0.088073
C14   C     C_R   0.173139 0.319030 0.628257 -0.087965
C15   C     C_R   0.788423 0.851068 0.270498 0.111715
C16   C     C_R   0.211586 0.351020 0.729519 0.111716
C17   C     C_R   0.824684 0.866777 0.191803 0.069579
C18   C     C_R   0.175322 0.366775 0.808207 0.069586
C19   C     C_R   0.715480 0.859497 0.243609 -0.110721
C20   C     C_R   0.284526 0.359489 0.756405 -0.110731
C21   C     C_R   0.681206 0.865248 0.138104 0.068964
C22   C     C_R   0.318801 0.365243 0.861909 0.068978
C23   C     C_R   0.718025 0.880353 0.062948 -0.052393
C24   C     C_R   0.281981 0.380371 0.937064 -0.052370
C25   C     C_R   0.788494 0.885168 0.089405 -0.141260
C26   C     C_R   0.211511 0.385203 0.910605 -0.141253
C27   C     C_R   0.674657 0.864907 0.316325 0.644880
C28   C     C_R   0.325344 0.364945 0.683684 0.644839
C29   C     C_R   0.571474 0.847550 0.180843 -0.247009
C30   C     C_R   0.428531 0.347516 0.819161 -0.246955
C31   C     C_R   0.896774 0.860579 0.216975 -0.173280
C32   C     C_R   0.103232 0.360564 0.783032 -0.173302
H7    H     H_    0.987420 0.842227 0.338851 0.167093
H8    H     H_    0.012591 0.342111 0.661154 0.167117
H9    H     H_    0.804421 0.786346 0.434387 0.207960
H10   H     H_    0.195607 0.286058 0.565660 0.207822
H11   H     H_    0.925946 0.797667 0.473515 0.157577
H12   H     H_    0.074075 0.297398 0.526508 0.157536
H13   H     H_    0.814542 0.899494 0.028269 0.142842
H14   H     H_    0.185462 0.399552 0.971738 0.142813
C33   C     C_3   0.233054 0.705366 0.150450 -0.308566
C34   C     C_3   0.766945 0.205372 0.849552 -0.308546
H15   H     H_    0.207722 0.565686 0.142556 0.196828
H16   H     H_    0.792277 0.065691 0.857451 0.196831
H17   H     H_    0.240197 0.740984 0.073178 0.205071
H18   H     H_    0.759801 0.241001 0.926823 0.205075
C35   C     C_3   0.303551 0.690485 0.226666 -0.264950
C36   C     C_3   0.696448 0.190489 0.773336 -0.264950
H19   H     H_    0.344648 0.689836 0.184758 0.186314
H20   H     H_    0.655352 0.189843 0.815243 0.186314
H21   H     H_    0.306811 0.551920 0.266166 0.213406
H22   H     H_    0.693189 0.051922 0.733838 0.213410
H23   H     H_    0.270113 0.689858 0.415349 0.257742
H24   H     H_    0.729887 0.189846 0.584653 0.257709
C37   C     C_3   0.186323 0.822278 0.299971 0.195676
C38   C     C_3   0.813676 0.322270 0.700029 0.195694
C39   C     C_3   0.225575 0.050626 0.182183 0.503749
C40   C     C_3   0.774425 0.550629 0.817814 0.503729
C41   C     C_3   0.188438 0.858433 0.185875 -0.272605
C42   C     C_3   0.811562 0.358433 0.814125 -0.272603
H25   H     H_    0.196728 0.164435 0.209966 0.071693
H26   H     H_    0.803272 0.664433 0.790030 0.071708
C43   C     C_3   0.313879 0.852057 0.307533 -0.189610
C44   C     C_3   0.686121 0.352056 0.692467 -0.189601
C45   C     C_3   0.259627 0.823053 0.370812 -0.516586
C46   C     C_3   0.740372 0.323044 0.629188 -0.516620
C47   C     C_3   0.299019 0.047024 0.252183 0.143317
C48   C     C_3   0.700981 0.547026 0.747815 0.143314
H27   H     H_    0.300633 0.156054 0.312405 0.071243
H28   H     H_    0.699367 0.656053 0.687591 0.071261
H29   H     H_    0.157835 0.941409 0.324213 0.060521
H30   H     H_    0.842164 0.441398 0.675785 0.060533
H31   H     H_    0.263742 0.938041 0.428202 0.163614
H32   H     H_    0.736257 0.438028 0.571796 0.163652
O11   O     O_R   0.912980 0.203550 0.915410 -0.584427
O12   O     O_R   0.087020 0.703550 0.084590 -0.584430
O13   O     O_R   0.047270 0.535570 0.887960 -0.605820
O14   O     O_R   0.952730 0.035570 0.112040 -0.605824
C49   C     C_R   0.063995 0.368434 0.861753 0.942413
C50   C     C_R   0.936008 0.868436 0.138250 0.942408
O15   O     O_R   0.911030 0.532970 0.903270 -0.588065
O16   O     O_R   0.088970 0.032970 0.096730 -0.588069
O17   O     O_R   0.949820 0.708150 0.099970 -0.564499
O18   O     O_R   0.050180 0.208150 0.900030 -0.564504
C51   C     C_R   0.883307 0.364965 0.883186 0.980426
C52   C     C_R   0.116693 0.864965 0.116813 0.980434
O19   O     O_3   0.012900 0.375230 0.064480 -0.269849
O20   O     O_3   0.987100 0.875230 0.935520 -0.269849
V3    V     V_3+5 0.997610 0.648190 0.988040 1.244187
V4    V     V_3+5 0.002390 0.148190 0.011960 1.244185
N1    N     N_R   0.150639 0.646799 0.312504 0.263581
O21   O     O_R   0.093988 0.653658 0.342030 -0.438734
O22   O     O_R   0.178030 0.483359 0.304665 -0.424786
N2    N     N_R   0.849360 0.146789 0.687496 0.263572
O23   O     O_R   0.906002 0.153642 0.657945 -0.438765
O24   O     O_R   0.821975 0.983354 0.695354 -0.424806
F1    F     F_    0.226084 0.094726 0.082030 -0.683935
F2    F     F_    0.773916 0.594734 0.917966 -0.683946
N3    N     N_R   0.350596 0.098079 0.195984 0.255392
O25   O     O_R   0.357627 0.002238 0.116709 -0.392137
O26   O     O_R   0.387830 0.247468 0.222495 -0.424795
N4    N     N_R   0.649404 0.598089 0.804014 0.255394
O27   O     O_R   0.642372 0.502250 0.883288 -0.392139
O28   O     O_R   0.612172 0.747483 0.777504 -0.424790
F3    F     F_    0.701376 0.893017 0.417545 -0.741611
F4    F     F_    0.298617 0.393173 0.582470 -0.741542

loop_
_geom_bond_atom_site_label_1
_geom_bond_atom_site_label_2
_geom_bond_distance
_ccdc_geom_bond_type
O17   V3    2.018748 S    
C36   H20   1.109701 S    
C40   C48   1.559632 S    
C9    C11   1.386850 A    
O15   C51   1.318810 A    
O1    C3    1.309807 A    
O2    C4    1.309805 A    
O11   C51   1.318744 A    
C2    O7    1.299536 A    
N2    O24   1.301138 A    
O3    V1    2.022908 S    
C21   C23   1.395140 A    
C36   H22   1.112971 S    
C27   F3    1.356124 S    
O5    C3    1.311802 A    
O19   V3    2.181974 S    
C34   C42   1.558002 S    
C5    H5    1.084173 S    
C6    H6    1.084185 S    
C40   C42   1.564427 S    
N3    O26   1.301090 A    
O11   V4    2.000253 S    
C38   N2    1.469757 S    
C48   H28   1.115806 S    
O20   V3    1.753101 S    
O16   C52   1.318806 A    
C34   H16   1.109991 S    
C5    C21   1.403428 A    
C6    C22   1.403437 A    
C15   C17   1.428419 A    
C31   C50   1.467683 S    
C10   C32   1.395202 A    
C39   C47   1.559631 S    
C26   H14   1.081877 S    
C35   H19   1.109703 S    
O14   C50   1.305450 A    
C17   C31   1.417513 A    
C13   C15   1.418383 A    
O18   V4    2.018755 S    
C12   C14   1.392308 A    
C17   C25   1.405142 A    
C7    C29   1.393601 A    
C16   C18   1.428407 A    
C49   O18   1.306676 A    
C8    C30   1.393640 A    
C22   C24   1.395152 A    
O14   V4    2.025905 S    
O12   C52   1.318746 A    
O6    V2    2.025863 S    
C2    C43   1.520855 S    
C23   C25   1.385481 A    
C28   F4    1.356203 S    
C24   C26   1.385507 A    
C14   H10   1.073596 S    
N2    O23   1.299758 A    
C43   C45   1.554025 S    
C9    H7    1.080761 S    
H23   C45   1.113020 S    
C47   H27   1.115805 S    
O19   V4    1.753096 S    
O12   V3    2.000254 S    
O16   V4    2.022882 S    
C33   H15   1.109991 S    
C5    C29   1.390000 A    
O4    C2    1.297918 A    
C25   H13   1.081877 S    
O5    V1    2.025849 S    
C11   H11   1.083007 S    
C3    C8    1.460586 S    
C44   C48   1.567260 S    
C12   H12   1.083005 S    
C15   C19   1.434857 A    
C14   C16   1.418376 A    
O4    V2    2.022904 S    
C36   C44   1.561118 S    
C35   C43   1.561118 S    
O6    C4    1.311798 A    
O1    V2    2.015601 S    
H24   C46   1.113019 S    
C13   H9    1.073533 S    
C47   N3    1.471752 S    
O2    V1    2.015595 S    
C39   C41   1.564429 S    
H2    C30   1.083724 S    
O13   V3    2.025891 S    
H3    C23   1.084314 S    
C44   C46   1.554025 S    
C18   C26   1.405148 A    
C39   F1    1.386280 S    
C19   C27   1.422733 A    
C45   H31   1.113521 S    
C7    C27   1.401296 A    
C18   C32   1.417516 A    
N4    O27   1.301458 A    
N4    O28   1.301093 A    
C32   C49   1.467693 S    
C42   C51   1.527554 S    
C16   C20   1.434826 A    
C40   H26   1.112172 S    
C38   C46   1.561466 S    
O3    C1    1.297920 A    
C6    C30   1.390014 A    
O13   C49   1.305460 A    
C37   N1    1.469762 S    
C50   O17   1.306678 A    
O15   V3    2.022885 S    
C33   H17   1.112517 S    
C4    C7    1.460579 S    
C34   H18   1.112517 S    
C33   C41   1.557999 S    
C38   H30   1.115079 S    
N1    O22   1.301164 A    
O7    V1    2.011030 S    
C37   H29   1.115081 S    
C1    O8    1.299536 A    
C11   C13   1.392306 A    
O8    V2    2.011030 S    
N1    O21   1.299759 A    
C33   C35   1.550516 S    
C20   C22   1.425596 A    
C1    C44   1.520853 S    
C10   H8    1.080759 S    
H4    C24   1.084314 S    
O20   V4    2.181966 S    
C35   H21   1.112973 S    
C10   C12   1.386875 A    
C40   F2    1.386279 S    
H1    C29   1.083713 S    
C20   C28   1.422726 A    
C8    C28   1.401310 A    
C34   C36   1.550517 S    
C19   C21   1.425610 A    
C38   C42   1.567499 S    
O9    V2    1.753452 S    
C37   C41   1.567493 S    
O10   V1    1.753457 S    
C41   C52   1.527553 S    
C48   N4    1.471756 S    
C46   H32   1.113520 S    
N3    O25   1.301457 A    
C39   H25   1.112173 S    
C37   C45   1.561468 S    
C43   C47   1.567259 S    
C9    C31   1.395200 A    
