data_mof_unit_59002.cif
_audit_creation_date              2012-12-10T18:01:42-0500
_audit_creation_method            fapswitch 2.2
_symmetry_space_group_name_H-M    P1
_symmetry_Int_Tables_number       1
_space_group_crystal_system       triclinic
_cell_length_a                    10.830597
_cell_length_b                    9.509589
_cell_length_c                    19.365981
_cell_angle_alpha                 90.000198
_cell_angle_beta                  90.203069
_cell_angle_gamma                 90.0
_cell_volume                      1994.57750792

loop_
_atom_site_label
_atom_site_type_symbol
_atom_type_description
_atom_site_fract_x
_atom_site_fract_y
_atom_site_fract_z
_atom_type_partial_charge
C1    C     C_R   0.262035 0.500001 0.499964 0.774618
C2    C     C_R   0.737965 0.500001 0.500036 0.774611
C3    C     C_R   0.501481 0.496353 0.930157 0.425771
C4    C     C_R   0.498545 0.496349 0.069842 0.425771
C5    C     C_R   0.499508 0.500071 0.367544 0.830347
C6    C     C_R   0.500495 0.500071 0.632456 0.830345
C7    C     C_R   0.063861 0.372201 0.499939 -0.184830
C8    C     C_R   0.936138 0.627799 0.500009 -0.185649
C9    C     C_R   0.936139 0.372201 0.500063 -0.184830
C10   C     C_R   0.063861 0.627799 0.499990 -0.185648
C11   C     C_R   0.871785 0.500000 0.500051 -0.019100
C12   C     C_R   0.128215 0.500000 0.499949 -0.019103
C13   C     C_R   0.418183 0.074435 0.460031 -0.023409
C14   C     C_R   0.581674 0.925550 0.540068 -0.027338
C15   C     C_R   0.581817 0.074436 0.539970 -0.023400
C16   C     C_R   0.418325 0.925550 0.459932 -0.027338
C17   C     C_R   0.578939 0.590240 0.254832 0.114676
C18   C     C_R   0.584124 0.410385 0.744784 0.132649
C19   C     C_R   0.421063 0.590229 0.745170 0.114672
C20   C     C_R   0.415904 0.410368 0.255213 0.132638
C21   C     C_R   0.569961 0.598512 0.182173 0.146177
C22   C     C_R   0.575959 0.400570 0.817402 0.140828
C23   C     C_R   0.430046 0.598504 0.817828 0.146183
C24   C     C_R   0.424081 0.400547 0.182596 0.140834
C25   C     C_R   0.497100 0.498877 0.146007 -0.036291
C26   C     C_R   0.502926 0.498885 0.853992 -0.036294
C27   C     C_R   0.497867 0.500385 0.291403 -0.130457
C28   C     C_R   0.502144 0.500387 0.708596 -0.130451
Cu1   Cu    Cu3+1 0.500000 0.640660 0.500000 0.933368
Cu2   Cu    Cu3+1 0.500000 0.359340 0.500000 0.940045
H1    H     H_    0.111916 0.272295 0.499863 0.148640
H2    H     H_    0.888084 0.727706 0.500002 0.148505
H3    H     H_    0.888084 0.272295 0.500141 0.148640
H4    H     H_    0.111916 0.727706 0.499995 0.148505
H5    H     H_    0.352498 0.130572 0.428153 0.117798
H6    H     H_    0.647020 0.869388 0.572195 0.120341
H7    H     H_    0.647500 0.130573 0.571848 0.117800
H8    H     H_    0.352979 0.869387 0.427805 0.120341
N1    N     N_R   0.500000 0.852070 0.500000 -0.156553
N2    N     N_R   0.500000 0.147930 0.500000 -0.153477
N3    N     N_R   0.607244 0.495715 0.035243 -0.231116
N4    N     N_R   0.392782 0.495682 0.964755 -0.231114
N5    N     N_R   0.608671 0.496410 0.966593 -0.235167
N6    N     N_R   0.391355 0.496374 0.033406 -0.235162
O1    O     O_R   0.319640 0.618740 0.500000 -0.589709
O2    O     O_R   0.680360 0.381260 0.500000 -0.590491
O3    O     O_R   0.680360 0.618740 0.500000 -0.589710
O4    O     O_R   0.319640 0.381260 0.500000 -0.590488
O5    O     O_R   0.499980 0.618820 0.400140 -0.576137
O6    O     O_R   0.500020 0.381180 0.599860 -0.569654
O7    O     O_R   0.500020 0.618820 0.599860 -0.576135
O8    O     O_R   0.499980 0.381180 0.400140 -0.569655
C29   C     C_3   0.675747 0.675437 0.293444 -0.808476
H9    H     H_    0.718020 0.611761 0.335392 0.219556
H10   H     H_    0.753757 0.707184 0.259984 0.230524
H11   H     H_    0.632958 0.771264 0.315698 0.243444
C30   C     C_3   0.683127 0.328434 0.706719 -0.836583
H12   H     H_    0.710211 0.379813 0.657636 0.220467
H13   H     H_    0.769454 0.323494 0.737714 0.234486
H14   H     H_    0.649977 0.220180 0.695937 0.229096
C31   C     C_3   0.324245 0.675413 0.706559 -0.808481
H15   H     H_    0.281973 0.611730 0.664613 0.219552
H16   H     H_    0.246235 0.707155 0.740020 0.230526
H17   H     H_    0.367023 0.771243 0.684302 0.243446
C32   C     C_3   0.316909 0.328402 0.293275 -0.836564
H18   H     H_    0.350090 0.220169 0.304080 0.229102
H19   H     H_    0.289786 0.379809 0.342346 0.220460
H20   H     H_    0.230598 0.323404 0.262268 0.234486
C33   C     C_3   0.634607 0.716734 0.143968 -0.817750
H21   H     H_    0.588221 0.742757 0.094441 0.234355
H22   H     H_    0.631791 0.815503 0.174511 0.231251
H23   H     H_    0.732061 0.687330 0.133826 0.242796
C34   C     C_3   0.643617 0.284562 0.855915 -0.816627
H24   H     H_    0.585654 0.242337 0.898307 0.231675
H25   H     H_    0.664142 0.192948 0.822457 0.231784
H26   H     H_    0.731447 0.325881 0.877541 0.247302
C35   C     C_3   0.365383 0.716712 0.856035 -0.817754
H27   H     H_    0.411755 0.742734 0.905566 0.234357
H28   H     H_    0.368197 0.815485 0.825496 0.231252
H29   H     H_    0.267929 0.687297 0.866170 0.242792
C36   C     C_3   0.356449 0.284519 0.144083 -0.816640
H30   H     H_    0.414413 0.242321 0.101685 0.231680
H31   H     H_    0.335965 0.192894 0.177541 0.231783
H32   H     H_    0.268600 0.325805 0.122467 0.247299

loop_
_geom_bond_atom_site_label_1
_geom_bond_atom_site_label_2
_ccdc_geom_bond_type
C3    N4    A    
C31   H17   S    
N3    N5    A    
C34   H24   S    
C4    C25   S    
Cu1   O5    S    
C29   H9    S    
C2    O2    A    
C3    N5    A    
Cu1   O3    S    
Cu2   O4    S    
C13   H5    S    
C14   H6    S    
C30   H13   S    
C4    N3    A    
C33   H22   S    
C23   C26   A    
C31   H16   S    
C15   H7    S    
C13   N2    A    
Cu2   O8    S    
C14   N1    A    
C5    C27   S    
C6    C28   S    
C20   C24   A    
C32   H19   S    
C5    O8    A    
C6    O7    A    
C29   H11   S    
C29   H10   S    
Cu2   O6    S    
C9    H3    S    
C34   H25   S    
C5    O5    A    
C31   H15   S    
C1    C12   S    
N4    N6    A    
C2    C11   S    
C36   H31   S    
C36   H30   S    
C35   H28   S    
C7    C12   A    
C7    H1    S    
C8    H2    S    
C20   C32   S    
C18   C28   A    
C24   C25   A    
C30   H14   S    
C4    N6    A    
C35   H27   S    
C17   C21   A    
C21   C33   S    
C17   C27   A    
C33   H23   S    
C19   C23   A    
C24   C36   S    
Cu1   Cu2   S    
C18   C30   S    
C32   H20   S    
Cu1   N1    S    
Cu2   N2    S    
C10   H4    S    
C23   C35   S    
C19   C28   A    
C9    C11   A    
C10   C12   A    
C34   H26   S    
C17   C29   S    
C36   H32   S    
Cu1   O7    S    
C35   H29   S    
C7    C9    A    
C21   C25   A    
C6    O6    A    
C18   C22   A    
Cu2   O2    S    
C3    C26   S    
C1    O4    A    
C20   C27   A    
C2    O3    A    
C1    O1    A    
C30   H12   S    
C19   C31   S    
C8    C11   A    
C33   H21   S    
C15   N2    A    
C16   N1    A    
C8    C10   A    
C32   H18   S    
C22   C26   A    
C13   C16   A    
Cu1   O1    S    
C14   C15   A    
C22   C34   S    
C16   H8    S    
