data_mof_unit_30516.cif
_audit_creation_date              2012-12-11T16:22:12-0500
_audit_creation_method            fapswitch 2.2
_symmetry_space_group_name_H-M    P1
_symmetry_Int_Tables_number       1
_space_group_crystal_system       triclinic
_cell_length_a                    13.509466
_cell_length_b                    14.047967
_cell_length_c                    30.028854
_cell_angle_alpha                 97.899292
_cell_angle_beta                  90.204712
_cell_angle_gamma                 118.718348
_cell_volume                      4934.54037297

loop_
_atom_site_label
_atom_site_type_symbol
_atom_type_description
_atom_site_fract_x
_atom_site_fract_y
_atom_site_fract_z
_atom_type_partial_charge
C1    C     C_R   0.719968 0.098490 0.569460 0.545116
C2    C     C_1   0.346679 0.664103 0.764122 -0.038300
C3    C     C_1   0.349351 0.670678 0.724725 -0.038575
C4    C     C_R   0.383885 0.788884 0.551097 0.540429
C5    C     C_R   0.302370 0.600871 0.897798 0.020637
C6    C     C_3   0.232645 0.120901 0.724836 -0.106163
C7    C     C_3   0.258418 0.054679 0.755858 -0.103101
C8    C     C_1   0.300229 0.195100 0.877555 -0.018980
C9    C     C_1   0.369951 0.133329 0.615017 -0.014729
C10   C     C_3   0.298476 0.226724 0.759774 -0.100619
C11   C     C_3   0.324402 0.160341 0.790083 0.051513
C12   C     C_R   0.350837 0.680765 0.678046 0.036175
C13   C     C_3   0.409300 0.253224 0.737043 -0.100990
C14   C     C_3   0.343196 0.147731 0.702802 0.051906
C15   C     C_3   0.435210 0.187139 0.768031 -0.103568
C16   C     C_R   0.398188 0.118308 0.569856 0.546365
C17   C     C_3   0.369492 0.081248 0.732937 -0.099705
C18   C     C_1   0.312140 0.174323 0.838435 -0.064995
C19   C     C_1   0.354799 0.141197 0.654408 -0.059939
C20   C     C_3   0.904435 0.252677 0.734757 -0.091001
C21   C     C_3   0.822493 0.264379 0.768475 -0.121137
C22   C     C_1   0.887017 0.201396 0.880051 -0.014112
C23   C     C_R   0.257513 0.676875 0.655904 -0.118322
C24   C     C_1   0.762966 0.128706 0.615685 -0.015403
C25   C     C_3   0.905482 0.164898 0.759723 0.180479
C26   C     C_3   0.826077 0.176938 0.793258 0.067836
C27   C     C_3   0.805182 0.071585 0.729176 -0.089366
C28   C     C_R   0.719832 0.095084 0.442702 0.542272
C29   C     C_3   0.801889 0.159637 0.704761 0.027230
C30   C     C_3   0.723636 0.083873 0.763032 -0.130832
C31   C     C_3   0.719334 0.171216 0.737569 -0.116324
C32   C     C_1   0.852212 0.188754 0.841612 -0.041675
C33   C     C_1   0.785467 0.146269 0.655754 -0.059248
C34   C     C_R   0.264601 0.703166 0.612523 -0.127124
C35   C     C_3   0.290307 0.574142 0.258896 -0.098788
C36   C     C_3   0.237218 0.621235 0.228606 -0.098281
C37   C     C_1   0.309458 0.607580 0.111249 -0.018497
C38   C     C_1   0.366437 0.736313 0.378153 -0.018305
C39   C     C_3   0.393450 0.610046 0.230003 -0.100258
C40   C     C_R   0.382214 0.784425 0.424421 0.546316
C41   C     C_3   0.340506 0.657632 0.200497 0.049934
C42   C     C_3   0.455030 0.723359 0.260927 -0.100876
C43   C     C_3   0.351634 0.686868 0.288961 0.049825
C44   C     C_3   0.401769 0.770369 0.230556 -0.098850
C45   C     C_R   0.252955 0.661745 0.833583 -0.115386
C46   C     C_3   0.298681 0.734349 0.259391 -0.097746
C47   C     C_1   0.328252 0.635795 0.151347 -0.060196
C48   C     C_1   0.358119 0.708527 0.338069 -0.059955
C49   C     C_R   0.357152 0.132566 0.400799 0.021082
C50   C     C_R   0.419578 0.233736 0.385407 -0.125448
C51   C     C_R   0.403083 0.242329 0.340659 -0.113980
C52   C     C_R   0.395958 0.114504 0.443052 0.541866
C53   C     C_R   0.323869 0.150264 0.311160 0.039539
C54   C     C_R   0.254779 0.051937 0.327001 -0.117984
C55   C     C_R   0.270794 0.043172 0.371810 -0.129441
C56   C     C_R   0.234536 0.635574 0.876984 -0.124981
C57   C     C_R   0.237414 0.091302 0.147333 -0.113708
C58   C     C_R   0.231079 0.110817 0.103465 -0.125510
C59   C     C_R   0.410698 0.279702 0.119702 -0.127184
C60   C     C_R   0.416767 0.259922 0.163570 -0.116625
C61   C     C_R   0.328071 0.167974 0.177743 0.038708
C62   C     C_1   0.324600 0.158595 0.224448 -0.033036
C63   C     C_1   0.322242 0.153906 0.263973 -0.033178
C64   C     C_R   0.365609 0.734208 0.591107 0.019239
C65   C     C_R   0.315113 0.207867 0.089935 0.020723
C66   C     C_R   0.778845 0.132313 0.402270 0.020733
C67   C     C_R   0.394335 0.601183 0.875801 -0.128387
C68   C     C_R   0.801216 0.060831 0.371843 -0.127247
C69   C     C_R   0.829336 0.083710 0.328512 -0.116068
C70   C     C_R   0.836189 0.178365 0.315518 0.038837
C71   C     C_R   0.823353 0.254352 0.346644 -0.113898
C72   C     C_R   0.795273 0.231756 0.389981 -0.125615
C73   C     C_R   0.889414 0.303122 0.167383 -0.117988
C74   C     C_R   0.912401 0.310981 0.122414 -0.129830
C75   C     C_R   0.854583 0.116327 0.107706 -0.125588
C76   C     C_R   0.455948 0.729801 0.612438 -0.128526
C77   C     C_R   0.831193 0.108641 0.152588 -0.114053
C78   C     C_R   0.412359 0.627168 0.832352 -0.118350
C79   C     C_R   0.852693 0.202808 0.182685 0.039600
C80   C     C_1   0.847322 0.197935 0.229795 -0.033394
C81   C     C_1   0.844011 0.191118 0.269145 -0.033219
C82   C     C_R   0.900068 0.218593 0.092719 0.021592
C83   C     C_R   0.284418 0.232251 0.922282 0.548529
C84   C     C_R   0.266439 0.547505 0.938119 0.542546
C85   C     C_R   0.943886 0.221654 0.923323 0.548294
C86   C     C_R   0.292832 0.243243 0.048941 0.541382
C87   C     C_R   0.275302 0.558632 0.065117 0.545254
C88   C     C_R   0.448652 0.703678 0.655864 -0.117394
C89   C     C_R   0.339445 0.653993 0.810806 0.037118
C90   C     C_R   0.954076 0.233121 0.049934 0.540631
C91   C     C_3   0.992618 0.064903 0.787841 -0.303040
Cr1   Cr    Cr6+3 0.583430 0.162610 0.509470 1.019382
Cr2   Cr    Cr6+3 0.584210 0.916680 0.495400 1.018105
Cr3   Cr    Cr6+3 0.332380 0.920740 0.495100 1.019067
Cr4   Cr    Cr6+3 0.086810 0.177030 0.983130 1.017187
Cr5   Cr    Cr6+3 0.337180 0.419300 0.994610 1.019055
Cr6   Cr    Cr6+3 0.084840 0.422330 0.995830 1.020156
H1    H     H_    0.163292 0.636382 0.893094 0.129705
H2    H     H_    0.799926 0.993374 0.712696 0.100048
H3    H     H_    0.196450 0.682897 0.817012 0.105429
H4    H     H_    0.147527 0.579328 0.214660 0.103065
H5    H     H_    0.244626 0.493868 0.271072 0.112391
H6    H     H_    0.259388 0.785357 0.272128 0.105438
H7    H     H_    0.447392 0.850634 0.218370 0.111513
H8    H     H_    0.544641 0.765227 0.274944 0.104772
H9    H     H_    0.432681 0.559040 0.217201 0.106105
H10   H     H_    0.156726 0.053668 0.081205 0.126392
H11   H     H_    0.168737 0.019685 0.158186 0.107852
H12   H     H_    0.150160 0.093025 0.705970 0.102425
H13   H     H_    0.193069 0.980463 0.304202 0.103620
H14   H     H_    0.181329 0.658752 0.672969 0.106704
H15   H     H_    0.221407 0.964183 0.382692 0.130686
H16   H     H_    0.487427 0.319371 0.187092 0.106139
H17   H     H_    0.476764 0.354964 0.110235 0.130172
H18   H     H_    0.456450 0.318875 0.328485 0.106853
H19   H     H_    0.947695 0.390929 0.111874 0.130910
H20   H     H_    0.828934 0.327979 0.336714 0.107972
H21   H     H_    0.779194 0.288699 0.412772 0.126395
H22   H     H_    0.789382 0.983764 0.380346 0.129662
H23   H     H_    0.399000 0.021391 0.721118 0.109450
H24   H     H_    0.193591 0.705605 0.596954 0.131060
H25   H     H_    0.802190 0.030584 0.164331 0.106613
H26   H     H_    0.839504 0.024692 0.304431 0.105856
H27   H     H_    0.534871 0.753299 0.596845 0.130673
H28   H     H_    0.479676 0.621298 0.814826 0.106305
H29   H     H_    0.448051 0.574790 0.890925 0.131041
H30   H     H_    0.521101 0.706508 0.672891 0.106091
H31   H     H_    0.196602 0.973243 0.764245 0.098410
H32   H     H_    0.649234 0.015504 0.775019 0.109432
H33   H     H_    0.066337 0.188745 0.748460 0.239217
H34   H     H_    0.518057 0.213984 0.786418 0.103597
H35   H     H_    0.074214 0.079332 0.803328 0.158492
H36   H     H_    0.963168 0.996330 0.759053 0.119908
H37   H     H_    0.930222 0.041434 0.813730 0.165116
H38   H     H_    0.486231 0.304061 0.407033 0.127347
H39   H     H_    0.905976 0.376272 0.190639 0.103105
H40   H     H_    0.843854 0.043812 0.085528 0.126455
H41   H     H_    0.471000 0.334750 0.728693 0.105322
H42   H     H_    0.270212 0.287522 0.771610 0.118703
H43   H     H_    0.828341 0.342822 0.784980 0.105548
H44   H     H_    0.979629 0.320619 0.722948 0.103902
H45   H     H_    0.641705 0.173815 0.727397 0.113436
N1    N     N_2   0.008345 0.163901 0.772311 -0.515946
O1    O     O_R   0.493980 0.188910 0.559650 -0.507990
O2    O     O_R   0.170560 0.527890 0.952050 -0.516030
O3    O     O_R   0.987620 0.318470 0.945550 -0.492833
O4    O     O_R   0.678640 0.153520 0.554450 -0.494221
O5    O     O_R   0.976400 0.159270 0.031530 -0.519486
O6    O     O_R   0.194000 0.188570 0.028560 -0.503387
O7    O     O_R   0.365260 0.335720 0.039020 -0.517470
O8    O     O_R   0.330440 0.515580 0.044910 -0.494863
O9    O     O_R   0.177310 0.536200 0.050190 -0.512962
O10   O     O_R   0.993870 0.326170 0.036530 -0.503838
O11   O     O_3   0.169610 0.339550 0.991190 -0.241534
O12   O     O_R   0.480180 0.824400 0.444640 -0.494446
O13   O     O_R   0.698130 0.004030 0.549500 -0.511715
O14   O     O_R   0.481060 0.827210 0.535360 -0.503955
O15   O     O_R   0.309260 0.811560 0.537660 -0.516751
O16   O     O_R   0.341620 0.023400 0.546290 -0.494654
O17   O     O_R   0.493030 0.185890 0.461780 -0.519139
O18   O     O_R   0.677760 0.150720 0.463730 -0.503028
O19   O     O_R   0.697180 0.001010 0.451640 -0.516829
O20   O     O_R   0.308310 0.808540 0.439800 -0.512250
O21   O     O_R   0.340740 0.020600 0.455570 -0.502932
O22   O     O_3   0.500010 0.000010 0.499990 -0.243186
O23   O     O_R   0.969650 0.150960 0.933380 -0.510570
O24   O     O_R   0.187740 0.180870 0.937580 -0.494924
O25   O     O_R   0.358510 0.327410 0.940870 -0.510569
O26   O     O_R   0.324180 0.507870 0.953930 -0.503458

loop_
_geom_bond_atom_site_label_1
_geom_bond_atom_site_label_2
_ccdc_geom_bond_type
Cr1   O18   S    
C52   O17   A    
C39   H9    S    
C66   C68   A    
C21   C26   S    
C11   C18   S    
C26   C32   S    
Cr3   O16   S    
C36   C41   S    
C55   H15   S    
C27   C29   S    
C8    C83   S    
Cr6   O3    S    
C5    C56   A    
C28   C66   S    
C35   C36   S    
C56   H1    S    
C5    C67   A    
C35   H5    S    
C44   H7    S    
C28   O19   A    
C65   C86   S    
C39   C41   S    
C53   C54   A    
C7    C11   S    
C21   C31   S    
C12   C23   A    
C27   H2    S    
C22   C32   T    
C85   O23   A    
C16   O1    A    
C9    C16   S    
C88   H30   S    
C50   H38   S    
C86   O7    A    
C68   H22   S    
C30   C31   S    
C20   C25   S    
C69   H26   S    
C29   C33   S    
C54   H13   S    
C51   H18   S    
C58   H10   S    
C73   C74   A    
C22   C85   S    
C70   C81   S    
C90   O5    A    
C3    C12   S    
C17   H23   S    
C11   C15   S    
Cr1   O22   S    
C9    C19   T    
C66   C72   A    
C45   C56   A    
C68   C69   A    
C7    C17   S    
Cr5   O25   S    
C40   O12   A    
C36   C46   S    
C70   C71   A    
Cr4   O6    S    
Cr6   O10   S    
C7    H31   S    
C37   C47   T    
C35   C43   S    
C43   C48   S    
C76   C88   A    
C38   C48   T    
C1    O13   A    
C49   C52   S    
C74   H19   S    
C59   C60   A    
Cr3   O15   S    
C87   O8    A    
C13   C14   S    
C16   O16   A    
C14   C17   S    
C60   H16   S    
C25   N1    S    
C67   C78   A    
C42   C44   S    
C74   C82   A    
C14   C19   S    
Cr3   O22   S    
C43   C46   S    
C44   C46   S    
C28   O18   A    
C39   C42   S    
C91   N1    S    
C20   C29   S    
C77   C79   A    
C78   C89   A    
C41   C47   S    
Cr5   O11   S    
C71   H20   S    
C76   H27   S    
Cr2   O12   S    
C85   O3    A    
C40   O20   A    
C84   O26   A    
C75   H40   S    
C67   H29   S    
C5    C84   S    
C12   C88   A    
C91   H35   S    
C25   C26   S    
C84   O2    A    
Cr5   O8    S    
C83   O24   A    
C10   C13   S    
C8    C18   T    
C60   C61   A    
C51   C53   A    
C2    C89   S    
C35   C39   S    
C62   C63   T    
C6    C14   S    
C58   C65   A    
C4    O14   A    
C91   H36   S    
C73   H39   S    
C23   C34   A    
Cr5   O7    S    
C34   C64   A    
C50   C51   A    
C64   C76   A    
Cr6   O11   S    
C90   O10   A    
Cr2   O14   S    
H33   N1    S    
C75   C77   A    
C52   O21   A    
C26   C30   S    
C34   H24   S    
C87   O9    A    
C13   C15   S    
C6    H12   S    
C1    O4    A    
C42   C43   S    
Cr4   O23   S    
Cr3   O21   S    
C45   C89   A    
C46   H6    S    
C15   C17   S    
C54   C55   A    
C77   H25   S    
Cr6   O2    S    
C20   H44   S    
C37   C87   S    
Cr2   O13   S    
Cr4   O5    S    
C80   C81   T    
C73   C79   A    
C45   H3    S    
Cr4   O24   S    
C6    C10   S    
C75   C82   A    
C57   C61   A    
C6    C7    S    
C25   C27   S    
C30   H32   S    
C23   H14   S    
C83   O25   A    
C4    C64   S    
C24   C33   T    
C82   C90   S    
Cr1   O17   S    
Cr5   O26   S    
Cr4   O11   S    
C13   H41   S    
C31   H45   S    
C2    C3    T    
C71   C72   A    
C29   C31   S    
C49   C55   A    
C59   C65   A    
C38   C40   S    
C53   C63   S    
C57   C58   A    
C91   H37   S    
Cr2   O19   S    
C59   H17   S    
C86   O6    A    
C41   C44   S    
Cr6   O9    S    
C61   C62   S    
Cr1   O1    S    
C42   H8    S    
C69   C70   A    
C10   C11   S    
Cr2   O22   S    
C79   C80   S    
C57   H11   S    
C15   H34   S    
C20   C21   S    
C1    C24   S    
C49   C50   A    
C10   H42   S    
C72   H21   S    
C27   C30   S    
C36   H4    S    
C21   H43   S    
C78   H28   S    
Cr3   O20   S    
C4    O15   A    
Cr1   O4    S    
