data_mof_unit_55014.cif
_audit_creation_date              2012-12-10T19:05:20-0500
_audit_creation_method            fapswitch 2.2
_symmetry_space_group_name_H-M    P1
_symmetry_Int_Tables_number       1
_space_group_crystal_system       triclinic
_cell_length_a                    9.535994
_cell_length_b                    10.819252
_cell_length_c                    17.190385
_cell_angle_alpha                 89.980824
_cell_angle_beta                  85.878448
_cell_angle_gamma                 89.93798
_cell_volume                      1768.984065

loop_
_atom_site_label
_atom_site_type_symbol
_atom_type_description
_atom_site_fract_x
_atom_site_fract_y
_atom_site_fract_z
_atom_type_partial_charge
C1    C     C_R   0.500173 0.737734 0.498712 0.793085
C2    C     C_R   0.362047 0.440912 0.775438 -0.222177
C3    C     C_R   0.440915 0.393026 0.149370 -0.160178
C4    C     C_R   0.427139 0.414057 0.229272 -0.191642
C5    C     C_R   0.649674 0.523429 0.220860 -0.205936
C6    C     C_R   0.662643 0.503741 0.140602 -0.103491
C7    C     C_R   0.558153 0.438585 0.104478 0.122560
C8    C     C_2   0.455323 0.471134 0.982150 -0.320448
C9    C     C_2   0.565363 0.426895 0.018985 -0.068544
C10   C     C_R   0.530794 0.480123 0.265374 -0.027590
C11   C     C_R   0.376126 0.936637 0.488104 0.139490
C12   C     C_R   0.481636 0.503948 0.650191 0.784015
C13   C     C_R   0.501621 0.870844 0.490962 -0.097520
C14   C     C_R   0.629704 0.935482 0.482368 -0.219024
C15   C     C_R   0.629799 0.064312 0.482144 -0.214088
C16   C     C_R   0.501807 0.129273 0.490603 -0.098048
C17   C     C_R   0.376236 0.063814 0.487919 0.118981
C18   C     C_3   0.243923 0.070868 0.539801 -0.460735
C19   C     C_3   0.243805 0.930481 0.540048 -0.481901
C20   C     C_R   0.930494 0.403786 0.467751 0.254156
C21   C     C_R   0.920431 0.588213 0.538764 -0.089402
C22   C     C_R   0.069343 0.588046 0.538928 -0.075002
C23   C     C_R   0.500321 0.262308 0.498505 0.806141
C24   C     C_R   0.077956 0.404061 0.467494 0.258424
C25   C     C_3   0.093698 0.363172 0.384533 -0.516324
C26   C     C_3   0.934526 0.361528 0.385143 -0.489960
C27   C     C_R   0.518688 0.496563 0.349868 0.789880
C28   C     C_R   0.471126 0.507729 0.735616 -0.085046
C29   C     C_R   0.569386 0.574016 0.777944 0.133147
C30   C     C_R   0.561298 0.561360 0.859420 -0.080297
C31   C     C_R   0.457403 0.487760 0.897727 0.179344
C32   C     C_R   0.354684 0.431752 0.856187 -0.131198
Cu1   Cu    Cu3+1 0.359330 0.500020 0.500000 0.941509
Cu2   Cu    Cu3+1 0.640670 0.499980 0.500000 0.937331
H1    H     H_    0.752406 0.541705 0.106534 0.148650
H2    H     H_    0.729544 0.887267 0.479678 0.163433
H3    H     H_    0.729680 0.112282 0.479314 0.160221
H4    H     H_    0.260488 0.111916 0.597736 0.200553
H5    H     H_    0.155548 0.111353 0.509466 0.193004
H6    H     H_    0.260292 0.889801 0.598122 0.194620
H7    H     H_    0.155275 0.890153 0.509880 0.195404
H8    H     H_    0.860712 0.661071 0.568800 0.135314
H9    H     H_    0.121097 0.660432 0.569371 0.138239
H10   H     H_    0.141752 0.435470 0.345288 0.217841
H11   H     H_    0.337081 0.376348 0.262947 0.141269
H12   H     H_    0.142063 0.269872 0.378059 0.191704
H13   H     H_    0.892675 0.431449 0.345456 0.222022
H14   H     H_    0.890538 0.267031 0.379960 0.191254
H15   H     H_    0.731214 0.573963 0.247954 0.142779
H16   H     H_    0.272202 0.377108 0.886012 0.145016
H17   H     H_    0.359673 0.342026 0.122313 0.142257
H18   H     H_    0.285059 0.392002 0.743751 0.156785
H19   H     H_    0.362354 0.505166 0.015841 0.161360
H20   H     H_    0.636548 0.606325 0.894079 0.134435
N1    N     N_R   0.852130 0.499070 0.499500 -0.183066
N2    N     N_R   0.148040 0.499110 0.499500 -0.183336
O1    O     O_R   0.381190 0.680360 0.500000 -0.580013
O2    O     O_R   0.618770 0.680320 0.499990 -0.593722
O3    O     O_R   0.367430 0.500040 0.613600 -0.580871
O4    O     O_R   0.605020 0.500000 0.613590 -0.584163
O5    O     O_R   0.381230 0.319680 0.500010 -0.580657
O6    O     O_R   0.618810 0.319640 0.500000 -0.581724
O7    O     O_R   0.394980 0.500000 0.386410 -0.582214
O8    O     O_R   0.632570 0.499960 0.386400 -0.583430
C33   C     C_3   0.681176 0.655672 0.735947 -0.388403
C34   C     C_3   0.747320 0.753020 0.786467 -0.871130
H21   H     H_    0.816621 0.708692 0.827599 0.252448
H22   H     H_    0.664459 0.808405 0.819130 0.261087
H23   H     H_    0.813179 0.816456 0.748473 0.246771
H24   H     H_    0.766428 0.596052 0.709207 0.223393
H25   H     H_    0.632790 0.706854 0.688549 0.199800
C35   C     C_2   0.690878 0.366755 0.977595 0.853850
O9    O     O_2   0.797820 0.351104 0.011601 -0.615885
O10   O     O_R   0.685327 0.322569 0.901411 -0.753826
H26   H     H_    0.776805 0.282915 0.880555 0.329419

loop_
_geom_bond_atom_site_label_1
_geom_bond_atom_site_label_2
_ccdc_geom_bond_type
C10   C27   S    
C34   H22   S    
C9    C35   S    
C30   H20   S    
C11   C19   S    
C12   C28   S    
C28   C29   A    
C3    C7    A    
C14   H2    S    
C30   C31   A    
C34   H23   S    
C15   C16   A    
Cu2   O6    S    
C6    H1    S    
C2    C32   A    
C18   C19   S    
C15   H3    S    
C12   O3    A    
C23   O6    A    
C20   C24   A    
C8    C9    D    
C26   H14   S    
Cu1   N2    S    
C34   H21   S    
Cu2   N1    S    
Cu1   O3    S    
C21   C22   A    
Cu2   O4    S    
C5    H15   S    
C20   N1    A    
C25   H10   S    
Cu1   Cu2   S    
C4    H11   S    
O10   H26   S    
C24   C25   S    
C35   O10   S    
C27   O8    A    
C21   N1    A    
C3    H17   S    
C16   C17   A    
C22   N2    A    
C25   C26   S    
C33   H25   S    
C18   H5    S    
C29   C30   A    
C1    O1    A    
C31   C32   A    
Cu1   O7    S    
Cu2   O8    S    
C17   C18   S    
C32   H16   S    
C2    H18   S    
C26   H13   S    
C29   C33   S    
C16   C23   S    
C1    C13   S    
C4    C10   A    
C3    C4    A    
C7    C9    S    
C11   C17   A    
Cu1   O1    S    
C8    C31   S    
C35   O9    D    
C8    H19   S    
C6    C7    A    
C24   N2    A    
C18   H4    S    
C5    C10   A    
C1    O2    A    
C11   C13   A    
C5    C6    A    
C20   C26   S    
C19   H6    S    
C21   H8    S    
C12   O4    A    
C23   O5    A    
Cu1   O5    S    
C33   C34   S    
Cu2   O2    S    
C14   C15   A    
C27   O7    A    
C2    C28   A    
C33   H24   S    
C13   C14   A    
C25   H12   S    
C22   H9    S    
C19   H7    S    
