data_mof_unit_10156.cif
_audit_creation_date              2012-12-11T16:26:24-0500
_audit_creation_method            fapswitch 2.2
_symmetry_space_group_name_H-M    P1
_symmetry_Int_Tables_number       1
_space_group_crystal_system       triclinic
_cell_length_a                    14.020128
_cell_length_b                    14.020129
_cell_length_c                    31.941132
_cell_angle_alpha                 90.0
_cell_angle_beta                  90.000012
_cell_angle_gamma                 120.00024
_cell_volume                      5437.30723133

loop_
_atom_site_label
_atom_site_type_symbol
_atom_type_description
_atom_site_fract_x
_atom_site_fract_y
_atom_site_fract_z
_atom_type_partial_charge
C1    C     C_R   0.567988 0.443867 0.810630 0.560283
C2    C     C_R   0.443867 0.567988 0.189370 0.560283
C3    C     C_R   0.432012 0.875880 0.310630 0.560282
C4    C     C_R   0.124120 0.556132 0.189370 0.560282
C5    C     C_1   0.004117 0.524003 0.018708 -0.010845
C6    C     C_1   0.519886 0.995882 0.481292 -0.010845
C7    C     C_1   0.475996 0.480114 0.018708 -0.010845
C8    C     C_1   0.004117 0.524003 0.481292 -0.010845
C9    C     C_1   0.519886 0.995882 0.018708 -0.010845
C10   C     C_1   0.475996 0.480114 0.481292 -0.010845
C11   C     C_1   0.524003 0.004117 0.518708 -0.010845
C12   C     C_R   0.875880 0.432012 0.689370 0.560282
C13   C     C_1   0.995882 0.519886 0.981292 -0.010845
C14   C     C_1   0.480114 0.475996 0.518708 -0.010845
C15   C     C_1   0.524003 0.004117 0.981292 -0.010845
C16   C     C_1   0.995882 0.519886 0.518708 -0.010845
C17   C     C_1   0.480114 0.475996 0.981292 -0.010845
C18   C     C_R   0.929275 0.469845 0.851857 0.022353
C19   C     C_R   0.540569 0.070725 0.648143 0.022353
C20   C     C_R   0.530156 0.459431 0.851857 0.022353
C21   C     C_R   0.929275 0.469844 0.648143 0.022353
C22   C     C_R   0.540569 0.070725 0.851857 0.022353
C23   C     C_R   0.556132 0.124120 0.810630 0.560282
C24   C     C_R   0.530156 0.459430 0.648143 0.022353
C25   C     C_R   0.469845 0.929275 0.351857 0.022353
C26   C     C_R   0.070725 0.540569 0.148143 0.022353
C27   C     C_R   0.459431 0.530156 0.351857 0.022353
C28   C     C_R   0.469845 0.929275 0.148143 0.022353
C29   C     C_R   0.070725 0.540569 0.351857 0.022353
C30   C     C_R   0.459431 0.530156 0.148143 0.022353
C31   C     C_R   0.920558 0.553319 0.873030 -0.169505
C32   C     C_R   0.632761 0.079441 0.626970 -0.169505
C33   C     C_R   0.446680 0.367238 0.873030 -0.169505
C34   C     C_R   0.567988 0.443867 0.689370 0.560283
C35   C     C_R   0.920558 0.553319 0.626970 -0.169505
C36   C     C_R   0.632761 0.079442 0.873030 -0.169505
C37   C     C_R   0.446680 0.367238 0.626970 -0.169505
C38   C     C_R   0.553319 0.920557 0.373030 -0.169505
C39   C     C_R   0.079441 0.632761 0.126970 -0.169505
C40   C     C_R   0.367238 0.446680 0.373030 -0.169505
C41   C     C_R   0.553319 0.920558 0.126970 -0.169505
C42   C     C_R   0.079442 0.632761 0.373030 -0.169505
C43   C     C_R   0.367238 0.446680 0.126970 -0.169505
C44   C     C_R   0.947255 0.573308 0.915345 -0.123980
C45   C     C_R   0.875880 0.432012 0.810630 0.560282
C46   C     C_R   0.626052 0.052744 0.584655 -0.123980
C47   C     C_R   0.426692 0.373947 0.915345 -0.123979
C48   C     C_R   0.947255 0.573308 0.584655 -0.123980
C49   C     C_R   0.626052 0.052744 0.915345 -0.123980
C50   C     C_R   0.426692 0.373947 0.584655 -0.123979
C51   C     C_R   0.573308 0.947254 0.415345 -0.123980
C52   C     C_R   0.052744 0.626052 0.084655 -0.123980
C53   C     C_R   0.373947 0.426691 0.415345 -0.123979
C54   C     C_R   0.573308 0.947255 0.084655 -0.123980
C55   C     C_R   0.052744 0.626052 0.415345 -0.123980
C56   C     C_R   0.556132 0.124120 0.689370 0.560282
C57   C     C_R   0.373947 0.426692 0.084655 -0.123979
C58   C     C_R   0.983951 0.511027 0.936816 -0.024827
C59   C     C_R   0.527075 0.016049 0.563184 -0.024826
C60   C     C_R   0.488973 0.472924 0.936816 -0.024826
C61   C     C_R   0.983951 0.511027 0.563184 -0.024826
C62   C     C_R   0.527075 0.016049 0.936816 -0.024826
C63   C     C_R   0.488973 0.472924 0.563184 -0.024826
C64   C     C_R   0.511027 0.983951 0.436816 -0.024826
C65   C     C_R   0.016049 0.527075 0.063184 -0.024827
C66   C     C_R   0.472924 0.488973 0.436816 -0.024826
C67   C     C_R   0.443867 0.567988 0.310630 0.560283
C68   C     C_R   0.511027 0.983951 0.063184 -0.024826
C69   C     C_R   0.016049 0.527075 0.436816 -0.024826
C70   C     C_R   0.472924 0.488973 0.063184 -0.024826
C71   C     C_R   0.000642 0.433541 0.915511 -0.070797
C72   C     C_R   0.432899 0.999358 0.584488 -0.070797
C73   C     C_R   0.566459 0.567101 0.915512 -0.070798
C74   C     C_R   0.000642 0.433542 0.584488 -0.070797
C75   C     C_R   0.432899 0.999358 0.915512 -0.070798
C76   C     C_R   0.566459 0.567101 0.584488 -0.070798
C77   C     C_R   0.433542 0.000643 0.415511 -0.070798
C78   C     C_R   0.432012 0.875880 0.189370 0.560282
C79   C     C_R   0.999358 0.432899 0.084488 -0.070797
C80   C     C_R   0.567101 0.566459 0.415512 -0.070798
C81   C     C_R   0.433541 0.000642 0.084488 -0.070797
C82   C     C_R   0.999358 0.432899 0.415512 -0.070797
C83   C     C_R   0.567101 0.566459 0.084488 -0.070798
C84   C     C_R   0.973864 0.412916 0.873160 0.383642
C85   C     C_R   0.439051 0.026136 0.626840 0.383642
C86   C     C_R   0.587085 0.560948 0.873160 0.383642
C87   C     C_R   0.973864 0.412916 0.626840 0.383642
C88   C     C_R   0.439051 0.026136 0.873160 0.383642
C89   C     C_R   0.124120 0.556132 0.310630 0.560282
C90   C     C_R   0.587085 0.560948 0.626840 0.383642
C91   C     C_R   0.412916 0.973865 0.373160 0.383642
C92   C     C_R   0.026136 0.439051 0.126840 0.383642
C93   C     C_R   0.560948 0.587085 0.373160 0.383642
C94   C     C_R   0.412916 0.973864 0.126840 0.383642
C95   C     C_R   0.026136 0.439051 0.373160 0.383642
C96   C     C_R   0.560948 0.587085 0.126840 0.383642
Cr1   Cr    Cr6+3 0.504240 0.249200 0.750000 1.108709
Cr2   Cr    Cr6+3 0.744960 0.495760 0.750000 1.108709
Cr3   Cr    Cr6+3 0.750800 0.255040 0.750000 1.108709
Cr4   Cr    Cr6+3 0.249200 0.504240 0.250000 1.108709
Cr5   Cr    Cr6+3 0.495760 0.744960 0.250000 1.108709
Cr6   Cr    Cr6+3 0.255040 0.750800 0.250000 1.108709
F1    F     F_    0.013662 0.347214 0.146128 -0.600344
F2    F     F_    0.347214 0.013662 0.853872 -0.600344
F3    F     F_    0.986339 0.333554 0.646128 -0.600344
F4    F     F_    0.666448 0.652786 0.853872 -0.600344
F5    F     F_    0.333555 0.986340 0.353872 -0.600344
F6    F     F_    0.652786 0.666447 0.146128 -0.600344
F7    F     F_    0.013662 0.347214 0.353872 -0.600345
F8    F     F_    0.333554 0.986339 0.146128 -0.600344
F9    F     F_    0.652786 0.666448 0.353872 -0.600344
F10   F     F_    0.347214 0.013662 0.646128 -0.600345
F11   F     F_    0.986339 0.333554 0.853872 -0.600344
F12   F     F_    0.666447 0.652786 0.646128 -0.600344
H1    H     H_    0.886688 0.598707 0.857678 0.182907
H2    H     H_    0.598707 0.886687 0.142322 0.182907
H3    H     H_    0.113311 0.712019 0.357678 0.182906
H4    H     H_    0.287980 0.401292 0.142322 0.182907
H5    H     H_    0.065469 0.699223 0.068290 0.147565
H6    H     H_    0.633752 0.934529 0.431711 0.147565
H7    H     H_    0.300776 0.366246 0.068289 0.147565
H8    H     H_    0.065469 0.699223 0.431710 0.147565
H9    H     H_    0.633753 0.934529 0.068289 0.147565
H10   H     H_    0.300776 0.366246 0.431710 0.147565
H11   H     H_    0.699223 0.065469 0.568290 0.147565
H12   H     H_    0.712019 0.113311 0.642322 0.182907
H13   H     H_    0.934530 0.633753 0.931711 0.147565
H14   H     H_    0.366246 0.300776 0.568289 0.147565
H15   H     H_    0.699223 0.065469 0.931710 0.147565
H16   H     H_    0.934529 0.633753 0.568289 0.147565
H17   H     H_    0.366246 0.300776 0.931710 0.147565
H18   H     H_    0.970011 0.355749 0.067908 0.142735
H19   H     H_    0.385740 0.029991 0.432092 0.142736
H20   H     H_    0.644251 0.614261 0.067908 0.142735
H21   H     H_    0.970011 0.355749 0.432092 0.142736
H22   H     H_    0.385740 0.029990 0.067908 0.142735
H23   H     H_    0.401292 0.287980 0.857678 0.182907
H24   H     H_    0.644251 0.614262 0.432092 0.142735
H25   H     H_    0.355749 0.970011 0.567908 0.142736
H26   H     H_    0.029990 0.385740 0.932092 0.142735
H27   H     H_    0.614261 0.644250 0.567908 0.142735
H28   H     H_    0.355749 0.970011 0.932092 0.142735
H29   H     H_    0.029990 0.385740 0.567908 0.142736
H30   H     H_    0.614261 0.644250 0.932092 0.142736
H31   H     H_    0.886687 0.598707 0.642322 0.182907
H32   H     H_    0.712019 0.113311 0.857678 0.182907
H33   H     H_    0.401292 0.287980 0.642322 0.182907
H34   H     H_    0.598707 0.886687 0.357678 0.182907
H35   H     H_    0.113311 0.712019 0.142322 0.182907
H36   H     H_    0.287980 0.401292 0.357678 0.182907
O1    O     O_R   0.480350 0.140770 0.796330 -0.428841
O2    O     O_R   0.140770 0.480350 0.203670 -0.428841
O3    O     O_R   0.519650 0.660420 0.296330 -0.428841
O4    O     O_R   0.339580 0.859230 0.203670 -0.428841
O5    O     O_R   0.514930 0.348530 0.793250 -0.515885
O6    O     O_R   0.833600 0.485070 0.706750 -0.515886
O7    O     O_R   0.651470 0.166400 0.793250 -0.515885
O8    O     O_R   0.514930 0.348530 0.706750 -0.515885
O9    O     O_R   0.833600 0.485070 0.793250 -0.515886
O10   O     O_R   0.651470 0.166400 0.706750 -0.515885
O11   O     O_R   0.348530 0.514930 0.293250 -0.515885
O12   O     O_R   0.660420 0.519650 0.703670 -0.428841
O13   O     O_R   0.485070 0.833600 0.206750 -0.515886
O14   O     O_R   0.166400 0.651470 0.293250 -0.515886
O15   O     O_R   0.348530 0.514930 0.206750 -0.515885
O16   O     O_R   0.485070 0.833600 0.293250 -0.515886
O17   O     O_R   0.166400 0.651470 0.206750 -0.515886
O18   O     O_3   0.666667 0.333333 0.750000 -0.292887
O19   O     O_3   0.333333 0.666667 0.250000 -0.292887
O20   O     O_R   0.859230 0.339580 0.796330 -0.428840
O21   O     O_R   0.480350 0.140770 0.703670 -0.428841
O22   O     O_R   0.660420 0.519650 0.796330 -0.428841
O23   O     O_R   0.859230 0.339580 0.703670 -0.428841
O24   O     O_R   0.140770 0.480350 0.296330 -0.428841
O25   O     O_R   0.519650 0.660420 0.203670 -0.428841
O26   O     O_R   0.339580 0.859230 0.296330 -0.428841

loop_
_geom_bond_atom_site_label_1
_geom_bond_atom_site_label_2
_ccdc_geom_bond_type
C19   C56   S    
C74   H29   S    
C21   C87   A    
C44   H13   S    
Cr6   O17   S    
C65   C79   A    
C29   C42   A    
C64   C77   A    
C60   C73   A    
C46   H11   S    
C45   O9    A    
C54   H9    S    
C85   F10   S    
C45   O20   A    
C7    C70   S    
C29   C89   S    
C72   C85   A    
Cr3   O20   S    
Cr4   O2    S    
C8    C69   S    
C84   F11   S    
C68   C81   A    
C71   C84   A    
C38   C51   A    
Cr6   O14   S    
C25   C38   A    
C58   C71   A    
C54   C68   A    
C63   C76   A    
C19   C32   A    
Cr6   O26   S    
C28   C41   A    
C28   C94   A    
C35   H31   S    
C32   H12   S    
C82   H21   S    
C1    O5    A    
C83   H20   S    
C30   C96   A    
C69   C82   A    
C92   F1    S    
C88   F2    S    
C47   C60   A    
C72   H25   S    
Cr3   O23   S    
C33   H23   S    
C7    C17   T    
C20   C86   A    
C18   C84   A    
Cr5   O19   S    
Cr4   O11   S    
C82   C95   A    
C22   C88   A    
C57   C70   A    
C28   C78   S    
Cr6   O4    S    
C89   O14   A    
C5    C13   T    
C59   C72   A    
Cr2   O22   S    
C76   H27   S    
Cr6   O19   S    
C90   F12   S    
C39   C52   A    
C96   F6    S    
C55   H8    S    
C78   O13   A    
C8    C16   T    
Cr3   O10   S    
C50   C63   A    
C48   H16   S    
C86   F4    S    
C77   H19   S    
C89   O24   A    
C12   O6    A    
C11   C59   S    
C35   C48   A    
C31   H1    S    
Cr2   O12   S    
C51   H6    S    
C10   C66   S    
C4    O2    A    
Cr2   O6    S    
C25   C91   A    
C31   C44   A    
C91   F5    S    
Cr5   O13   S    
C5    C65   S    
C95   F7    S    
C44   C58   A    
C6    C11   T    
C29   C95   A    
C78   O4    A    
C13   C58   S    
C17   C60   S    
C34   O12   A    
C49   H15   S    
C12   C21   S    
C94   F8    S    
C24   C34   S    
C47   H17   S    
Cr4   O15   S    
C36   C49   A    
C70   C83   A    
C75   H28   S    
C42   C55   A    
C67   O11   A    
C87   F3    S    
C27   C93   A    
Cr5   O3    S    
C27   C40   A    
C24   C37   A    
Cr1   O1    S    
C40   H36   S    
C37   H33   S    
C53   C66   A    
C2    O15   A    
C38   H34   S    
C79   C92   A    
C55   C69   A    
C93   F9    S    
C20   C33   A    
C34   O8    A    
C36   H32   S    
Cr3   O7    S    
C2    O25   A    
Cr4   O24   S    
C74   C87   A    
C30   C43   A    
Cr5   O25   S    
C50   H14   S    
C16   C61   S    
C41   H2    S    
C18   C45   S    
C66   C80   A    
C81   H22   S    
Cr3   O18   S    
C23   O1    A    
C77   C91   A    
C1    C20   S    
C49   C62   A    
Cr4   O19   S    
C32   C46   A    
C51   C64   A    
C19   C85   A    
C53   H10   S    
C24   C90   A    
C4    C26   S    
C42   H3    S    
C6    C64   S    
C71   H26   S    
C21   C35   A    
C61   C74   A    
Cr1   O18   S    
C22   C36   A    
C39   H35   S    
C1    O22   A    
Cr1   O21   S    
C4    O17   A    
C2    C30   S    
C67   O3    A    
Cr1   O8    S    
C9    C15   T    
C9    C68   S    
C3    O26   A    
C56   O21   A    
C81   C94   A    
C48   C61   A    
C83   C96   A    
C80   H24   S    
C79   H18   S    
C23   O7    A    
C37   C50   A    
C33   C47   A    
C15   C62   S    
C14   C63   S    
Cr1   O5    S    
C41   C54   A    
Cr5   O16   S    
C26   C39   A    
Cr2   O18   S    
C73   C86   A    
C27   C67   S    
C43   C57   A    
C43   H4    S    
C57   H7    S    
C52   H5    S    
C75   C88   A    
C3    C25   S    
Cr2   O9    S    
C46   C59   A    
C56   O10   A    
C40   C53   A    
C76   C90   A    
C22   C23   S    
C18   C31   A    
C80   C93   A    
C26   C92   A    
C52   C65   A    
C62   C75   A    
C3    O16   A    
C10   C14   T    
C12   O23   A    
C73   H30   S    
