data_mof_unit_6663.cif
_audit_creation_date              2012-12-10T16:57:43-0500
_audit_creation_method            fapswitch 2.2
_symmetry_space_group_name_H-M    P1
_symmetry_Int_Tables_number       1
_space_group_crystal_system       triclinic
_cell_length_a                    7.75346
_cell_length_b                    8.577562
_cell_length_c                    19.21109
_cell_angle_alpha                 91.018335
_cell_angle_beta                  85.754434
_cell_angle_gamma                 93.70408
_cell_volume                      1271.37265029

loop_
_atom_site_label
_atom_site_type_symbol
_atom_type_description
_atom_site_fract_x
_atom_site_fract_y
_atom_site_fract_z
_atom_type_partial_charge
C1    C     C_R   0.545884 0.794817 0.498186 0.972460
C2    C     C_R   0.454116 0.205183 0.501812 0.972780
C3    C     C_2   0.570065 0.958276 0.497143 -0.369555
C4    C     C_2   0.429934 0.041723 0.502853 -0.369738
C5    C     C_R   0.501983 0.499705 0.634386 0.893282
C6    C     C_R   0.498073 0.500724 0.365617 0.893387
C7    C     C_R   0.354799 0.522156 0.752070 -0.155120
C8    C     C_R   0.645859 0.483655 0.247771 -0.155228
C9    C     C_R   0.357744 0.520367 0.823877 -0.158337
C10   C     C_R   0.643352 0.489712 0.176011 -0.157843
C11   C     C_R   0.511459 0.494368 0.854460 -0.020555
C12   C     C_R   0.489762 0.517588 0.145715 -0.020540
C13   C     C_R   0.663687 0.468050 0.812375 0.418675
C14   C     C_R   0.337374 0.541826 0.188040 0.418392
C15   C     C_R   0.659989 0.470526 0.740218 -0.232628
C16   C     C_R   0.340643 0.535103 0.260106 -0.232271
C17   C     C_R   0.505983 0.497888 0.709870 -0.114809
C18   C     C_R   0.494398 0.505583 0.290172 -0.114816
C19   C     C_R   0.492584 0.516273 0.070192 0.328252
C20   C     C_R   0.508151 0.497619 0.930001 0.327889
H1    H     H_    0.234319 0.543477 0.729777 0.189010
H2    H     H_    0.766192 0.460971 0.269865 0.188880
H3    H     H_    0.240171 0.541918 0.855680 0.218421
H4    H     H_    0.761018 0.469606 0.144001 0.218364
H5    H     H_    0.777152 0.449509 0.708033 0.186770
H6    H     H_    0.223324 0.554619 0.292461 0.186966
H7    H     H_    0.702373 0.009419 0.491694 0.182029
H8    H     H_    0.297626 0.990580 0.508301 0.182017
H9    H     H_    0.013976 0.382655 0.447512 0.193431
H10   H     H_    0.986024 0.617344 0.552488 0.193315
N1    N     N_R   0.641891 0.567331 0.962752 -0.085110
N2    N     N_R   0.358819 0.446693 0.037429 -0.085285
N3    N     N_R   0.634736 0.575547 0.031883 -0.128072
N4    N     N_R   0.365975 0.438471 0.968314 -0.127992
N5    N     N_2   0.950330 0.457950 0.481240 -0.173589
N6    N     N_2   0.049670 0.542050 0.518760 -0.173633
O1    O     O_R   0.389250 0.738570 0.504600 -0.612145
O2    O     O_R   0.610750 0.261430 0.495400 -0.612007
O3    O     O_R   0.678400 0.711620 0.492580 -0.627400
O4    O     O_R   0.321600 0.288380 0.507420 -0.627299
O5    O     O_R   0.355380 0.513500 0.607880 -0.619360
O6    O     O_R   0.644620 0.486500 0.392120 -0.619199
O7    O     O_R   0.644530 0.486550 0.595850 -0.629470
O8    O     O_R   0.355470 0.513450 0.404150 -0.629572
Zn1   Zn    Zn3+2 0.306930 0.517990 0.508030 0.954455
Zn2   Zn    Zn3+2 0.693070 0.482010 0.491970 0.954582
Cl1   Cl    Cl    0.858497 0.423441 0.847147 -0.610991
Cl2   Cl    Cl    0.142765 0.588709 0.153744 -0.610791

loop_
_geom_bond_atom_site_label_1
_geom_bond_atom_site_label_2
_ccdc_geom_bond_type
C8    H2    S    
N1    N3    A    
C15   C17   A    
C1    O1    A    
C11   C13   A    
C2    O2    A    
O6    Zn2   S    
C2    C4    S    
N5    N6    D    
H10   N6    S    
C20   N4    A    
C3    H7    S    
C5    O7    A    
N6    Zn1   S    
C6    O8    A    
O5    Zn1   S    
C9    C11   A    
C5    O5    A    
C10   C12   A    
O3    Zn2   S    
C19   N2    A    
C12   C19   S    
C16   C18   A    
C4    H8    S    
C12   C14   A    
C1    C3    S    
C13   C15   A    
C16   H6    S    
O4    Zn1   S    
C6    C18   S    
O7    Zn2   S    
C14   C16   A    
C11   C20   S    
O2    Zn2   S    
C15   H5    S    
C1    O3    A    
O1    Zn1   S    
C3    C4    D    
C2    O4    A    
C5    C17   S    
O8    Zn1   S    
C8    C10   A    
C6    O6    A    
C7    C9    A    
H9    N5    S    
C9    H3    S    
C14   Cl2   S    
C10   H4    S    
C7    H1    S    
N5    Zn2   S    
C13   Cl1   S    
C8    C18   A    
C19   N3    A    
C7    C17   A    
C20   N1    A    
N2    N4    A    
