data_mof_unit_53252.cif
_audit_creation_date              2012-12-10T17:13:36-0500
_audit_creation_method            fapswitch 2.2
_symmetry_space_group_name_H-M    P1
_symmetry_Int_Tables_number       1
_space_group_crystal_system       triclinic
_cell_length_a                    10.956183
_cell_length_b                    13.081164
_cell_length_c                    11.833382
_cell_angle_alpha                 100.775473
_cell_angle_beta                  94.192131
_cell_angle_gamma                 93.887486
_cell_volume                      1655.84034843

loop_
_atom_site_label
_atom_site_type_symbol
_atom_type_description
_atom_site_fract_x
_atom_site_fract_y
_atom_site_fract_z
_atom_type_partial_charge
C1    C     C_R   0.501148 0.299593 0.478065 0.818027
C2    C     C_3   0.877849 0.502608 0.494921 -0.230067
C3    C     C_3   0.945618 0.614360 0.542295 -0.323165
C4    C     C_3   0.910021 0.474360 0.362320 0.799628
C5    C     C_R   0.488986 0.815640 0.534849 -0.167927
C6    C     C_R   0.502587 0.186392 0.465407 -0.049364
C7    C     C_R   0.470346 0.014563 0.345434 -0.166932
C8    C     C_R   0.484566 0.122067 0.356423 -0.162767
C9    C     C_R   0.519430 0.141706 0.563487 -0.201404
C10   C     C_R   0.510089 0.033462 0.553164 0.084416
C11   C     C_R   0.479436 0.968467 0.443934 0.082610
C12   C     C_R   0.259781 0.498385 0.498296 0.920311
C13   C     C_R   0.457164 0.860076 0.436496 -0.116548
C14   C     C_R   0.517062 0.882099 0.644149 0.474750
C15   C     C_R   0.527471 0.990469 0.651649 -0.281331
C16   C     C_R   0.407323 0.379523 0.014977 0.304441
C17   C     C_R   0.413548 0.393755 0.138483 0.090565
C18   C     C_R   0.537092 0.553947 0.158632 0.113177
C19   C     C_R   0.533560 0.541426 0.035249 -0.058633
C20   C     C_R   0.465517 0.455952 0.963296 -0.046656
C21   C     C_R   0.461401 0.446936 0.840219 0.088943
C22   C     C_R   0.597221 0.598788 0.861107 0.103612
C23   C     C_R   0.496214 0.700951 0.522078 0.886290
C24   C     C_R   0.603756 0.608886 0.981533 -0.216530
C25   C     C_R   0.740101 0.502342 0.499696 0.907348
C26   C     C_3   0.071598 0.415473 0.561282 0.174127
C27   C     C_3   0.928888 0.415608 0.558805 0.239799
C28   C     C_3   0.086944 0.608536 0.553664 0.252903
C29   C     C_3   0.054650 0.465217 0.364353 -0.357874
C30   C     C_3   0.121135 0.498552 0.492920 -0.205335
Cu1   Cu    Cu3+1 0.509350 0.507730 0.615930 0.970273
Cu2   Cu    Cu3+1 0.490650 0.492270 0.384070 1.002977
H1    H     H_    0.926068 0.661152 0.475927 0.246911
H2    H     H_    0.454327 0.969337 0.258876 0.128162
H3    H     H_    0.552901 0.041483 0.734459 0.160981
H4    H     H_    0.480107 0.154416 0.279343 0.141604
H5    H     H_    0.537987 0.191000 0.648387 0.165282
H6    H     H_    0.409038 0.381562 0.784346 0.159335
H7    H     H_    0.094500 0.337695 0.513482 0.072012
H8    H     H_    0.669077 0.668178 0.032115 0.223336
H9    H     H_    0.897292 0.340969 0.499364 0.142742
H10   H     H_    0.119176 0.617736 0.647155 0.138365
H11   H     H_    0.065274 0.379877 0.341748 0.196257
N1    N     N_R   0.523430 0.519360 0.790130 -0.237515
N2    N     N_R   0.476570 0.480640 0.209880 -0.262151
O1    O     O_R   0.506640 0.354460 0.582000 -0.601341
O2    O     O_R   0.490840 0.341410 0.386200 -0.583276
O3    O     O_R   0.325590 0.506510 0.597900 -0.556221
O4    O     O_R   0.309790 0.493450 0.402100 -0.544310
O5    O     O_R   0.509160 0.658590 0.613800 -0.586063
O6    O     O_R   0.493360 0.645540 0.418000 -0.593009
O7    O     O_R   0.690210 0.506550 0.597900 -0.604854
O8    O     O_R   0.674410 0.493490 0.402100 -0.566835
O9    O     O_3   0.129141 0.436782 0.674923 -0.569439
C31   C     C_3   0.152770 0.344365 0.713243 -0.290726
H12   H     H_    0.223038 0.302806 0.663564 0.160539
H13   H     H_    0.067499 0.292198 0.709584 0.187073
H14   H     H_    0.190122 0.368367 0.803887 0.197892
O10   O     O_3   0.853105 0.547585 0.300829 -0.614173
C32   C     C_3   0.922612 0.622227 0.254571 -0.408747
H15   H     H_    0.000183 0.663815 0.313929 0.208395
H16   H     H_    0.949727 0.587021 0.168286 0.198213
H17   H     H_    0.862661 0.683915 0.239112 0.208584
O11   O     O_3   0.144930 0.687077 0.502993 -0.563136
C33   C     C_3   0.183803 0.777077 0.587275 -0.270321
H18   H     H_    0.259166 0.760380 0.647532 0.151286
H19   H     H_    0.106779 0.807692 0.635813 0.174799
H20   H     H_    0.219643 0.839368 0.543645 0.204723
C34   C     C_2   0.385235 0.797421 0.331816 0.441268
H21   H     H_    0.403231 0.807181 0.245703 0.103071
O12   O     O_2   0.299756 0.736199 0.341438 -0.547705
O13   O     O_3   0.542327 0.839875 0.741569 -0.538564
C35   C     C_3   0.470107 0.880454 0.831013 -0.248702
H22   H     H_    0.375074 0.892451 0.798667 0.114209
H23   H     H_    0.515852 0.954416 0.883036 0.175063
H24   H     H_    0.462200 0.823641 0.889487 0.198008
C36   C     C_2   0.676000 0.674326 0.814968 0.420099
H25   H     H_    0.687417 0.663417 0.725348 0.171595
O14   O     O_2   0.731432 0.750608 0.877980 -0.535944
O15   O     O_3   0.364870 0.284116 0.943939 -0.617464
C37   C     C_3   0.239837 0.255338 0.954468 -0.357099
H26   H     H_    0.186272 0.322664 0.986342 0.206486
H27   H     H_    0.231160 0.195900 0.009519 0.186105
H28   H     H_    0.196979 0.215006 0.868623 0.173526
C38   C     C_2   0.360475 0.306558 0.186081 0.490904
H29   H     H_    0.385470 0.228673 0.153118 0.015449
O16   O     O_2   0.281793 0.318102 0.253834 -0.538802
C39   C     C_2   0.609702 0.645318 0.232051 0.385221
H30   H     H_    0.665448 0.637000 0.307722 0.169769
O17   O     O_2   0.604981 0.733007 0.211420 -0.612400
O18   O     O_3   0.873535 0.397613 0.659728 -0.561098
C40   C     C_3   0.904478 0.472911 0.761585 -0.144017
H31   H     H_    0.981896 0.529767 0.758291 0.164998
H32   H     H_    0.929538 0.431719 0.832734 0.164103
H33   H     H_    0.823155 0.514742 0.785421 0.138401
C41   C     C_2   0.900785 0.682684 0.645994 0.289198
H34   H     H_    0.925377 0.673581 0.733039 0.084308
O19   O     O_2   0.842248 0.756644 0.633097 -0.524525
C42   C     C_2   0.117923 0.502864 0.268257 0.479670
H35   H     H_    0.166312 0.579250 0.283006 0.177234
O20   O     O_2   0.115624 0.447722 0.172610 -0.594117
O21   O     O_3   0.851498 0.372200 0.316217 -0.630581
C43   C     C_3   0.822566 0.352994 0.195329 -0.179147
H36   H     H_    0.898369 0.380385 0.148574 0.195067
H37   H     H_    0.737416 0.389594 0.173942 0.184071
H38   H     H_    0.804485 0.267543 0.164195 0.158303

loop_
_geom_bond_atom_site_label_1
_geom_bond_atom_site_label_2
_ccdc_geom_bond_type
C31   H12   S    
Cu2   N2    S    
C19   C20   A    
Cu1   O7    S    
C12   O3    A    
C35   H24   S    
C6    C9    A    
C12   O4    A    
C7    C8    A    
C38   H29   S    
C7    C11   A    
C26   C27   S    
C32   H17   S    
C17   C38   S    
C3    C28   S    
C17   N2    A    
C10   C15   A    
C8    H4    S    
O15   C37   S    
C1    O1    A    
C3    H1    S    
C32   H16   S    
C18   C19   A    
C35   H22   S    
C34   O12   D    
C22   N1    A    
C21   H6    S    
C42   H35   S    
C16   C17   A    
C33   H19   S    
Cu1   O1    S    
C41   O19   D    
C27   O18   S    
C3    C41   S    
C2    C25   S    
C9    C10   A    
C5    C13   A    
C4    C29   S    
C36   O14   D    
O10   C32   S    
C29   H11   S    
C35   H23   S    
C34   H21   S    
C26   O9    S    
C15   H3    S    
C37   H27   S    
C37   H26   S    
C38   O16   D    
Cu1   N1    S    
C29   C42   S    
C1    C6    S    
O18   C40   S    
C1    O2    A    
C23   O5    A    
C6    C8    A    
C36   H25   S    
C40   H33   S    
C18   C39   S    
C4    O21   S    
C32   H15   S    
C16   O15   S    
C2    C4    S    
Cu2   O6    S    
C29   C30   S    
C21   N1    A    
C27   H9    S    
C23   O6    A    
Cu1   Cu2   S    
C5    C23   S    
C16   C20   A    
C33   H20   S    
C41   H34   S    
C9    H5    S    
C43   H37   S    
C39   H30   S    
C5    C14   A    
C2    C27   S    
C28   O11   S    
C42   O20   D    
C39   O17   D    
C26   C30   S    
Cu1   O3    S    
C31   H13   S    
Cu2   O2    S    
C22   C24   A    
Cu1   O5    S    
C18   N2    A    
Cu2   O8    S    
C37   H28   S    
C7    H2    S    
O9    C31   S    
C12   C30   S    
C14   O13   S    
C22   C36   S    
C25   O8    A    
O13   C35   S    
O11   C33   S    
C28   C30   S    
C2    C3    S    
C25   O7    A    
C11   C13   A    
C40   H32   S    
C13   C34   S    
C4    O10   S    
C28   H10   S    
C40   H31   S    
C24   H8    S    
C19   C24   A    
C43   H38   S    
O21   C43   S    
C26   H7    S    
Cu2   O4    S    
C10   C11   A    
C20   C21   A    
C33   H18   S    
C31   H14   S    
C43   H36   S    
C14   C15   A    
