data_mof_unit_18924.cif
_audit_creation_date              2012-12-11T14:01:25-0500
_audit_creation_method            fapswitch 2.2
_symmetry_space_group_name_H-M    P1
_symmetry_Int_Tables_number       1
_space_group_crystal_system       triclinic
_cell_length_a                    19.314575
_cell_length_b                    11.188833
_cell_length_c                    19.150679
_cell_angle_alpha                 90.341445
_cell_angle_beta                  90.253833
_cell_angle_gamma                 89.953897
_cell_volume                      4138.49104388

loop_
_atom_site_label
_atom_site_type_symbol
_atom_type_description
_atom_site_fract_x
_atom_site_fract_y
_atom_site_fract_z
_atom_type_partial_charge
C1    C     C_R   0.276286 0.033483 0.855815 0.566694
C2    C     C_R   0.723121 0.029627 0.143274 0.583893
C3    C     C_R   0.775660 0.535211 0.855198 0.558974
C4    C     C_R   0.215895 0.511827 0.139460 0.597347
C5    C     C_R   0.491486 0.046740 0.070153 -0.064715
C6    C     C_R   0.513257 0.042235 0.926846 -0.052642
C7    C     C_R   0.992652 0.546783 0.069350 -0.066435
C8    C     C_R   0.014468 0.541638 0.926059 -0.054283
C9    C     C_R   0.993301 0.652396 0.031496 0.246180
C10   C     C_R   0.002240 0.649075 0.959266 0.275115
C11   C     C_R   0.492168 0.152610 0.032566 0.244623
C12   C     C_R   0.501273 0.149646 0.960332 0.273032
C13   C     C_2   0.241286 0.591171 0.918113 -0.099241
C14   C     C_2   0.752211 0.575590 0.083963 -0.122584
C15   C     C_2   0.742782 0.096667 0.919875 -0.098800
C16   C     C_2   0.253088 0.070943 0.085349 -0.121050
C17   C     C_2   0.240236 0.551657 0.070661 0.252772
C18   C     C_2   0.771071 0.536423 0.930924 0.231955
C19   C     C_2   0.746335 0.066409 0.073673 0.249959
C20   C     C_2   0.271958 0.032959 0.931734 0.230679
C21   C     C_2   0.255667 0.466235 0.021506 0.237032
C22   C     C_2   0.709086 0.544264 0.962880 0.239345
C23   C     C_2   0.760008 0.978286 0.025265 0.242707
C24   C     C_2   0.210062 0.040189 0.964000 0.244709
C25   C     C_2   0.268972 0.494397 0.946099 0.221227
C26   C     C_2   0.700175 0.543582 0.040017 0.265763
C27   C     C_2   0.771274 0.001917 0.949048 0.219239
C28   C     C_2   0.201197 0.038811 0.041220 0.266934
C29   C     C_2   0.504811 0.834362 0.582942 0.301624
C30   C     C_2   0.497800 0.829714 0.417747 0.306377
C31   C     C_2   0.002257 0.328785 0.582382 0.302943
C32   C     C_2   0.995478 0.335111 0.417390 0.303273
C33   C     C_2   0.522251 0.757653 0.468343 0.295058
C34   C     C_2   0.488657 0.752736 0.533722 0.288126
C35   C     C_2   0.010858 0.252502 0.465864 0.288065
C36   C     C_2   0.977361 0.257333 0.531328 0.294558
C37   C     C_2   0.248307 0.587484 0.579489 0.215389
C38   C     C_2   0.752396 0.564274 0.411903 0.221631
C39   C     C_2   0.747493 0.063973 0.587813 0.220581
C40   C     C_2   0.251962 0.087420 0.420097 0.217847
C41   C     C_2   0.246224 0.591719 0.418510 0.325794
C42   C     C_2   0.750481 0.595162 0.585502 0.361694
C43   C     C_2   0.749293 0.095688 0.414629 0.362891
C44   C     C_2   0.254027 0.089944 0.581048 0.324758
C45   C     C_R   0.471087 0.821148 0.853222 0.513223
C46   C     C_R   0.530571 0.821238 0.145994 0.534528
C47   C     C_R   0.971392 0.321114 0.852998 0.510128
C48   C     C_R   0.030780 0.321210 0.145829 0.531389
C49   C     C_2   0.195791 0.590254 0.466777 0.301502
C50   C     C_2   0.784522 0.546861 0.531732 0.313771
C51   C     C_2   0.715499 0.046733 0.467976 0.312551
C52   C     C_2   0.304837 0.089257 0.533020 0.302844
C53   C     C_2   0.206314 0.642216 0.533407 0.274813
C54   C     C_2   0.786917 0.608786 0.466610 0.258280
C55   C     C_2   0.712888 0.108497 0.533438 0.255320
C56   C     C_2   0.294570 0.141036 0.466417 0.275908
C57   C     C_R   0.260212 0.639110 0.850597 0.521781
C58   C     C_R   0.739064 0.635563 0.150127 0.552978
C59   C     C_R   0.760534 0.140402 0.851098 0.519808
C60   C     C_R   0.239320 0.134528 0.150506 0.556900
C61   C     C_R   0.272989 0.044209 0.648932 0.549485
C62   C     C_R   0.729346 0.050048 0.347405 0.536934
C63   C     C_R   0.770701 0.549554 0.652483 0.539932
C64   C     C_R   0.227146 0.544973 0.350793 0.551694
C65   C     C_R   0.469602 0.823614 0.649085 0.544596
C66   C     C_R   0.532401 0.823055 0.351783 0.555739
C67   C     C_R   0.967823 0.322666 0.648390 0.557779
C68   C     C_R   0.030665 0.323941 0.351146 0.542395
C69   C     C_R   0.261389 0.641656 0.645743 0.583569
C70   C     C_R   0.739543 0.636441 0.351818 0.596332
C71   C     C_R   0.760481 0.136295 0.648101 0.604199
C72   C     C_R   0.238656 0.141951 0.354221 0.577152
C73   C     C_R   0.502709 0.826835 0.073734 -0.053722
C74   C     C_R   0.500124 0.825233 0.925570 -0.026841
C75   C     C_R   0.003637 0.326678 0.073247 -0.053962
C76   C     C_R   0.001174 0.325089 0.925042 -0.027901
C77   C     C_R   0.500616 0.935729 0.036329 -0.074796
C78   C     C_R   0.505812 0.934000 0.962442 -0.065045
C79   C     C_R   0.001695 0.435573 0.035741 -0.078103
C80   C     C_R   0.006965 0.433692 0.961854 -0.068375
C81   C     C_R   0.500334 0.717589 0.963585 0.303094
C82   C     C_R   0.496861 0.718071 0.036236 0.292121
C83   C     C_R   0.002059 0.217485 0.962977 0.302934
C84   C     C_R   0.998448 0.217839 0.035656 0.292722
Cr1   Cr    Cr6+3 0.230530 0.836340 0.748870 1.048055
Cr2   Cr    Cr6+3 0.769470 0.836340 0.251130 1.080543
Cr3   Cr    Cr6+3 0.730530 0.336340 0.748870 1.061983
Cr4   Cr    Cr6+3 0.269470 0.336340 0.251130 1.064563
Cr5   Cr    Cr6+3 0.387420 0.989430 0.750820 1.082868
Cr6   Cr    Cr6+3 0.612580 0.989430 0.249180 1.079013
Cr7   Cr    Cr6+3 0.887420 0.489430 0.750820 1.099966
Cr8   Cr    Cr6+3 0.112580 0.489430 0.249180 1.057728
Cr9   Cr    Cr6+3 0.385640 0.677860 0.749230 1.108130
Cr10  Cr    Cr6+3 0.614360 0.677860 0.250770 1.111979
Cr11  Cr    Cr6+3 0.885640 0.177860 0.749230 1.105351
Cr12  Cr    Cr6+3 0.114360 0.177860 0.250770 1.111805
H1    H     H_    0.479438 0.052824 0.125080 0.162263
H2    H     H_    0.526295 0.044888 0.872053 0.158762
H3    H     H_    0.980629 0.553321 0.124256 0.162784
H4    H     H_    0.027455 0.543920 0.871235 0.159358
H5    H     H_    0.200403 0.638347 0.945688 0.120728
H6    H     H_    0.805195 0.580688 0.067763 0.121539
H7    H     H_    0.702804 0.145820 0.947641 0.120094
H8    H     H_    0.306263 0.073665 0.069540 0.120125
O1    O     O_R   0.215090 0.709860 0.828130 -0.550219
O2    O     O_R   0.784910 0.709860 0.171870 -0.522914
O3    O     O_R   0.715090 0.209860 0.828130 -0.554233
O4    O     O_R   0.284910 0.209860 0.171870 -0.518806
O5    O     O_R   0.445660 0.919250 0.676780 -0.492866
O6    O     O_R   0.554340 0.919250 0.323220 -0.483110
O7    O     O_R   0.945660 0.419250 0.676780 -0.480547
O8    O     O_R   0.054340 0.419250 0.323220 -0.493359
O9    O     O_R   0.456260 0.718170 0.670000 -0.479665
O10   O     O_R   0.543740 0.718170 0.330000 -0.513072
O11   O     O_R   0.956260 0.218170 0.670000 -0.502052
O12   O     O_R   0.043740 0.218170 0.330000 -0.490573
O13   O     O_R   0.320940 0.626760 0.674370 -0.429405
O14   O     O_R   0.679060 0.626760 0.325630 -0.434233
O15   O     O_R   0.820940 0.126760 0.674370 -0.422205
O16   O     O_R   0.179060 0.126760 0.325630 -0.441173
O17   O     O_3   0.334530 0.834540 0.749640 -0.298033
O18   O     O_3   0.665470 0.834540 0.250360 -0.277252
O19   O     O_3   0.834530 0.334540 0.749640 -0.293644
O20   O     O_3   0.165470 0.334540 0.250360 -0.289296
O21   O     O_R   0.236990 0.958390 0.823710 -0.525481
O22   O     O_R   0.763010 0.958390 0.176290 -0.511273
O23   O     O_R   0.736990 0.458390 0.823710 -0.530117
O24   O     O_R   0.263010 0.458390 0.176290 -0.515772
O25   O     O_R   0.332380 0.074750 0.830850 -0.485063
O26   O     O_R   0.667620 0.074750 0.169150 -0.523938
O27   O     O_R   0.832380 0.574750 0.830850 -0.485377
O28   O     O_R   0.167620 0.574750 0.169150 -0.524632
O29   O     O_R   0.445800 0.917770 0.825070 -0.516316
O30   O     O_R   0.554200 0.917770 0.174930 -0.531223
O31   O     O_R   0.945800 0.417770 0.825070 -0.516583
O32   O     O_R   0.054200 0.417770 0.174930 -0.537712
O33   O     O_R   0.456410 0.716580 0.829970 -0.492363
O34   O     O_R   0.543590 0.716580 0.170030 -0.457938
O35   O     O_R   0.956410 0.216580 0.829970 -0.495758
O36   O     O_R   0.043590 0.216580 0.170030 -0.457021
O37   O     O_R   0.321080 0.625290 0.822650 -0.490062
O38   O     O_R   0.678920 0.625290 0.177350 -0.470868
O39   O     O_R   0.821080 0.125290 0.822650 -0.490709
O40   O     O_R   0.178920 0.125290 0.177350 -0.468001
O41   O     O_R   0.214930 0.711450 0.668160 -0.497362
O42   O     O_R   0.785070 0.711450 0.331840 -0.499043
O43   O     O_R   0.714930 0.211450 0.668160 -0.494824
O44   O     O_R   0.285070 0.211450 0.331840 -0.501692
O45   O     O_R   0.236850 0.959870 0.675420 -0.504873
O46   O     O_R   0.763150 0.959870 0.324580 -0.484613
O47   O     O_R   0.736850 0.459870 0.675420 -0.477971
O48   O     O_R   0.263150 0.459870 0.324580 -0.508373
O49   O     O_R   0.332230 0.076350 0.670880 -0.474311
O50   O     O_R   0.667770 0.076350 0.329120 -0.477834
O51   O     O_R   0.832230 0.576350 0.670880 -0.475075
O52   O     O_R   0.167770 0.576350 0.329120 -0.475684
O53   O     O_3   0.505942 0.609700 0.928702 -0.515600
C85   C     C_3   0.442905 0.546874 0.931842 0.005368
H9    H     H_    0.396800 0.604829 0.940751 0.088458
H10   H     H_    0.447105 0.479042 0.972942 0.215757
H11   H     H_    0.434706 0.500343 0.881247 0.229862
O54   O     O_3   0.493762 0.608397 0.069385 -0.487264
C86   C     C_3   0.428620 0.596236 0.101588 -0.111281
H12   H     H_    0.385821 0.606311 0.063268 0.094646
H13   H     H_    0.422246 0.660708 0.145276 0.102529
H14   H     H_    0.424682 0.505653 0.124164 0.191812
O55   O     O_3   0.008317 0.109857 0.927932 -0.515019
C87   C     C_3   0.945667 0.045942 0.931078 0.005688
H15   H     H_    0.899307 0.103129 0.940257 0.092389
H16   H     H_    0.950392 0.977905 0.971998 0.217032
H17   H     H_    0.937496 0.999789 0.880358 0.228119
O56   O     O_3   0.995520 0.108060 0.068731 -0.484993
C88   C     C_3   0.930144 0.095053 0.100381 -0.111920
H18   H     H_    0.887475 0.110701 0.062597 0.090241
H19   H     H_    0.924659 0.154932 0.146283 0.110125
H20   H     H_    0.924997 0.002608 0.119856 0.189702
Cl1   Cl    Cl    0.112171 0.530634 0.455252 -0.463586
Cl2   Cl    Cl    0.831173 0.411915 0.537985 -0.461260
Cl3   Cl    Cl    0.669260 0.911457 0.460747 -0.458634
Cl4   Cl    Cl    0.389043 0.032326 0.545204 -0.462320
Cl5   Cl    Cl    0.153830 0.769994 0.549231 -0.415819
Cl6   Cl    Cl    0.834380 0.744098 0.465854 -0.409908
Cl7   Cl    Cl    0.666032 0.244693 0.534594 -0.407885
Cl8   Cl    Cl    0.348256 0.266937 0.450714 -0.414470
O57   O     O_3   0.310764 0.641865 0.434428 -0.528735
C89   C     C_3   0.360499 0.619100 0.382178 -0.001986
H21   H     H_    0.409285 0.662443 0.397085 0.172479
H22   H     H_    0.344679 0.657184 0.331002 0.061170
H23   H     H_    0.372409 0.522127 0.378445 0.199686
O58   O     O_3   0.709667 0.696784 0.576392 -0.483494
C90   C     C_3   0.673001 0.726891 0.637536 -0.045826
H24   H     H_    0.708683 0.751394 0.681074 0.098733
H25   H     H_    0.637248 0.653763 0.652852 0.127743
H26   H     H_    0.641751 0.806740 0.626567 0.181247
O59   O     O_3   0.789716 0.197641 0.424494 -0.480236
C91   C     C_3   0.827217 0.226890 0.363939 -0.052011
H27   H     H_    0.858222 0.306945 0.375533 0.183183
H28   H     H_    0.792141 0.250715 0.319929 0.092253
H29   H     H_    0.863264 0.153559 0.348984 0.119597
O60   O     O_3   0.189247 0.138695 0.564767 -0.529428
C92   C     C_3   0.139548 0.117732 0.617117 0.002974
H30   H     H_    0.155374 0.157448 0.668122 0.072257
H31   H     H_    0.127686 0.020923 0.621262 0.202595
H32   H     H_    0.090737 0.160718 0.602014 0.172708
Cl9   Cl    Cl    0.287478 0.447932 0.563042 -0.470065
Cl10  Cl    Cl    0.705522 0.429169 0.415741 -0.436956
Cl11  Cl    Cl    0.793926 0.928437 0.583633 -0.428962
Cl12  Cl    Cl    0.212124 0.948549 0.435670 -0.473399
Cl13  Cl    Cl    0.985813 0.786455 0.077081 -0.758600
Cl14  Cl    Cl    0.987125 0.771542 0.905744 -0.693900
Cl15  Cl    Cl    0.484167 0.286471 0.078514 -0.752475
Cl16  Cl    Cl    0.487159 0.272973 0.907201 -0.697179
O61   O     O_3   0.260582 0.348138 0.042553 -0.595250
C93   C     C_3   0.328284 0.305769 0.029398 -0.029841
H33   H     H_    0.366890 0.377021 0.021072 0.165016
H34   H     H_    0.328098 0.243146 0.984435 0.197403
H35   H     H_    0.347990 0.257656 0.074858 0.195623
O62   O     O_3   0.650481 0.556667 0.921852 -0.551131
C94   C     C_3   0.618642 0.443684 0.915103 0.016368
H36   H     H_    0.582131 0.430194 0.958664 0.238449
H37   H     H_    0.655508 0.367021 0.913661 0.105625
H38   H     H_    0.589067 0.442039 0.865339 0.199714
O63   O     O_3   0.763071 0.860588 0.047527 -0.584941
C95   C     C_3   0.829308 0.813072 0.032948 -0.031632
H39   H     H_    0.869019 0.881020 0.021536 0.164246
H40   H     H_    0.826178 0.747840 0.989357 0.192385
H41   H     H_    0.849596 0.766668 0.078774 0.198024
O64   O     O_3   0.151331 0.052693 0.923199 -0.547607
C96   C     C_3   0.119567 0.939659 0.916371 0.015392
H42   H     H_    0.083039 0.925945 0.959926 0.237718
H43   H     H_    0.156507 0.863116 0.914818 0.105235
H44   H     H_    0.090064 0.938117 0.866569 0.199368
O65   O     O_3   0.307037 0.417305 0.904181 -0.580469
C97   C     C_3   0.260905 0.347096 0.863855 -0.076152
H45   H     H_    0.225917 0.402341 0.830897 0.102721
H46   H     H_    0.229758 0.287379 0.897658 0.147845
H47   H     H_    0.291665 0.291143 0.827634 0.181355
O66   O     O_3   0.632682 0.539398 0.063690 -0.480654
C98   C     C_3   0.623427 0.433278 0.101857 -0.006855
H48   H     H_    0.662297 0.421851 0.143806 0.076276
H49   H     H_    0.624043 0.353778 0.066794 0.155561
H50   H     H_    0.573520 0.440045 0.129570 0.232218
O67   O     O_3   0.808090 0.922185 0.907596 -0.580051
C99   C     C_3   0.760897 0.850724 0.869294 -0.079662
H51   H     H_    0.726363 0.904750 0.835209 0.101578
H52   H     H_    0.729259 0.794504 0.904648 0.147185
H53   H     H_    0.790801 0.791209 0.834315 0.178034
O68   O     O_3   0.133631 0.034947 0.064731 -0.479185
C100  C     C_3   0.124565 0.930220 0.104226 -0.010100
H54   H     H_    0.163433 0.920528 0.146398 0.073846
H55   H     H_    0.125449 0.849606 0.070047 0.156839
H56   H     H_    0.074581 0.937580 0.131788 0.231301
O69   O     O_3   0.248889 0.672895 0.056404 -0.664653
C101  C     C_3   0.269625 0.738801 0.116392 -0.155056
H57   H     H_    0.308047 0.690919 0.148939 0.101879
H58   H     H_    0.224790 0.760304 0.149496 0.159957
H59   H     H_    0.293213 0.824282 0.100305 0.117329
O70   O     O_3   0.829304 0.496234 0.966037 -0.624415
C102  C     C_3   0.830831 0.370400 0.960701 -0.120424
H60   H     H_    0.847488 0.341779 0.908047 0.147868
H61   H     H_    0.779406 0.330267 0.970554 0.147113
H62   H     H_    0.867640 0.334571 0.999723 0.127105
O71   O     O_3   0.753390 0.186882 0.057451 -0.668099
C103  C     C_3   0.772197 0.255745 0.116886 -0.169457
H63   H     H_    0.815411 0.215472 0.146634 0.085223
H64   H     H_    0.727997 0.266990 0.152698 0.149036
H65   H     H_    0.789204 0.345243 0.100184 0.129877
O72   O     O_3   0.330209 0.992067 0.966453 -0.625938
C104  C     C_3   0.330584 0.866094 0.961888 -0.126426
H66   H     H_    0.345799 0.836136 0.908970 0.148237
H67   H     H_    0.279246 0.827059 0.973793 0.143904
H68   H     H_    0.368131 0.830279 0.000124 0.121390
Cl17  Cl    Cl    0.591125 0.654202 0.460682 -0.417212
Cl18  Cl    Cl    0.431198 0.630276 0.542172 -0.426144
Cl19  Cl    Cl    0.068097 0.129478 0.456798 -0.425965
Cl20  Cl    Cl    0.908807 0.153519 0.538821 -0.419840
O73   O     O_3   0.438830 0.898973 0.428986 -0.522144
C105  C     C_3   0.406255 0.933893 0.366051 -0.037380
H69   H     H_    0.352393 0.958098 0.377501 0.170491
H70   H     H_    0.403079 0.860200 0.326885 0.044611
H71   H     H_    0.432298 0.013584 0.344004 0.164318
O74   O     O_3   0.548466 0.929918 0.565521 -0.536051
C106  C     C_3   0.562112 0.009574 0.621543 -0.011280
H72   H     H_    0.607378 0.063673 0.608910 0.168294
H73   H     H_    0.575316 0.963110 0.671044 0.041137
H74   H     H_    0.518679 0.073538 0.628329 0.214176
O75   O     O_3   0.952345 0.431413 0.435464 -0.533538
C107  C     C_3   0.938179 0.509888 0.379530 -0.011739
H75   H     H_    0.892846 0.563862 0.392336 0.168641
H76   H     H_    0.924743 0.462429 0.330090 0.034808
H77   H     H_    0.981400 0.573964 0.372544 0.212581
O76   O     O_3   0.060766 0.398831 0.571076 -0.522061
C108  C     C_3   0.093575 0.434526 0.633957 -0.035764
H78   H     H_    0.147063 0.460370 0.622163 0.171120
H79   H     H_    0.097755 0.360810 0.672506 0.052867
H80   H     H_    0.066987 0.513496 0.656857 0.164871

loop_
_geom_bond_atom_site_label_1
_geom_bond_atom_site_label_2
_ccdc_geom_bond_type
C16   C28   D    
C71   O43   A    
C40   Cl12  S    
Cr11  O39   S    
O53   C85   S    
C37   C69   S    
Cr2   O22   S    
C108  H78   S    
C69   O41   A    
C92   H30   S    
Cr1   O21   S    
C35   C36   S    
C42   C50   D    
C1    C20   S    
Cr4   O20   S    
C102  H62   S    
C95   H39   S    
C20   O72   S    
Cr7   O31   S    
Cr3   O23   S    
C81   C82   A    
Cr10  O10   S    
O71   C103  S    
C4    O28   A    
Cr2   O2    S    
C77   C78   A    
O56   C88   S    
C31   C67   S    
C34   Cl18  S    
C17   O69   S    
O74   C106  S    
O58   C90   S    
Cr3   O43   S    
C64   O48   A    
C3    O27   A    
C6    H2    S    
O76   C108  S    
C86   H13   S    
C1    O21   A    
C47   C76   S    
C5    C11   A    
C96   H44   S    
C1    O25   A    
Cr2   O46   S    
Cr9   O33   S    
C6    C12   A    
O69   C101  S    
Cr6   O30   S    
C3    O23   A    
C75   C84   A    
C6    C78   A    
Cr7   O27   S    
O67   C99   S    
Cr5   O5    S    
Cr5   O25   S    
C99   H51   S    
C3    C18   S    
C43   O59   S    
C16   C60   S    
Cr7   O7    S    
C26   O66   S    
C67   O11   A    
C85   H11   S    
C11   Cl15  S    
Cr5   O49   S    
C10   Cl14  S    
C87   H17   S    
C39   C55   D    
O57   C89   S    
C98   H48   S    
Cr11  O11   S    
C29   O74   S    
C40   C56   D    
C105  H71   S    
C39   Cl11  S    
Cr2   O18   S    
C101  H58   S    
C54   Cl6   S    
Cr1   O17   S    
C70   O42   A    
C23   C27   S    
Cr6   O50   S    
C38   Cl10  S    
O65   C97   S    
C31   C36   D    
C51   C55   S    
C104  H66   S    
C60   O4    A    
C48   O32   A    
C46   O34   A    
C32   C68   S    
C37   C53   D    
C44   C52   D    
C87   H16   S    
C22   O62   S    
C25   O65   S    
Cr7   O19   S    
O73   C105  S    
C5    C77   A    
C106  H74   S    
C85   H10   S    
Cr4   O48   S    
C48   C75   S    
C13   C25   D    
Cr8   O32   S    
C97   H46   S    
C92   H31   S    
C59   O39   A    
C91   H29   S    
C51   Cl3   S    
Cr2   O42   S    
C76   C83   A    
C41   C49   D    
O64   C96   S    
C16   H8    S    
C65   O9    A    
C49   Cl1   S    
C59   O3    A    
C88   H19   S    
Cr4   O44   S    
C108  H79   S    
C14   C58   S    
C100  H55   S    
C81   O53   S    
C57   O1    A    
C48   O36   A    
C90   H24   S    
Cr10  O38   S    
C107  H77   S    
C76   C80   A    
C36   Cl20  S    
C86   H14   S    
Cr5   O29   S    
C12   Cl16  S    
O63   C95   S    
C98   H49   S    
C9    Cl13  S    
O55   C87   S    
C4    O24   A    
C31   O76   S    
C103  H63   S    
Cr1   O1    S    
C101  H59   S    
Cr11  O15   S    
C39   C71   S    
C72   O44   A    
C83   O55   S    
C29   C34   D    
C66   O6    A    
O59   C91   S    
C61   O49   A    
C45   C74   S    
C58   O2    A    
C97   H47   S    
C107  H76   S    
C19   C23   D    
C90   H25   S    
Cr7   O51   S    
C96   H42   S    
C53   Cl5   S    
Cr12  O40   S    
C45   O29   A    
C42   O58   S    
C15   C27   D    
C83   C84   A    
C38   C54   D    
C103  H64   S    
O61   C93   S    
C65   O5    A    
C72   O16   A    
Cr9   O17   S    
C45   O33   A    
C33   C34   S    
C100  H54   S    
C41   O57   S    
Cr8   O52   S    
C19   O71   S    
Cr9   O9    S    
C14   C26   D    
C63   O47   A    
C30   C66   S    
C7    H3    S    
C68   O12   A    
C29   C65   S    
C4    C17   S    
Cr10  O18   S    
Cr12  O20   S    
C67   O7    A    
C38   C70   S    
C23   O63   S    
C44   O60   S    
C40   C72   S    
C104  H67   S    
O75   C107  S    
C22   C26   S    
C85   H9    S    
Cr10  O34   S    
C92   H32   S    
C21   O61   S    
C97   H45   S    
Cr6   O6    S    
C74   C81   A    
C13   H5    S    
C102  H60   S    
C66   O10   A    
C95   H41   S    
C2    O22   A    
C73   C82   A    
C50   C54   S    
Cr9   O37   S    
O68   C100  S    
C7    C79   A    
O54   C86   S    
C9    C10   A    
C88   H20   S    
Cr11  O19   S    
C93   H33   S    
C94   H36   S    
C21   C25   S    
O66   C98   S    
C87   H15   S    
C100  H56   S    
C15   C59   S    
C58   O38   A    
C62   O46   A    
C30   C33   D    
Cr8   O28   S    
C2    C19   S    
C18   C22   D    
C37   Cl9   S    
C91   H28   S    
Cr12  O16   S    
C8    C10   A    
Cr8   O8    S    
C32   C35   D    
C24   C28   S    
C5    H1    S    
C91   H27   S    
C84   O56   S    
C93   H35   S    
C95   H40   S    
Cr12  O36   S    
C11   C12   A    
Cr3   O3    S    
C82   O54   S    
C28   O68   S    
C46   O30   A    
C71   O15   A    
C44   C61   S    
C108  H80   S    
C56   Cl8   S    
C64   O52   A    
Cr11  O35   S    
Cr9   O13   S    
C99   H53   S    
C57   O37   A    
Cr6   O18   S    
C107  H75   S    
C33   Cl17  S    
C101  H57   S    
Cr8   O20   S    
C52   Cl4   S    
C8    H4    S    
C93   H34   S    
C63   O51   A    
C96   H43   S    
C102  H61   S    
C60   O40   A    
C94   H38   S    
Cr3   O19   S    
Cr10  O14   S    
C89   H23   S    
C43   C51   D    
O62   C94   S    
Cr5   O17   S    
C61   O45   A    
O60   C92   S    
C103  H65   S    
C49   C53   S    
Cr3   O47   S    
Cr1   O41   S    
C69   O13   A    
C2    O26   A    
C99   H52   S    
C27   O67   S    
O70   C102  S    
C98   H50   S    
C105  H70   S    
C47   O31   A    
C46   C73   S    
C30   O73   S    
C89   H22   S    
Cr1   O45   S    
C18   O70   S    
C86   H12   S    
C14   H6    S    
C50   Cl2   S    
C32   O75   S    
C88   H18   S    
C79   C80   A    
Cr6   O26   S    
Cr4   O4    S    
C7    C9    A    
C70   O14   A    
C13   C57   S    
O72   C104  S    
C73   C77   A    
Cr4   O24   S    
C74   C78   A    
C104  H68   S    
C47   O35   A    
C106  H72   S    
C8    C80   A    
C55   Cl7   S    
C105  H69   S    
Cr12  O12   S    
C62   O50   A    
C35   Cl19  S    
C41   C64   S    
C15   H7    S    
C89   H21   S    
C24   O64   S    
C75   C79   A    
C42   C63   S    
C20   C24   D    
C94   H37   S    
C68   O8    A    
C90   H26   S    
C52   C56   S    
C43   C62   S    
C106  H73   S    
C17   C21   D    
