data_mof_unit_66418.cif
_audit_creation_date              2012-10-26T20:23:14-0400
_audit_creation_method            fapswitch 2.2
_symmetry_space_group_name_H-M    P1
_symmetry_Int_Tables_number       1
_space_group_crystal_system       triclinic
_cell_length_a                    10.705406
_cell_length_b                    12.759382
_cell_length_c                    13.895217
_cell_angle_alpha                 97.980825
_cell_angle_beta                  90.008733
_cell_angle_gamma                 93.532243
_cell_volume                      1875.98181627

loop_
_atom_site_label
_atom_site_type_symbol
_atom_type_description
_atom_site_fract_x
_atom_site_fract_y
_atom_site_fract_z
_atom_type_partial_charge
C1    C     C_R   0.498331 0.483551 0.315829 0.589972
C2    C     C_3   0.967018 0.600745 0.513550 -0.021529
C3    C     C_3   0.953578 0.450555 0.415094 -0.029830
C4    C     C_3   0.046422 0.549445 0.584906 -0.029830
C5    C     C_3   0.876497 0.500719 0.501251 -0.059134
C6    C     C_3   0.123503 0.499281 0.498749 -0.059134
C7    C     C_3   0.955516 0.449621 0.572700 -0.020745
C8    C     C_3   0.044484 0.550379 0.427300 -0.020744
C9    C     C_1   0.502616 0.525887 0.787522 0.047233
C10   C     C_1   0.497384 0.474113 0.212478 0.047233
C11   C     C_2   0.504086 0.543553 0.978453 -0.094298
C12   C     C_R   0.501669 0.516449 0.684171 0.589972
C13   C     C_2   0.495914 0.456447 0.021547 -0.094298
C14   C     C_1   0.496636 0.465548 0.125394 -0.011074
C15   C     C_1   0.503364 0.534452 0.874606 -0.011073
C16   C     C_2   0.904899 0.395593 0.318458 0.625932
C17   C     C_2   0.095101 0.604407 0.681542 0.625932
C18   C     C_2   0.069088 0.286286 0.467330 0.637386
C19   C     C_2   0.930912 0.713714 0.532670 0.637386
C20   C     C_2   0.909604 0.395510 0.656618 0.653329
C21   C     C_2   0.090396 0.604489 0.343381 0.653329
C22   C     C_2   0.455826 0.029466 0.483103 0.045765
C23   C     C_2   0.544174 0.970534 0.516897 0.045765
C24   C     C_1   0.528851 0.854147 0.515873 0.219495
C25   C     C_1   0.471149 0.145853 0.484127 0.219495
C26   C     C_R   0.259321 0.499824 0.499000 0.624251
C27   C     C_R   0.740679 0.500176 0.501000 0.624251
C28   C     C_3   0.032982 0.399255 0.486450 -0.021529
Cu1   Cu    Cu3+1 0.491940 0.395330 0.493960 1.137653
Cu2   Cu    Cu3+1 0.508060 0.604670 0.506040 1.137654
H1    H     H_    0.488686 0.378021 0.979153 0.157009
H2    H     H_    0.511314 0.621979 0.020847 0.157009
H3    H     H_    0.755869 0.347272 0.231289 0.345199
H4    H     H_    0.244131 0.652728 0.768711 0.345199
H5    H     H_    0.157479 0.175675 0.379504 0.360398
H6    H     H_    0.842519 0.824325 0.620496 0.360397
H7    H     H_    0.763299 0.349409 0.735460 0.349688
H8    H     H_    0.236701 0.650590 0.264540 0.349688
I1    I     I_    0.717085 0.044160 0.573243 -0.202962
I2    I     I_    0.282915 0.955840 0.426757 -0.202961
N1    N     N_1   0.479830 0.238040 0.484880 -0.167595
N2    N     N_1   0.520170 0.761960 0.515120 -0.167595
O1    O     O_R   0.492210 0.399110 0.356330 -0.477155
O2    O     O_R   0.776475 0.385230 0.298960 -0.685079
O3    O     O_2   0.021376 0.639126 0.743297 -0.436977
O4    O     O_R   0.223525 0.614770 0.701040 -0.685079
O5    O     O_2   0.036990 0.223775 0.523090 -0.434027
O6    O     O_R   0.138877 0.253185 0.384957 -0.630876
O7    O     O_2   0.963011 0.776226 0.476911 -0.434026
O8    O     O_R   0.861121 0.746814 0.615042 -0.630876
O9    O     O_2   0.985033 0.360135 0.707710 -0.439854
O10   O     O_R   0.781950 0.387058 0.676975 -0.669433
O11   O     O_2   0.014967 0.639865 0.292290 -0.439854
O12   O     O_R   0.507790 0.600890 0.643670 -0.477156
O13   O     O_R   0.218050 0.612941 0.323024 -0.669432
O14   O     O_R   0.505820 0.575890 0.366540 -0.484751
O15   O     O_R   0.494180 0.424110 0.633460 -0.484751
O16   O     O_R   0.310050 0.411620 0.494870 -0.484388
O17   O     O_R   0.689950 0.588380 0.505130 -0.484387
O18   O     O_R   0.323660 0.588400 0.505080 -0.443608
O19   O     O_R   0.676340 0.411600 0.494920 -0.443607
O20   O     O_2   0.978624 0.360875 0.256703 -0.436976

loop_
_geom_bond_atom_site_label_1
_geom_bond_atom_site_label_2
_ccdc_geom_bond_type
C2    C4    S    
C23   C24   S    
Cu2   O14   S    
Cu1   Cu2   S    
H4    O4    S    
C3    C16   S    
C6    C28   S    
C24   N2    T    
C16   O2    S    
C16   O20   D    
H8    O13   S    
C22   I2    S    
Cu2   O17   S    
Cu2   O12   S    
C8    C21   S    
C9    C15   T    
H6    O8    S    
C20   O10   S    
C27   O17   A    
C13   C14   S    
C18   O5    D    
C21   O11   D    
C26   O16   A    
C19   O8    S    
C6    C26   S    
C26   O18   A    
C4    C7    S    
C23   I1    S    
C4    C17   S    
Cu1   O1    S    
Cu2   O18   S    
C3    C28   S    
C1    O14   A    
Cu1   O15   S    
C11   H2    S    
C3    C8    S    
C20   O9    D    
C5    C7    S    
C13   H1    S    
C9    C12   S    
Cu1   O19   S    
C2    C5    S    
C1    C10   S    
C12   O15   A    
C17   O3    D    
C11   C13   D    
C18   C28   S    
C17   O4    S    
C4    C6    S    
C7    C20   S    
C10   C14   T    
C25   N1    T    
C21   O13   S    
H7    O10   S    
C19   O7    D    
C22   C23   D    
Cu2   N2    S    
C2    C8    S    
C6    C8    S    
C27   O19   A    
Cu1   N1    S    
C2    C19   S    
C5    C27   S    
H3    O2    S    
C11   C15   S    
C1    O1    A    
C12   O12   A    
C7    C28   S    
Cu1   O16   S    
H5    O6    S    
C3    C5    S    
C22   C25   S    
C18   O6    S    
