data_mof_unit_67448.cif
_audit_creation_date              2013-03-05T15:40:58-0500
_audit_creation_method            fapswitch 2.2
_symmetry_space_group_name_H-M    P1
_symmetry_Int_Tables_number       1
_space_group_crystal_system       triclinic
_cell_length_a                    11.06975
_cell_length_b                    8.834921
_cell_length_c                    7.722756
_cell_angle_alpha                 102.866484
_cell_angle_beta                  95.430838
_cell_angle_gamma                 96.01314
_cell_volume                      726.831804943

loop_
_atom_site_label
_atom_site_type_symbol
_atom_site_description
_atom_site_fract_x
_atom_site_fract_y
_atom_site_fract_z
_atom_type_partial_charge
O1    O     O_R   0.509140 0.286130 0.619770 -0.587344
O2    O     O_R   0.485380 0.256770 0.308360 -0.568129
C1    C     C_R   0.492927 0.201408 0.454257 0.804079
O3    O     O_R   0.329570 0.514650 0.655700 -0.597658
O4    O     O_R   0.305810 0.485300 0.344290 -0.534740
C2    C     C_R   0.261134 0.496031 0.500437 0.779602
Cu1   Cu    Cu3+1 0.514070 0.517380 0.684380 1.104062
Cu2   Cu    Cu3+1 0.485930 0.482620 0.315620 1.143340
O5    O     O_R   0.514620 0.743230 0.691640 -0.539199
O6    O     O_R   0.490860 0.713870 0.380230 -0.495508
O7    O     O_R   0.694190 0.514700 0.655710 -0.587459
O8    O     O_R   0.670430 0.485350 0.344300 -0.512690
C3    C     C_R   0.504817 0.798327 0.545123 0.856993
C4    C     C_R   0.740437 0.506667 0.503087 0.959301
C5    C     C_3   0.086503 0.482593 0.693607 0.077085
H1    H     H_    0.109633 0.365574 0.701469 0.136887
C6    C     C_3   0.943610 0.477197 0.699678 0.156216
C7    C     C_3   0.093167 0.669315 0.480270 0.284996
C8    C     C_3   0.050054 0.354188 0.356710 0.149673
C9    C     C_3   0.124395 0.502599 0.505287 -0.187683
C10   C     C_3   0.881225 0.507859 0.511998 -0.192135
C11   C     C_3   0.947662 0.679119 0.492816 0.238164
C12   C     C_3   0.904569 0.363486 0.351492 0.352193
C13   C     C_2   0.495260 0.034582 0.427284 0.244806
C14   C     C_2   0.503440 0.965041 0.568714 -0.160011
N1    N     N_2   0.464720 0.456420 0.038520 0.003704
N2    N     N_2   0.535280 0.543580 0.961480 0.050312
N3    N     N_R   0.162991 0.582246 0.855546 0.210465
O9    O     O_R   0.163259 0.732508 0.909282 -0.249860
O10   O     O_R   0.227008 0.514699 0.958768 -0.309343
N4    N     N_3   0.848300 0.389438 0.180821 -0.540823
H2    H     H_    0.828417 0.286548 0.079877 0.251722
H3    H     H_    0.899519 0.468852 0.130836 0.285687
N5    N     N_R   0.132498 0.692947 0.309878 0.151611
O11   O     O_R   0.231444 0.785139 0.307433 -0.318414
O12   O     O_R   0.068155 0.628774 0.159382 -0.311014
N6    N     N_3   0.892300 0.722731 0.333273 -0.492760
H4    H     H_    0.824105 0.789634 0.373687 0.308958
H5    H     H_    0.950000 0.812739 0.304111 0.277090
N7    N     N_R   0.503074 0.953928 0.245692 0.146557
O13   O     O_R   0.591624 0.005201 0.166047 -0.251823
O14   O     O_R   0.404682 0.878665 0.145581 -0.265576
N8    N     N_3   0.512107 0.054033 0.750278 -0.526553
H6    H     H_    0.441304 0.007660 0.811518 0.265624
H7    H     H_    0.595720 0.042030 0.817869 0.309571
N9    N     N_3   0.416896 0.310031 0.933529 -0.406925
H8    H     H_    0.364360 0.254324 0.012120 0.228127
H9    H     H_    0.354688 0.323915 0.830330 0.249915
N10   N     N_R   0.607712 0.680454 0.051908 0.289866
O15   O     O_R   0.666222 0.762294 0.958789 -0.254277
O16   O     O_R   0.652978 0.699683 0.213652 -0.345328
N11   N     N_3   0.897301 0.320281 0.719721 -0.524637
H10   H     H_    0.808541 0.318230 0.755502 0.270378
H11   H     H_    0.949063 0.293812 0.826366 0.235788
N12   N     N_3   0.919497 0.587797 0.862768 -0.487187
H12   H     H_    0.955683 0.704291 0.888419 0.340252
H13   H     H_    0.832312 0.573461 0.901206 0.281380
N13   N     N_3   0.166816 0.795734 0.620123 -0.475100
H14   H     H_    0.169415 0.903250 0.584097 0.261947
H15   H     H_    0.258748 0.778896 0.634342 0.220136
N14   N     N_R   0.925967 0.807807 0.645377 0.110410
O17   O     O_R   0.818481 0.803571 0.700608 -0.351193
O18   O     O_R   0.982499 0.948394 0.665629 -0.369988
N15   N     N_3   0.085743 0.346108 0.175479 -0.458983
H16   H     H_    0.027013 0.257155 0.085517 0.218980
H17   H     H_    0.168350 0.300286 0.162155 0.256568
N16   N     N_3   0.085452 0.209787 0.407028 -0.627020
H18   H     H_    0.080626 0.115520 0.296085 0.276847
H19   H     H_    0.032653 0.170957 0.497140 0.286351
N17   N     N_R   0.841115 0.208358 0.360155 0.151481
O19   O     O_R   0.857567 0.083982 0.242137 -0.330864
O20   O     O_R   0.744850 0.196780 0.441880 -0.366900

loop_
_geom_bond_atom_site_label_1
_geom_bond_atom_site_label_2
_geom_bond_distance
_ccdc_geom_bond_type
O4    Cu2   2.028862 S    
C8    C12   1.618309 S    
N8    H6    1.046435 S    
N4    H3    1.020519 S    
C8    N16   1.492937 S    
N6    H4    1.035658 S    
C2    C9    1.524500 S    
C6    N12   1.477358 S    
C7    C9    1.595968 S    
C8    C9    1.624249 S    
C8    N15   1.478563 S    
Cu2   O8    2.030413 S    
N15   H16   1.042723 S    
C14   N8    1.435692 S    
N12   H12   1.032854 S    
N3    O10   1.298976 A    
O2    C1    1.323593 A    
N1    N2    1.312646 D    
Cu1   Cu2   2.779225 S    
N6    H5    1.044805 S    
N12   H13   1.039697 S    
O1    Cu1   1.985844 S    
C10   C11   1.655149 S    
C13   C14   1.367636 D    
C11   N14   1.500882 S    
Cu1   O7    2.028862 S    
N8    H7    1.046025 S    
C12   N17   1.491403 S    
C3    C14   1.445196 S    
C1    C13   1.445236 S    
O4    C2    1.333992 A    
C7    N5    1.475292 S    
O3    Cu1   2.030415 S    
C6    N11   1.473222 S    
N7    O14   1.298500 A    
N7    O13   1.299832 A    
C13   N7    1.439707 S    
N11   H11   1.042035 S    
O6    C3    1.310607 A    
N5    O11   1.298975 A    
N5    O12   1.282499 A    
C10   C12   1.629653 S    
C5    C9    1.592717 S    
O7    C4    1.319454 A    
N9    H9    1.040088 S    
N17   O20   1.295219 A    
N14   O17   1.301119 A    
N1    N9    1.385162 S    
C5    N3    1.486298 S    
C5    H1    1.103896 S    
N4    H2    1.045226 S    
N2    N10   1.381188 S    
Cu2   N1    2.088325 S    
N17   O19   1.303324 A    
Cu1   N2    2.088325 S    
N11   H10   1.044984 S    
C4    C10   1.552313 S    
O3    C2    1.323939 A    
N10   O15   1.296570 A    
N10   O16   1.268620 A    
C5    C6    1.582959 S    
Cu1   O5    1.982986 S    
N9    H8    1.043404 S    
N3    O9    1.299315 A    
O5    C3    1.327471 A    
N15   H17   1.042832 S    
N16   H19   1.041581 S    
N13   H14   1.045951 S    
C7    C11   1.632876 S    
C11   N6    1.469728 S    
N13   H15   1.042914 S    
C7    N13   1.477819 S    
Cu2   O6    1.985844 S    
O2    Cu2   1.982987 S    
N16   H18   1.046316 S    
N14   O18   1.300365 A    
O8    C4    1.351465 A    
O1    C1    1.314780 A    
C12   N4    1.478826 S    
C6    C10   1.635744 S    
