data_mof_unit_43488.cif
_audit_creation_date              2012-12-10T18:07:34-0500
_audit_creation_method            fapswitch 2.2
_symmetry_space_group_name_H-M    P1
_symmetry_Int_Tables_number       1
_space_group_crystal_system       triclinic
_cell_length_a                    11.530031
_cell_length_b                    12.70084
_cell_length_c                    13.124585
_cell_angle_alpha                 82.079235
_cell_angle_beta                  91.535589
_cell_angle_gamma                 102.44325
_cell_volume                      1858.91686338

loop_
_atom_site_label
_atom_site_type_symbol
_atom_type_description
_atom_site_fract_x
_atom_site_fract_y
_atom_site_fract_z
_atom_type_partial_charge
C1    C     C_R   0.488823 0.439132 0.691159 0.899792
C2    C     C_R   0.523391 0.597726 0.199338 -0.065481
C3    C     C_R   0.376366 0.313598 0.829257 -0.257595
C4    C     C_R   0.314954 0.307415 0.920002 0.408827
C5    C     C_R   0.347393 0.390170 0.982275 0.300627
C6    C     C_R   0.456683 0.468692 0.962670 -0.042107
C7    C     C_R   0.521207 0.471447 0.872227 -0.099644
C8    C     C_R   0.502761 0.546180 0.028542 0.082441
C9    C     C_R   0.590586 0.640184 0.993873 -0.012065
C10   C     C_R   0.662490 0.635587 0.909897 0.352724
C11   C     C_R   0.632263 0.546702 0.853328 -0.199800
C12   C     C_R   0.717639 0.501069 0.500211 0.911397
C13   C     C_R   0.478141 0.523110 0.132954 -0.133021
C14   C     C_R   0.584292 0.702206 0.160225 -0.185560
C15   C     C_R   0.470502 0.401639 0.800618 -0.157690
C16   C     C_R   0.284041 0.082493 0.397476 -0.104681
C17   C     C_R   0.664701 0.807659 0.610719 0.004529
C18   C     C_R   0.687943 0.910655 0.641117 0.381899
C19   C     C_R   0.611054 0.982284 0.617961 0.295791
C20   C     C_R   0.516404 0.959375 0.547413 -0.142659
C21   C     C_R   0.485189 0.853225 0.519311 -0.025395
C22   C     C_R   0.454143 0.038448 0.499245 0.000053
C23   C     C_R   0.512427 0.560760 0.308898 0.908778
C24   C     C_R   0.342189 0.003907 0.451668 -0.062775
C25   C     C_R   0.297610 0.891813 0.455225 0.333185
C26   C     C_R   0.378477 0.824838 0.463404 0.395284
C27   C     C_R   0.502919 0.150529 0.490057 0.069113
C28   C     C_R   0.334274 0.191715 0.399230 -0.024545
C29   C     C_R   0.282350 0.498870 0.499966 0.924322
C30   C     C_1   0.838827 0.502778 0.500667 -0.056779
C31   C     C_1   0.940928 0.501570 0.500514 0.099930
C32   C     C_1   0.059175 0.498755 0.499970 0.096590
C33   C     C_1   0.161210 0.497309 0.499673 -0.086299
C34   C     C_R   0.616480 0.725686 0.056074 -0.044887
H1    H     H_    0.610437 0.763524 0.211101 0.210559
H2    H     H_    0.590449 0.183063 0.517132 0.184454
H3    H     H_    0.601624 0.754285 0.577611 0.257490
H4    H     H_    0.433728 0.441831 0.164706 0.193827
H5    H     H_    0.340726 0.257410 0.775402 0.221676
H6    H     H_    0.289543 0.253953 0.363356 0.180478
N1    N     N_R   0.440320 0.222190 0.444690 -0.132994
N2    N     N_R   0.559060 0.776980 0.554780 -0.308037
O1    O     O_R   0.471500 0.366730 0.627160 -0.586573
O2    O     O_R   0.509620 0.544830 0.662520 -0.616091
O3    O     O_R   0.646490 0.410960 0.482310 -0.614478
O4    O     O_R   0.684610 0.589050 0.517670 -0.584649
O5    O     O_R   0.490380 0.455170 0.337480 -0.631870
O6    O     O_R   0.528500 0.633270 0.372840 -0.563284
O7    O     O_R   0.315390 0.410950 0.482330 -0.618768
O8    O     O_R   0.353510 0.589040 0.517690 -0.569910
Zn1   Zn    Zn3+2 0.474550 0.381080 0.476390 1.000946
Zn2   Zn    Zn3+2 0.525450 0.618920 0.523610 1.032768
Cl1   Cl    Cl    0.145478 0.831125 0.442704 -0.474917
C35   C     C_2   0.181301 0.057582 0.328241 1.030642
O9    O     O_2   0.183342 0.998239 0.262701 -0.503763
O10   O     O_R   0.085327 0.107649 0.333750 -0.759926
H7    H     H_    0.021611 0.086104 0.281228 0.381609
Cl2   Cl    Cl    0.624371 0.089256 0.694045 -0.529720
Cl3   Cl    Cl    0.820840 0.949044 0.708429 -0.365845
Cl4   Cl    Cl    0.368241 0.757147 0.355138 -0.512177
Cl5   Cl    Cl    0.806059 0.721639 0.894361 -0.428551
C36   C     C_2   0.667874 0.840143 0.013657 1.047942
O11   O     O_2   0.727996 0.901718 0.068129 -0.563484
O12   O     O_R   0.643432 0.878806 0.912187 -0.732009
H8    H     H_    0.680308 0.958915 0.893288 0.406034
Cl6   Cl    Cl    0.237562 0.404397 0.068530 -0.500850
Cl7   Cl    Cl    0.187055 0.203153 0.945740 -0.402105
C37   C     C_2   0.721106 0.526863 0.781142 1.000171
O13   O     O_2   0.775902 0.602033 0.721189 -0.498699
O14   O     O_R   0.742989 0.422843 0.780300 -0.749968
H9    H     H_    0.699619 0.367075 0.836897 0.335775

loop_
_geom_bond_atom_site_label_1
_geom_bond_atom_site_label_2
_ccdc_geom_bond_type
C16   C28   A    
C4    Cl7   S    
O8    Zn2   S    
C21   C26   A    
C24   C25   A    
C14   C34   A    
C6    C7    A    
C1    C15   S    
C29   C33   S    
C27   H2    S    
C9    C10   A    
C27   N1    A    
C1    O2    A    
C19   C20   A    
O6    Zn2   S    
C30   C31   T    
C29   O8    A    
C32   C33   T    
O2    Zn2   S    
C16   C35   S    
C7    C15   A    
C17   C18   A    
C3    H5    S    
C16   C24   A    
C37   O13   D    
C29   O7    A    
C5    Cl6   S    
C7    C11   A    
C14   H1    S    
O1    Zn1   S    
C13   H4    S    
C36   O11   D    
C6    C8    A    
C4    C5    A    
O12   H8    S    
C12   O4    A    
N1    Zn1   S    
C25   Cl1   S    
C9    C34   A    
C35   O10   S    
C22   C27   A    
C19   Cl2   S    
C17   N2    A    
C5    C6    A    
C2    C14   A    
C22   C24   A    
C10   Cl5   S    
C23   O5    A    
O10   H7    S    
C17   H3    S    
C28   H6    S    
C3    C4    A    
C8    C13   A    
O4    Zn2   S    
C18   Cl3   S    
C34   C36   S    
O14   H9    S    
C3    C15   A    
C20   C21   A    
C37   O14   S    
C18   C19   A    
C10   C11   A    
N2    Zn2   S    
C2    C23   S    
C2    C13   A    
O3    Zn1   S    
C11   C37   S    
C8    C9    A    
C36   O12   S    
C23   O6    A    
C12   C30   S    
C25   C26   A    
C35   O9    D    
C26   Cl4   S    
C1    O1    A    
C31   C32   S    
O5    Zn1   S    
C28   N1    A    
C21   N2    A    
C20   C22   A    
C12   O3    A    
O7    Zn1   S    
