data_mof_unit_24456.cif
_audit_creation_date              2013-03-05T15:53:17-0500
_audit_creation_method            fapswitch 2.2
_symmetry_space_group_name_H-M    P1
_symmetry_Int_Tables_number       1
_space_group_crystal_system       triclinic
_cell_length_a                    11.542821
_cell_length_b                    10.764283
_cell_length_c                    9.911206
_cell_angle_alpha                 87.692625
_cell_angle_beta                  90.178116
_cell_angle_gamma                 92.125752
_cell_volume                      1229.6224072

loop_
_atom_site_label
_atom_site_type_symbol
_atom_site_description
_atom_site_fract_x
_atom_site_fract_y
_atom_site_fract_z
_atom_type_partial_charge
O1    O     O_R   0.500000 0.316780 0.614690 -0.659055
O2    O     O_R   0.499990 0.316750 0.385360 -0.620062
C1    C     C_R   0.506450 0.260261 0.503770 0.871344
O3    O     O_R   0.334450 0.500030 0.614670 -0.642569
O4    O     O_R   0.334440 0.500000 0.385330 -0.632399
C2    C     C_R   0.282017 0.499785 0.499854 0.875209
Zn1   Zn    Zn3+2 0.500010 0.500020 0.653130 0.986205
Zn2   Zn    Zn3+2 0.499990 0.499980 0.346870 0.953476
O5    O     O_R   0.500010 0.683250 0.614640 -0.578169
O6    O     O_R   0.500000 0.683220 0.385310 -0.622454
O7    O     O_R   0.665560 0.500000 0.614670 -0.560073
O8    O     O_R   0.665550 0.499970 0.385330 -0.618379
C3    C     C_R   0.496349 0.739997 0.496946 0.884713
C4    C     C_R   0.717991 0.500346 0.500159 0.899659
C5    C     C_1   0.161548 0.500002 0.499620 -0.179326
C6    C     C_1   0.059363 0.500269 0.499835 0.011283
C7    C     C_1   0.940678 0.500520 0.500253 0.028760
C8    C     C_1   0.838483 0.500536 0.500427 -0.139631
H1    H     H_    0.589402 0.130339 0.312250 0.199917
C9    C     C_R   0.480135 0.094849 0.760901 -0.239582
H2    H     H_    0.527173 0.178443 0.788284 0.211215
C10   C     C_R   0.426781 0.021563 0.865359 0.374440
C11   C     C_R   0.366105 0.912037 0.832704 -0.197401
H3    H     H_    0.318013 0.856893 0.908828 0.180313
C12   C     C_R   0.375097 0.867324 0.703465 -0.176040
H4    H     H_    0.330197 0.780014 0.682957 0.164424
C13   C     C_R   0.446733 0.930947 0.605443 0.086436
C14   C     C_R   0.481156 0.053868 0.626702 0.042666
C15   C     C_R   0.517996 0.127619 0.512401 -0.153247
C16   C     C_R   0.553603 0.072828 0.395478 -0.174401
C17   C     C_R   0.549299 0.945327 0.386548 0.166771
C18   C     C_R   0.491765 0.873487 0.491546 -0.128893
H5    H     H_    0.637943 0.631071 0.121192 0.171509
C19   C     C_R   0.338790 0.345535 0.145330 -0.067839
H6    H     H_    0.336310 0.335355 0.252485 0.189378
C20   C     C_R   0.257064 0.273027 0.077420 -0.104310
H7    H     H_    0.194736 0.214081 0.133775 0.156640
C21   C     C_R   0.258240 0.272306 0.937779 -0.165604
H8    H     H_    0.197161 0.212496 0.885379 0.151716
C22   C     C_R   0.340992 0.344323 0.865358 -0.134299
H9    H     H_    0.341853 0.332733 0.759147 0.198146
C23   C     C_R   0.421055 0.423801 0.930424 0.099722
C24   C     C_R   0.420531 0.424222 0.074989 0.179962
N1    N     N_R   0.498930 0.498800 0.142780 -0.139893
C25   C     C_R   0.575861 0.572440 0.069124 -0.184126
C26   C     C_R   0.575860 0.573234 0.926017 0.359394
N2    N     N_R   0.498900 0.498720 0.857170 -0.184329
N3    N     N_R   0.657843 0.652807 0.854078 0.225972
O9    O     O_R   0.635621 0.769646 0.833508 -0.393181
O10   O     O_R   0.764301 0.618565 0.844423 -0.388612
N4    N     N_R   0.435957 0.057067 0.003504 0.192267
O11   O     O_R   0.510984 0.143441 0.037760 -0.445001
O12   O     O_R   0.374712 0.998096 0.097525 -0.439501
C27   C     C_3   0.610254 0.893175 0.266203 -0.318308
C28   C     C_3   0.725899 0.837944 0.307248 -0.840231
H10   H     H_    0.714243 0.761586 0.384907 0.261950
H11   H     H_    0.767690 0.800545 0.217405 0.258951
H12   H     H_    0.784665 0.911365 0.348346 0.260337
H13   H     H_    0.553528 0.825915 0.212852 0.243130
H14   H     H_    0.630287 0.967842 0.188127 0.241015

loop_
_geom_bond_atom_site_label_1
_geom_bond_atom_site_label_2
_geom_bond_distance
_ccdc_geom_bond_type
O4    Zn2   1.949735 S    
Zn1   O7    1.949732 S    
C28   H10   1.107985 S    
C15   C16   1.391282 A    
C12   C13   1.416330 A    
H5    C25   1.080977 S    
C4    C8    1.390732 S    
C3    C18   1.438694 S    
C17   C18   1.422463 A    
C16   C17   1.377912 A    
Zn2   O8    1.947515 S    
C20   C21   1.384457 A    
O2    C1    1.303055 A    
C12   H4    1.082497 S    
C28   H11   1.110673 S    
C27   H14   1.111534 S    
C25   C26   1.418044 A    
C9    H2    1.077331 S    
C21   C22   1.390362 A    
N3    O10   1.300847 A    
C14   C15   1.414207 A    
C10   C11   1.397606 A    
O4    C2    1.287831 A    
C20   H7    1.082718 S    
C24   N1    1.378619 A    
O3    Zn1   1.947517 S    
C5    C6    1.179628 T    
C22   C23   1.408513 A    
C22   H9    1.065135 S    
O8    C4    1.287479 A    
C7    C8    1.179634 T    
N4    O12   1.301631 A    
C19   C20   1.391341 A    
C27   H13   1.107260 S    
C11   C12   1.391884 A    
C17   C27   1.523587 S    
C21   H8    1.082704 S    
O7    C4    1.287687 A    
C26   N3    1.425638 S    
C2    C5    1.390629 S    
C6    C7    1.370080 S    
C23   C24   1.433026 A    
C11   H3    1.082515 S    
N4    O11   1.301365 A    
Zn1   O5    1.993757 S    
C23   N2    1.374061 A    
N1    C25   1.361995 A    
O3    C2    1.287287 A    
C19   H6    1.063638 S    
C28   H12   1.111345 S    
C13   C14   1.391386 A    
C1    C15   1.438019 S    
O5    C3    1.296089 A    
C26   N2    1.373153 A    
N3    O9    1.300806 A    
C9    C14   1.418289 A    
O1    Zn1   2.023905 S    
C13   C18   1.418024 A    
C27   C28   1.528679 S    
H1    C16   1.084650 S    
Zn2   O6    2.023905 S    
O2    Zn2   1.993757 S    
C19   C24   1.411008 A    
Zn2   N1    2.023325 S    
C9    C10   1.405566 A    
C10   N4    1.438811 S    
O1    C1    1.281399 A    
O6    C3    1.286925 A    
Zn1   N2    2.021845 S    
