data_mof_unit_13497.cif
_audit_creation_date              2012-12-11T15:27:04-0500
_audit_creation_method            fapswitch 2.2
_symmetry_space_group_name_H-M    P1
_symmetry_Int_Tables_number       1
_space_group_crystal_system       triclinic
_cell_length_a                    13.812703
_cell_length_b                    13.931932
_cell_length_c                    27.365384
_cell_angle_alpha                 90.246735
_cell_angle_beta                  89.824765
_cell_angle_gamma                 119.632326
_cell_volume                      4577.35988325

loop_
_atom_site_label
_atom_site_type_symbol
_atom_type_description
_atom_site_fract_x
_atom_site_fract_y
_atom_site_fract_z
_atom_type_partial_charge
C1    C     C_R   0.233585 0.787431 0.568360 0.541510
C2    C     C_R   0.212335 0.446169 0.568422 0.543981
C3    C     C_R   0.553190 0.765734 0.568683 0.540889
C4    C     C_3   0.638773 0.733541 0.790767 -0.250539
C5    C     C_3   0.241881 0.945376 0.783501 -0.256772
C6    C     C_3   0.055208 0.305087 0.784690 -0.255977
C7    C     C_3   0.621328 0.720175 0.734811 -0.224369
C8    C     C_3   0.259042 0.933503 0.728507 -0.226681
C9    C     C_3   0.068525 0.336815 0.729951 -0.226088
C10   C     C_1   0.705348 0.864823 0.859120 -0.005458
C11   C     C_1   0.111261 0.876373 0.851606 -0.005399
C12   C     C_1   0.117932 0.230677 0.850820 -0.008267
C13   C     C_1   0.628882 0.816601 0.658366 -0.068803
C14   C     C_1   0.176002 0.817988 0.655733 -0.069755
C15   C     C_1   0.178658 0.357711 0.655524 -0.069797
C16   C     C_1   0.601557 0.797369 0.616193 -0.006550
C17   C     C_1   0.198619 0.806259 0.614611 -0.006172
C18   C     C_1   0.192442 0.392548 0.614551 -0.006479
C19   C     C_R   0.070345 0.161529 0.941621 0.533032
C20   C     C_R   0.779539 0.886996 0.949009 0.548654
C21   C     C_R   0.091215 0.928747 0.941836 0.529810
C22   C     C_R   0.618285 0.808482 0.386437 0.024532
C23   C     C_R   0.190161 0.808524 0.386548 0.024652
C24   C     C_R   0.186012 0.371161 0.388813 0.022959
C25   C     C_R   0.614785 0.894975 0.361811 -0.126640
C26   C     C_R   0.105087 0.719153 0.360981 -0.126455
C27   C     C_R   0.272353 0.374843 0.360142 -0.127493
C28   C     C_R   0.646205 0.915510 0.313204 -0.124399
C29   C     C_R   0.084594 0.731201 0.312493 -0.121505
C30   C     C_R   0.248720 0.319313 0.315426 -0.119629
C31   C     C_R   0.684017 0.851611 0.288887 0.036088
C32   C     C_R   0.147441 0.833221 0.289261 0.036187
C33   C     C_R   0.138287 0.258330 0.298945 0.034279
C34   C     C_R   0.232622 0.787613 0.431745 0.541639
C35   C     C_R   0.212103 0.444509 0.431515 0.541899
C36   C     C_R   0.555128 0.766812 0.431743 0.542087
C37   C     C_R   0.700020 0.774099 0.315120 -0.120073
C38   C     C_R   0.223664 0.925521 0.316372 -0.119908
C39   C     C_R   0.051507 0.246634 0.329795 -0.119137
C40   C     C_R   0.666370 0.751903 0.363633 -0.127322
C41   C     C_R   0.245468 0.913116 0.364774 -0.125340
C42   C     C_R   0.075211 0.303484 0.374110 -0.126416
C43   C     C_R   0.663508 0.762888 0.207763 -0.119606
C44   C     C_R   0.237486 0.902713 0.208563 -0.121326
C45   C     C_R   0.037430 0.238703 0.221302 -0.119387
C46   C     C_R   0.680860 0.769997 0.157629 -0.126119
C47   C     C_R   0.230713 0.913032 0.158421 -0.133241
C48   C     C_R   0.022355 0.216739 0.171560 -0.123865
C49   C     C_R   0.754826 0.968132 0.161913 -0.127210
C50   C     C_R   0.030395 0.792403 0.162395 -0.123232
C51   C     C_R   0.160733 0.158066 0.172393 -0.128542
C52   C     C_R   0.740304 0.961518 0.212194 -0.118562
C53   C     C_R   0.036930 0.783682 0.212587 -0.119208
C54   C     C_R   0.175810 0.179991 0.222616 -0.113393
C55   C     C_R   0.697260 0.859145 0.235644 0.035934
C56   C     C_R   0.140206 0.840788 0.236158 0.035497
C57   C     C_R   0.114967 0.221753 0.247383 0.036259
C58   C     C_R   0.730311 0.873184 0.134787 0.024756
C59   C     C_R   0.126781 0.860392 0.135336 0.021347
C60   C     C_R   0.085118 0.178122 0.146349 0.016980
C61   C     C_R   0.066196 0.153631 0.093704 0.561917
C62   C     C_R   0.778198 0.885357 0.086259 0.545354
C63   C     C_R   0.115166 0.893888 0.086391 0.555756
C64   C     C_3   0.574387 0.873062 0.734960 -0.176882
C65   C     C_3   0.137987 0.727541 0.736680 -0.178424
C66   C     C_3   0.272707 0.398762 0.735817 -0.177823
C67   C     C_3   0.772881 0.916774 0.722202 -0.216499
C68   C     C_3   0.052818 0.844696 0.713645 -0.214333
C69   C     C_3   0.136295 0.202675 0.711743 -0.212151
C70   C     C_3   0.793184 0.927354 0.778134 -0.203846
C71   C     C_3   0.036447 0.862390 0.768254 -0.205889
C72   C     C_3   0.115687 0.167117 0.765996 -0.207705
C73   C     C_1   0.733128 0.873206 0.901226 0.033256
C74   C     C_1   0.102383 0.899406 0.893065 0.036611
C75   C     C_1   0.097669 0.200012 0.892499 0.030370
C76   C     C_3   0.649632 0.831889 0.711182 0.018197
C77   C     C_3   0.156360 0.830500 0.707293 0.016902
C78   C     C_3   0.164295 0.324321 0.706898 0.017615
C79   C     C_3   0.594534 0.888907 0.791239 0.175144
C80   C     C_3   0.117294 0.740171 0.791864 0.176330
C81   C     C_3   0.259159 0.363497 0.790533 0.175846
C82   C     C_3   0.683016 0.855499 0.806353 0.036886
C83   C     C_3   0.124636 0.854694 0.800310 0.033043
C84   C     C_3   0.138289 0.265765 0.799502 0.034295
Cr1   Cr    Cr6+3 0.164410 0.584450 0.499910 1.023636
Cr2   Cr    Cr6+3 0.415550 0.579960 0.499910 1.025304
Cr3   Cr    Cr6+3 0.420040 0.835590 0.499910 1.022349
Cr4   Cr    Cr6+3 0.156760 0.076070 0.017830 1.063033
Cr5   Cr    Cr6+3 0.923930 0.080690 0.017830 1.042722
Cr6   Cr    Cr6+3 0.919310 0.843240 0.017830 1.049126
H1    H     H_    0.485202 0.812032 0.728082 0.073949
H2    H     H_    0.212690 0.717255 0.733157 0.075803
H3    H     H_    0.292688 0.486473 0.733585 0.074927
H4    H     H_    0.514910 0.832335 0.810081 0.104172
H5    H     H_    0.184665 0.738587 0.813467 0.113264
H6    H     H_    0.270556 0.434810 0.813272 0.114043
H7    H     H_    0.698581 0.705822 0.801812 0.168817
H8    H     H_    0.253513 0.028850 0.790838 0.169769
H9    H     H_    0.968043 0.238859 0.791704 0.165471
H10   H     H_    0.578968 0.940826 0.378634 0.133400
H11   H     H_    0.060480 0.637585 0.376991 0.133727
H12   H     H_    0.358628 0.426189 0.370741 0.128814
H13   H     H_    0.625944 0.682374 0.224808 0.106686
H14   H     H_    0.318554 0.944585 0.225846 0.107156
H15   H     H_    0.990862 0.272872 0.238948 0.102939
H16   H     H_    0.660966 0.695815 0.137113 0.128435
H17   H     H_    0.305771 0.966055 0.138056 0.128021
H18   H     H_    0.962421 0.231901 0.152713 0.127217
H19   H     H_    0.633090 0.975832 0.293935 0.101007
H20   H     H_    0.025232 0.658791 0.292395 0.104552
H21   H     H_    0.317346 0.330467 0.292368 0.104006
H22   H     H_    0.766894 0.036989 0.232794 0.099561
H23   H     H_    0.960790 0.735674 0.233111 0.102510
H24   H     H_    0.235405 0.165153 0.241970 0.101291
H25   H     H_    0.792894 0.048565 0.144826 0.118191
H26   H     H_    0.948941 0.752170 0.145383 0.133994
H27   H     H_    0.208240 0.125970 0.153922 0.130027
H28   H     H_    0.733177 0.726767 0.297447 0.101488
H29   H     H_    0.270234 0.005947 0.299458 0.098937
H30   H     H_    0.965377 0.197789 0.318529 0.104400
H31   H     H_    0.590463 0.951121 0.717029 0.186901
H32   H     H_    0.067216 0.652150 0.720513 0.184652
H33   H     H_    0.343539 0.394870 0.718350 0.186739
H34   H     H_    0.671868 0.686316 0.382252 0.127411
H35   H     H_    0.309997 0.983690 0.384118 0.128129
H36   H     H_    0.007048 0.297530 0.396039 0.126936
H37   H     H_    0.828804 0.890485 0.704579 0.108792
H38   H     H_    0.062942 0.916728 0.692113 0.107955
H39   H     H_    0.060731 0.147876 0.689960 0.109192
H40   H     H_    0.794172 0.998738 0.706849 0.154609
H41   H     H_    0.977363 0.770249 0.699669 0.158450
H42   H     H_    0.206030 0.192614 0.697104 0.157121
H43   H     H_    0.831689 0.015095 0.789599 0.182518
H44   H     H_    0.951031 0.801168 0.780121 0.189175
H45   H     H_    0.169160 0.132333 0.776707 0.176401
H46   H     H_    0.853990 0.900252 0.787466 0.084563
H47   H     H_    0.043757 0.944447 0.773015 0.077171
H48   H     H_    0.027804 0.100892 0.770479 0.084736
H49   H     H_    0.533327 0.657134 0.726882 0.133763
H50   H     H_    0.335371 0.926592 0.723311 0.148890
H51   H     H_    0.085880 0.423472 0.726254 0.148191
H52   H     H_    0.675262 0.689354 0.718989 0.153331
H53   H     H_    0.272352 0.008986 0.708922 0.152318
H54   H     H_    0.989083 0.282785 0.710427 0.151538
H55   H     H_    0.558501 0.679049 0.809619 0.154257
H56   H     H_    0.306801 0.938820 0.804817 0.174684
H57   H     H_    0.070108 0.377535 0.807348 0.178613
O1    O     O_R   0.137310 0.468260 0.552980 -0.507360
O2    O     O_R   0.531740 0.669050 0.552980 -0.506589
O3    O     O_R   0.330950 0.862690 0.552980 -0.505726
O4    O     O_R   0.180530 0.983530 0.965090 -0.482590
O5    O     O_R   0.016470 0.197000 0.965090 -0.465164
O6    O     O_R   0.803000 0.819470 0.965090 -0.500935
O7    O     O_R   0.174120 0.688790 0.549730 -0.497783
O8    O     O_R   0.311210 0.485330 0.549730 -0.497259
O9    O     O_R   0.514670 0.825880 0.549730 -0.496418
O10   O     O_R   0.139940 0.470480 0.446230 -0.520277
O11   O     O_R   0.529520 0.669460 0.446230 -0.520775
O12   O     O_R   0.330540 0.860060 0.446230 -0.520553
O13   O     O_R   0.176560 0.690850 0.450770 -0.506044
O14   O     O_R   0.309150 0.485710 0.450770 -0.502678
O15   O     O_R   0.514290 0.823440 0.450770 -0.505201
O16   O     O_3   0.333333 0.666667 0.499990 -0.264473
O17   O     O_3   1.000000 0.000000 0.017910 -0.310054
O18   O     O_R   0.149710 0.171070 0.967700 -0.467321
O19   O     O_R   0.828930 0.978640 0.967700 -0.508455
O20   O     O_R   0.021360 0.850290 0.967700 -0.459200
O21   O     O_R   0.178510 0.985930 0.071830 -0.526511
O22   O     O_R   0.014070 0.192580 0.071830 -0.497355
O23   O     O_R   0.807420 0.821490 0.071830 -0.513497
O24   O     O_R   0.147830 0.173300 0.066650 -0.471216
O25   O     O_R   0.826700 0.974530 0.066650 -0.520412
O26   O     O_R   0.025470 0.852170 0.066650 -0.492768
S1    S     S_3+6 0.628885 0.027379 0.809019 -0.022702
O27   O     O_2   0.527966 0.039891 0.801638 -0.300286
O28   O     O_2   0.662056 0.047972 0.861917 -0.259377
O29   O     O_3   0.733253 0.121337 0.774320 -0.571523
H58   H     H_    0.748063 0.193885 0.787222 0.385458
S2    S     S_3+6 0.988370 0.623124 0.812210 -0.019554
O30   O     O_2   0.002845 0.523158 0.812614 -0.303704
O31   O     O_2   0.959520 0.642361 0.862960 -0.252088
O32   O     O_3   0.883582 0.599310 0.773987 -0.562999
H59   H     H_    0.816542 0.536719 0.788646 0.388688
S3    S     S_3+6 0.368961 0.335699 0.808214 -0.020157
O33   O     O_2   0.477296 0.442854 0.808375 -0.288139
O34   O     O_2   0.348251 0.286372 0.858490 -0.257249
O35   O     O_3   0.378559 0.249022 0.768055 -0.572805
H60   H     H_    0.437828 0.235994 0.781169 0.391454

loop_
_geom_bond_atom_site_label_1
_geom_bond_atom_site_label_2
_ccdc_geom_bond_type
C58   C62   S    
C65   H2    S    
Cr3   O16   S    
C2    O8    A    
Cr6   O20   S    
C2    C18   S    
C24   C42   A    
C15   C18   T    
C79   S1    S    
C24   C27   A    
C6    C9    S    
C44   H14   S    
C71   H47   S    
C25   C28   A    
Cr6   O26   S    
C45   C57   A    
C35   O14   A    
C50   C59   A    
C29   C32   A    
C80   C83   S    
C26   H11   S    
C5    C83   S    
C10   C73   T    
C14   C77   S    
C15   C78   S    
C52   H22   S    
C2    O1    A    
C39   H30   S    
C54   H24   S    
S3    O33   D    
C12   C84   S    
C23   C26   A    
S1    O27   D    
C51   H27   S    
O32   H59   S    
Cr5   O5    S    
C37   H28   S    
C53   H23   S    
Cr4   O21   S    
Cr3   O3    S    
C70   H43   S    
Cr1   O1    S    
C48   C60   A    
C61   O24   A    
Cr1   O13   S    
C32   C38   A    
C68   H38   S    
Cr5   O17   S    
C44   C47   A    
C36   O11   A    
Cr1   O7    S    
S2    O32   S    
C34   O12   A    
C49   C52   A    
C72   H48   S    
C65   C80   S    
C4    H7    S    
C46   C58   A    
C27   C30   A    
C70   H46   S    
C14   C17   T    
C69   C78   S    
Cr1   O10   S    
C71   H44   S    
C4    C7    S    
C40   H34   S    
C9    H54   S    
C45   H15   S    
C63   O26   A    
C39   C42   A    
C71   C83   S    
C62   O23   A    
C3    O2    A    
C24   C35   S    
C65   C77   S    
C20   O6    A    
C50   C53   A    
C80   S2    S    
C41   H35   S    
C29   H20   S    
C6    C84   S    
C79   H4    S    
Cr2   O2    S    
C81   H6    S    
C9    H51   S    
C72   H45   S    
C11   C83   S    
Cr4   O17   S    
C21   C74   S    
C22   C25   A    
C49   C58   A    
C31   C37   A    
Cr6   O17   S    
C60   C61   S    
C80   H5    S    
C68   H41   S    
Cr2   O8    S    
C35   O10   A    
C81   S3    S    
C67   H37   S    
C5    C8    S    
C44   C56   A    
C25   H10   S    
S3    O34   D    
C13   C76   S    
C23   C34   S    
C22   C40   A    
Cr6   O23   S    
C19   O5    A    
C64   C76   S    
C1    O3    A    
Cr2   O14   S    
C33   C39   A    
C65   H32   S    
Cr6   O6    S    
Cr2   O11   S    
S1    O29   S    
C72   C84   S    
C38   C41   A    
C66   H3    S    
C38   H29   S    
C66   C78   S    
C43   C55   A    
C63   O21   A    
C49   H25   S    
Cr4   O18   S    
C47   H17   S    
C8    C77   S    
Cr1   O16   S    
Cr4   O4    S    
C13   C16   T    
C67   H40   S    
C61   O22   A    
Cr3   O12   S    
C69   H42   S    
C81   C84   S    
C62   O25   A    
C45   C48   A    
C68   C77   S    
C33   C57   S    
C5    H56   S    
C30   C33   A    
Cr3   O9    S    
C59   C63   S    
C20   O19   A    
C28   C31   A    
Cr5   O25   S    
C69   C72   S    
C11   C74   T    
C21   O20   A    
C79   C82   S    
C52   C55   A    
C7    C76   S    
Cr2   O16   S    
C28   H19   S    
C37   C40   A    
C22   C36   S    
C27   H12   S    
C1    C17   S    
C23   C41   A    
S3    O35   S    
C30   H21   S    
C8    H50   S    
C67   C70   S    
C6    H9    S    
C51   C54   A    
C51   C60   A    
C19   C75   S    
Cr5   O22   S    
O35   H60   S    
C66   C81   S    
C7    H49   S    
C6    H57   S    
C48   H18   S    
C36   O15   A    
C68   C71   S    
C4    H55   S    
C46   H16   S    
C3    O9    A    
C64   C79   S    
S1    O28   D    
C10   C82   S    
C20   C73   S    
C8    H53   S    
C50   H26   S    
C9    C78   S    
C21   O4    A    
C1    O7    A    
C70   C82   S    
C43   C46   A    
C43   H13   S    
Cr5   O19   S    
C42   H36   S    
C47   C59   A    
S2    O30   D    
Cr3   O15   S    
C4    C82   S    
C5    H8    S    
C26   C29   A    
C69   H39   S    
O29   H58   S    
C12   C75   T    
C53   C56   A    
Cr4   O24   S    
C66   H33   S    
C67   C76   S    
C19   O18   A    
C64   H1    S    
C31   C55   S    
C32   C56   S    
C7    H52   S    
C3    C16   S    
C64   H31   S    
S2    O31   D    
C54   C57   A    
C34   O13   A    
