data_mof_unit_8197.cif
_audit_creation_date              2012-12-11T15:39:29-0500
_audit_creation_method            fapswitch 2.2
_symmetry_space_group_name_H-M    P1
_symmetry_Int_Tables_number       1
_space_group_crystal_system       triclinic
_cell_length_a                    6.952013
_cell_length_b                    15.153283
_cell_length_c                    16.564567
_cell_angle_alpha                 95.510421
_cell_angle_beta                  90.19522
_cell_angle_gamma                 90.361987
_cell_volume                      1736.89499333

loop_
_atom_site_label
_atom_site_type_symbol
_atom_type_description
_atom_site_fract_x
_atom_site_fract_y
_atom_site_fract_z
_atom_type_partial_charge
O1    O     O_R   0.633330 0.174290 0.828230 -0.534049
O2    O     O_R   0.366670 0.825710 0.171770 -0.532628
O3    O     O_R   0.301450 0.154140 0.662030 -0.545231
O4    O     O_R   0.698550 0.845860 0.337970 -0.527735
O5    O     O_R   0.133140 0.325730 0.671770 -0.536420
O6    O     O_R   0.866860 0.674270 0.328230 -0.540957
C1    C     C_R   0.470102 0.132218 0.633268 0.739449
C2    C     C_R   0.530056 0.866299 0.367978 0.729345
O7    O     O_R   0.303490 0.163670 0.827000 -0.541237
O8    O     O_R   0.696510 0.836330 0.173000 -0.541189
O9    O     O_R   0.135190 0.335320 0.837920 -0.539419
O10   O     O_R   0.864810 0.664680 0.162080 -0.539934
C3    C     C_R   0.472353 0.143234 0.853984 0.709224
C4    C     C_R   0.527642 0.856806 0.146057 0.711627
O11   O     O_R   0.631280 0.164690 0.662080 -0.530365
O12   O     O_R   0.368720 0.835310 0.337920 -0.535831
O13   O     O_3   0.467420 0.306310 0.753380 -0.369661
O14   O     O_3   0.532580 0.693690 0.246620 -0.372846
V1    V     V_3+5 0.191790 0.239560 0.749370 1.406498
V2    V     V_3+5 0.808210 0.760440 0.250630 1.423409
O15   O     O_R   0.805590 0.345870 0.837970 -0.542178
O16   O     O_R   0.194410 0.654130 0.162030 -0.541545
C5    C     C_R   0.975256 0.368451 0.866742 0.676683
C6    C     C_R   0.024736 0.631497 0.133307 0.677802
O17   O     O_R   0.803560 0.336340 0.672990 -0.532797
O18   O     O_R   0.196440 0.663660 0.327010 -0.536887
C7    C     C_R   0.972524 0.356844 0.646072 0.726583
C8    C     C_R   0.027518 0.643467 0.354169 0.720255
V3    V     V_3+5 0.692030 0.260450 0.750630 1.422796
V4    V     V_3+5 0.307970 0.739550 0.249370 1.412667
O19   O     O_3   0.966260 0.193700 0.746610 -0.371112
O20   O     O_3   0.033740 0.806300 0.253390 -0.361622
C9    C     C_1   0.983087 0.419468 0.584176 -0.198124
C10   C     C_1   0.017077 0.581944 0.416974 -0.209819
C11   C     C_1   0.993474 0.471160 0.532014 -0.008985
C12   C     C_1   0.006624 0.531146 0.469878 -0.016977
C13   C     C_3   0.822445 0.527138 0.021441 -0.112442
C14   C     C_3   0.177544 0.472753 0.978670 -0.112399
C15   C     C_3   0.914833 0.534174 0.937284 -0.142677
C16   C     C_3   0.085154 0.465721 0.062831 -0.142946
H1    H     H_    0.844408 0.562048 0.885198 0.102770
H2    H     H_    0.155551 0.437857 0.114932 0.102885
H3    H     H_    0.675539 0.549627 0.039226 0.111139
H4    H     H_    0.324453 0.450265 0.960892 0.111161
C17   C     C_3   0.988336 0.438619 0.937555 -0.007147
C18   C     C_3   0.011651 0.561277 0.062549 -0.007465
C19   C     C_3   0.896030 0.430790 0.020941 -0.142683
C20   C     C_3   0.103958 0.569100 0.979166 -0.142240
H5    H     H_    0.809889 0.373454 0.037776 0.102544
H6    H     H_    0.190089 0.626440 0.962334 0.103275
C21   C     C_3   0.649835 0.993315 0.554406 -0.301426
C22   C     C_3   0.351636 0.001897 0.449943 -0.329752
C23   C     C_3   0.501487 0.918319 0.531184 0.339319
C24   C     C_3   0.499344 0.077017 0.473882 0.304376
H7    H     H_    0.772853 0.990677 0.596710 0.180244
H8    H     H_    0.229670 0.003122 0.407281 0.177706
C25   C     C_3   0.518043 0.933489 0.440499 -0.271826
C26   C     C_3   0.482883 0.061574 0.563972 -0.286837
C27   C     C_3   0.664091 0.009156 0.463182 0.452712
C28   C     C_3   0.337938 0.986325 0.540997 0.451850
C29   C     C_1   0.482572 0.081260 0.916443 -0.200505
C30   C     C_1   0.517441 0.918889 0.083704 -0.196469
C31   C     C_1   0.493288 0.030109 0.969053 0.000221
C32   C     C_1   0.506755 0.970105 0.031153 -0.001595
O21   O     O_3   0.489914 0.842589 0.574454 -0.581338
C33   C     C_3   0.587559 0.768860 0.536568 0.066797
H9    H     H_    0.685809 0.744091 0.582252 0.137681
H10   H     H_    0.679522 0.783252 0.484648 0.112330
C34   C     C_3   0.438539 0.696738 0.511455 -0.311577
H11   H     H_    0.351739 0.683185 0.565208 0.197265
H12   H     H_    0.340060 0.720974 0.465800 0.202260
C35   C     C_3   0.531468 0.610635 0.476870 -0.789389
H13   H     H_    0.606979 0.620709 0.419746 0.246424
H14   H     H_    0.419494 0.558834 0.463372 0.231490
H15   H     H_    0.633829 0.587044 0.521507 0.229585
O22   O     O_3   0.509039 0.161082 0.444156 -0.586237
C36   C     C_3   0.330616 0.205084 0.448779 0.084603
H16   H     H_    0.343269 0.262422 0.495696 0.142354
H17   H     H_    0.206796 0.163744 0.465894 0.115030
C37   C     C_3   0.290057 0.238808 0.366272 -0.316584
H18   H     H_    0.420763 0.272243 0.345049 0.210266
H19   H     H_    0.255841 0.181690 0.321272 0.181320
C38   C     C_3   0.124783 0.304638 0.370196 -0.837300
H20   H     H_    0.996210 0.277397 0.398791 0.229962
H21   H     H_    0.086248 0.319977 0.307976 0.229812
H22   H     H_    0.170420 0.366949 0.405797 0.244019
O23   O     O_3   0.844959 0.011284 0.424134 -0.560972
C39   C     C_3   0.855057 0.077203 0.369414 0.112934
H23   H     H_    0.006009 0.080918 0.349092 0.110161
H24   H     H_    0.825525 0.143831 0.399979 0.162355
C40   C     C_3   0.732202 0.054888 0.292777 -0.304354
H25   H     H_    0.780857 0.990963 0.261427 0.206504
H26   H     H_    0.578065 0.048323 0.308283 0.187171
C41   C     C_3   0.751827 0.126780 0.234804 -0.838090
H27   H     H_    0.702923 0.191505 0.264614 0.238330
H28   H     H_    0.661759 0.109163 0.180066 0.233056
H29   H     H_    0.903933 0.133038 0.215681 0.229674
O24   O     O_3   0.156963 0.973632 0.576865 -0.560726
C42   C     C_3   0.175971 0.957381 0.659244 0.137180
H30   H     H_    0.099955 0.010911 0.696734 0.135233
H31   H     H_    0.327392 0.957385 0.681865 0.110649
C43   C     C_3   0.079471 0.868817 0.672199 -0.299141
H32   H     H_    0.924725 0.871046 0.655702 0.188828
H33   H     H_    0.146970 0.814660 0.632349 0.223514
C44   C     C_3   0.096970 0.848138 0.760265 -0.842592
H34   H     H_    0.250755 0.843084 0.777579 0.239716
H35   H     H_    0.024521 0.783932 0.767755 0.229704
H36   H     H_    0.027472 0.900869 0.801179 0.231505

loop_
_geom_bond_atom_site_label_1
_geom_bond_atom_site_label_2
_ccdc_geom_bond_type
C16   C19   S    
C33   H10   S    
O23   C39   S    
C5    C17   S    
O13   V3    S    
C11   C12   S    
O4    C2    A    
V1    O19   S    
C19   H5    S    
C36   H16   S    
C7    C9    S    
C16   C18   S    
C44   H35   S    
O9    V1    S    
O3    C1    A    
C37   C38   S    
C24   C26   S    
C25   C27   S    
C33   C34   S    
C26   C28   S    
C4    C30   S    
C43   C44   S    
C34   H12   S    
C17   C19   S    
C29   C31   T    
O7    C3    A    
C14   C17   S    
C30   C32   T    
C22   C28   S    
C9    C11   T    
O5    C7    A    
O7    V1    S    
O6    C8    A    
C42   H30   S    
O8    V2    S    
O3    V1    S    
O14   V4    S    
C13   C19   S    
C23   O21   S    
C1    C26   S    
C14   C20   S    
C15   C17   S    
C20   H6    S    
C33   H9    S    
C8    C10   S    
C2    O12   A    
C34   H11   S    
C35   H15   S    
C23   C28   S    
C22   C24   S    
O11   V3    S    
C24   C27   S    
C36   H17   S    
O17   V3    S    
C44   H36   S    
C18   C20   S    
C43   H32   S    
V4    O20   S    
O22   C36   S    
C35   H14   S    
O8    C4    A    
C40   H25   S    
C23   C25   S    
C37   H18   S    
C1    O11   A    
C41   H29   S    
O15   V3    S    
C21   C23   S    
C13   H3    S    
C34   C35   S    
C43   H33   S    
C14   H4    S    
C2    C25   S    
C40   H26   S    
C16   H2    S    
C38   H20   S    
C39   C40   S    
O10   V2    S    
O1    V3    S    
C38   H22   S    
C3    C29   S    
C21   C26   S    
C41   H28   S    
C24   O22   S    
C37   H19   S    
C38   H21   S    
C39   H24   S    
O18   V4    S    
O15   C5    A    
O16   C6    A    
C21   C27   S    
V2    O20   S    
C36   C37   S    
O16   V4    S    
C42   H31   S    
C35   H13   S    
O14   V2    S    
O5    V1    S    
O17   C7    A    
O6    V2    S    
C44   H34   S    
O10   C6    A    
O18   C8    A    
O2    V4    S    
C6    C18   S    
C13   C15   S    
C40   C41   S    
C14   C16   S    
O9    C5    A    
O13   V1    S    
C10   C12   T    
C21   H7    S    
O21   C33   S    
C41   H27   S    
O2    C4    A    
C27   O23   S    
C22   C25   S    
C31   C32   S    
O4    V2    S    
C42   C43   S    
O1    C3    A    
C39   H23   S    
C15   H1    S    
V3    O19   S    
O24   C42   S    
C28   O24   S    
C13   C18   S    
O12   V4    S    
C22   H8    S    
C15   C20   S    
