data_mof_unit_8245.cif
_audit_creation_date              2012-12-10T16:53:07-0500
_audit_creation_method            fapswitch 2.2
_symmetry_space_group_name_H-M    P1
_symmetry_Int_Tables_number       1
_space_group_crystal_system       triclinic
_cell_length_a                    10.832431
_cell_length_b                    10.927681
_cell_length_c                    9.825779
_cell_angle_alpha                 89.594788
_cell_angle_beta                  88.226091
_cell_angle_gamma                 92.205105
_cell_volume                      1161.65233355

loop_
_atom_site_label
_atom_site_type_symbol
_atom_type_description
_atom_site_fract_x
_atom_site_fract_y
_atom_site_fract_z
_atom_type_partial_charge
C1    C     C_R   0.503524 0.265819 0.499762 0.894495
C2    C     C_R   0.057835 0.507120 0.627911 0.071693
C3    C     C_R   0.128592 0.533453 0.506826 -0.140290
C4    C     C_R   0.065827 0.559146 0.386056 0.000566
C5    C     C_R   0.938632 0.535394 0.382841 -0.283652
C6    C     C_R   0.872244 0.488241 0.497324 -0.090267
C7    C     C_2   0.505101 0.934302 0.390082 -0.232703
C8    C     C_2   0.514746 0.866549 0.502446 -0.309944
C9    C     C_2   0.534871 0.065908 0.390159 0.036021
C10   C     C_2   0.499845 0.132996 0.499036 -0.316220
C11   C     C_2   0.402774 0.480079 0.925925 -0.186720
C12   C     C_R   0.263403 0.513945 0.501991 0.846317
C13   C     C_2   0.410758 0.453838 0.076093 0.115985
C14   C     C_R   0.501632 0.734334 0.500000 0.858851
C15   C     C_R   0.737178 0.492356 0.498598 0.793176
C16   C     C_R   0.103150 0.528248 0.758895 -0.147089
C17   C     C_R   0.039343 0.481200 0.874333 -0.160110
C18   C     C_R   0.929658 0.412844 0.860589 -0.142023
C19   C     C_R   0.877054 0.403909 0.733240 -0.140377
C20   C     C_R   0.934700 0.463847 0.618337 0.099550
Cu1   Cu    Cu3+1 0.500020 0.500020 0.638630 0.941709
Cu2   Cu    Cu3+1 0.499980 0.499980 0.361370 1.031046
H1    H     H_    0.454728 0.089107 0.587787 0.137852
H2    H     H_    0.313203 0.475681 0.881836 0.158457
H3    H     H_    0.578038 0.460476 0.879278 0.207895
H4    H     H_    0.183705 0.587466 0.772907 0.153965
H5    H     H_    0.075487 0.496897 0.973989 0.112019
H6    H     H_    0.882631 0.371437 0.949233 0.145164
H7    H     H_    0.790911 0.351268 0.726184 0.150118
H8    H     H_    0.890273 0.559887 0.292217 0.157494
H9    H     H_    0.481951 0.892266 0.294250 0.172073
H10   H     H_    0.540887 0.908059 0.597989 0.152752
N1    N     N_2   0.498640 0.498660 0.846910 -0.299328
N2    N     N_2   0.498610 0.498630 0.153040 -0.154064
O1    O     O_R   0.500020 0.321960 0.617040 -0.597380
O2    O     O_R   0.499980 0.321920 0.382900 -0.483365
O3    O     O_R   0.319670 0.500020 0.617100 -0.599787
O4    O     O_R   0.319630 0.499980 0.382950 -0.524157
O5    O     O_R   0.500020 0.678080 0.617100 -0.575948
O6    O     O_R   0.499980 0.678040 0.382960 -0.583173
O7    O     O_R   0.680370 0.500020 0.617050 -0.598661
O8    O     O_R   0.680330 0.499980 0.382900 -0.584083
C21   C     C_2   0.125288 0.624118 0.266556 0.371522
H11   H     H_    0.082955 0.617937 0.168230 0.037059
O9    O     O_2   0.216605 0.691850 0.278150 -0.536620
C22   C     C_2   0.306264 0.376845 0.133352 0.430764
H12   H     H_    0.215498 0.383109 0.091255 0.004818
O10   O     O_2   0.321123 0.299243 0.220189 -0.519661
C23   C     C_3   0.602789 0.575251 0.089586 -0.154360
C24   C     C_3   0.653908 0.689996 0.162434 -0.321877
C25   C     C_3   0.761691 0.751231 0.079471 -0.950383
H13   H     H_    0.838740 0.687519 0.067380 0.260560
H14   H     H_    0.731624 0.779385 0.977180 0.267964
H15   H     H_    0.796254 0.834269 0.133108 0.263881
H16   H     H_    0.580668 0.757674 0.170213 0.221359
H17   H     H_    0.691098 0.673034 0.262636 0.260420
H18   H     H_    0.680887 0.515351 0.064507 0.157447
H19   H     H_    0.572412 0.625311 0.000173 0.181062
C26   C     C_2   0.605137 0.115371 0.268167 0.438946
H20   H     H_    0.593925 0.071150 0.170503 0.047092
O11   O     O_2   0.682016 0.199437 0.276915 -0.547849

loop_
_geom_bond_atom_site_label_1
_geom_bond_atom_site_label_2
_ccdc_geom_bond_type
C13   N2    D    
Cu2   O4    S    
C21   H11   S    
C9    C26   S    
Cu1   O1    S    
C4    C21   S    
C10   H1    S    
C6    C20   A    
C9    C10   D    
C17   H5    S    
C24   H16   S    
Cu1   O5    S    
C11   N1    D    
C25   H15   S    
Cu2   O6    S    
Cu1   N1    S    
C17   C18   A    
C14   O5    A    
C23   H18   S    
C26   H20   S    
Cu1   Cu2   S    
C12   O4    A    
C4    C5    A    
C21   O9    D    
C15   O7    A    
Cu2   O8    S    
C2    C16   A    
Cu1   O7    S    
C5    C6    A    
C15   O8    A    
C2    C3    A    
C16   H4    S    
C13   C22   S    
Cu2   N2    S    
C22   O10   D    
C26   O11   D    
C11   C13   S    
C7    H9    S    
C23   H19   S    
C14   O6    A    
C25   H13   S    
C19   H7    S    
C11   H2    S    
C7    C8    D    
C18   H6    S    
C1    O1    A    
Cu1   O3    S    
C24   H17   S    
C23   C24   S    
C5    H8    S    
C12   O3    A    
C7    C9    S    
C22   H12   S    
C18   C19   A    
N2    C23   S    
C8    C14   S    
C3    C12   S    
C24   C25   S    
C6    C15   S    
C2    C20   A    
Cu2   O2    S    
C1    C10   S    
C19   C20   A    
C1    O2    A    
H3    N1    S    
C16   C17   A    
C25   H14   S    
C3    C4    A    
C8    H10   S    
