data_mof_unit_62326.cif
_audit_creation_date              2013-03-05T16:13:17-0500
_audit_creation_method            fapswitch 2.2
_symmetry_space_group_name_H-M    P1
_symmetry_Int_Tables_number       1
_space_group_crystal_system       triclinic
_cell_length_a                    30.394753
_cell_length_b                    30.416546
_cell_length_c                    18.360078
_cell_angle_alpha                 89.999975
_cell_angle_beta                  89.999971
_cell_angle_gamma                 90.0
_cell_volume                      16973.9545864

loop_
_atom_site_label
_atom_site_type_symbol
_atom_site_description
_atom_site_fract_x
_atom_site_fract_y
_atom_site_fract_z
_atom_type_partial_charge
O1    O     O_R   0.435730 0.037210 0.500000 -0.577135
O2    O     O_R   0.962790 0.435730 0.500000 -0.581762
O3    O     O_R   0.564270 0.962790 0.500000 -0.581461
O4    O     O_R   0.037210 0.564270 0.500000 -0.582007
O5    O     O_R   0.564270 0.037210 0.500000 -0.581462
O6    O     O_R   0.037210 0.435730 0.500000 -0.582006
O7    O     O_R   0.435730 0.962790 0.500000 -0.577135
O8    O     O_R   0.962790 0.564270 0.500000 -0.581762
O9    O     O_R   0.935730 0.537210 0.000000 -0.581461
O10   O     O_R   0.462790 0.935730 0.000000 -0.582007
O11   O     O_R   0.064270 0.462790 0.000000 -0.577135
O12   O     O_R   0.537210 0.064270 0.000000 -0.581762
O13   O     O_R   0.064270 0.537210 0.000000 -0.577135
O14   O     O_R   0.537210 0.935730 0.000000 -0.581762
O15   O     O_R   0.935730 0.462790 0.000000 -0.581460
O16   O     O_R   0.462790 0.064270 0.000000 -0.582007
C1    C     C_R   0.225736 1.000000 0.500000 0.025562
C2    C     C_R   0.999995 0.225769 0.499767 0.027220
C3    C     C_R   0.774270 1.000000 0.500000 0.028753
C4    C     C_R   0.999995 0.774231 0.500233 0.027220
C5    C     C_R   0.725730 0.500000 0.000000 0.028760
C6    C     C_R   0.500005 0.725769 0.000233 0.027220
C7    C     C_R   0.274264 0.500000 0.000000 0.025562
C8    C     C_R   0.500005 0.274230 0.999767 0.027220
C9    C     C_R   0.414990 0.000000 0.500000 0.793867
C10   C     C_R   1.000000 0.414893 0.499965 0.800336
C11   C     C_R   0.585095 0.000000 0.500000 0.799865
C12   C     C_R   1.000000 0.585107 0.500035 0.800335
C13   C     C_R   0.914905 0.500000 0.000000 0.799862
C14   C     C_R   0.500000 0.914893 0.000035 0.800336
C15   C     C_R   0.085010 0.500000 0.000000 0.793866
C16   C     C_R   0.500000 0.085107 0.999965 0.800335
O17   O     O_R   0.500010 0.037210 0.394200 -0.573675
O18   O     O_R   0.962790 0.500010 0.394200 -0.573431
O19   O     O_R   0.499990 0.962790 0.394200 -0.573887
O20   O     O_R   0.037210 0.499990 0.394200 -0.573957
O21   O     O_R   0.499990 0.037210 0.605800 -0.573887
O22   O     O_R   0.037210 0.500010 0.605800 -0.573957
O23   O     O_R   0.500010 0.962790 0.605800 -0.573675
O24   O     O_R   0.962790 0.499990 0.605800 -0.573431
O25   O     O_R   0.000010 0.537210 0.894200 -0.573887
O26   O     O_R   0.462790 0.000010 0.894200 -0.573958
O27   O     O_R   0.999990 0.462790 0.894200 -0.573675
O28   O     O_R   0.537210 0.999990 0.894200 -0.573430
O29   O     O_R   0.999990 0.537210 0.105800 -0.573675
O30   O     O_R   0.537210 0.000010 0.105800 -0.573430
O31   O     O_R   0.000010 0.462790 0.105800 -0.573887
O32   O     O_R   0.462790 0.999990 0.105800 -0.573957
C17   C     C_R   0.499997 1.000000 0.360224 0.833933
C18   C     C_R   0.000000 0.499999 0.360208 0.836639
C19   C     C_R   0.499997 0.000000 0.639776 0.833933
C20   C     C_R   0.000000 0.500000 0.639792 0.836639
C21   C     C_R   0.000003 0.500000 0.860224 0.833932
C22   C     C_R   0.500000 0.000000 0.860208 0.836639
C23   C     C_R   0.000003 0.500000 0.139776 0.833932
C24   C     C_R   0.500000 0.999999 0.139792 0.836640
Cu1   Cu    Cu3+1 0.500000 0.044060 0.500000 1.028452
Cu2   Cu    Cu3+1 0.955940 0.500000 0.500000 1.027654
Cu3   Cu    Cu3+1 0.500000 0.955940 0.500000 1.028452
Cu4   Cu    Cu3+1 0.044060 0.500000 0.500000 1.026117
Cu5   Cu    Cu3+1 0.000000 0.544060 0.000000 1.028453
Cu6   Cu    Cu3+1 0.455940 0.000000 0.000000 1.026116
Cu7   Cu    Cu3+1 0.000000 0.455940 0.000000 1.028453
Cu8   Cu    Cu3+1 0.544060 0.000000 0.000000 1.027655
O33   O     O_R   0.999990 0.935750 0.438770 -0.544940
O34   O     O_R   0.064250 0.999990 0.438770 -0.539471
O35   O     O_R   0.000010 0.064250 0.438770 -0.544788
O36   O     O_R   0.935750 0.000010 0.438770 -0.545708
O37   O     O_R   0.000010 0.935750 0.561230 -0.544788
O38   O     O_R   0.935750 0.999990 0.561230 -0.545708
O39   O     O_R   0.999990 0.064250 0.561230 -0.544940
O40   O     O_R   0.064250 0.000010 0.561230 -0.539470
O41   O     O_R   0.499990 0.435750 0.938770 -0.544788
O42   O     O_R   0.564250 0.499990 0.938770 -0.545709
O43   O     O_R   0.500010 0.564250 0.938770 -0.544940
O44   O     O_R   0.435750 0.500010 0.938770 -0.539470
O45   O     O_R   0.500010 0.435750 0.061230 -0.544940
O46   O     O_R   0.435750 0.499990 0.061230 -0.539471
O47   O     O_R   0.499990 0.564250 0.061230 -0.544788
O48   O     O_R   0.564250 0.500010 0.061230 -0.545709
C25   C     C_R   0.000035 0.914887 0.499987 0.907630
C26   C     C_R   0.085046 1.000000 0.500000 0.899633
C27   C     C_R   0.000035 0.085113 0.500012 0.907629
C28   C     C_R   0.914906 0.000000 0.500000 0.915173
C29   C     C_R   0.499965 0.414887 0.000012 0.907631
C30   C     C_R   0.585094 0.500000 1.000000 0.915174
C31   C     C_R   0.499965 0.585113 0.999988 0.907630
C32   C     C_R   0.414954 0.500000 0.000000 0.899633
C33   C     C_1   0.499997 0.999999 0.282667 -0.146272
C34   C     C_1   0.000002 0.499999 0.282651 -0.146635
C35   C     C_1   0.499997 0.000001 0.717333 -0.146272
C36   C     C_1   0.000002 0.500001 0.717348 -0.146636
C37   C     C_1   0.000003 0.500001 0.782667 -0.146272
C38   C     C_1   0.499998 0.000001 0.782651 -0.146635
C39   C     C_1   0.000003 0.499999 0.217333 -0.146272
C40   C     C_1   0.499998 0.999999 0.217348 -0.146636
C41   C     C_R   0.297820 0.031996 0.541036 -0.014852
C42   C     C_R   0.961209 0.297469 0.519143 -0.017102
C43   C     C_R   0.702535 0.961587 0.521159 -0.017232
C44   C     C_R   0.038753 0.702522 0.519688 -0.019920
C45   C     C_R   0.702535 0.038413 0.478841 -0.017232
C46   C     C_R   0.038753 0.297478 0.480312 -0.019920
C47   C     C_R   0.297820 0.968004 0.458964 -0.014852
C48   C     C_R   0.961209 0.702530 0.480857 -0.017102
C49   C     C_R   0.797465 0.538412 0.021168 -0.017240
C50   C     C_R   0.461247 0.797477 0.019687 -0.019920
C51   C     C_R   0.202180 0.468004 0.041036 -0.014852
C52   C     C_R   0.538791 0.202530 0.019143 -0.017102
C53   C     C_R   0.202180 0.531996 0.958964 -0.014852
C54   C     C_R   0.538791 0.797469 0.980857 -0.017102
C55   C     C_R   0.797465 0.461589 0.978834 -0.017233
C56   C     C_R   0.461247 0.202522 0.980313 -0.019920
C57   C     C_R   0.343839 0.032269 0.538437 -0.197938
C58   C     C_R   0.961675 0.343451 0.517548 -0.196916
C59   C     C_R   0.656529 0.962007 0.519408 -0.196988
C60   C     C_R   0.038303 0.656539 0.517932 -0.197045
C61   C     C_R   0.656529 0.037993 0.480592 -0.196988
C62   C     C_R   0.038303 0.343461 0.482068 -0.197045
C63   C     C_R   0.343838 0.967731 0.461562 -0.197937
C64   C     C_R   0.961675 0.656548 0.482452 -0.196917
C65   C     C_R   0.843471 0.537992 0.019417 -0.196989
C66   C     C_R   0.461697 0.843461 0.017931 -0.197045
C67   C     C_R   0.156161 0.467731 0.038437 -0.197938
C68   C     C_R   0.538325 0.156548 0.017547 -0.196917
C69   C     C_R   0.156161 0.532269 0.961562 -0.197938
C70   C     C_R   0.538325 0.843451 0.982453 -0.196916
C71   C     C_R   0.843471 0.462008 0.980584 -0.196987
C72   C     C_R   0.461697 0.156539 0.982068 -0.197045
H1    H     H_    0.362100 0.056594 0.569247 0.190293
H2    H     H_    0.932278 0.361484 0.532474 0.200565
H3    H     H_    0.638464 0.932888 0.535609 0.200140
H4    H     H_    0.067706 0.638496 0.532789 0.200475
H5    H     H_    0.638464 0.067112 0.464391 0.200140
H6    H     H_    0.067706 0.361504 0.467211 0.200475
H7    H     H_    0.362100 0.943406 0.430753 0.190293
H8    H     H_    0.932278 0.638516 0.467526 0.200565
H9    H     H_    0.861536 0.567109 0.035624 0.200146
H10   H     H_    0.432294 0.861504 0.032788 0.200475
H11   H     H_    0.137900 0.443406 0.069247 0.190293
H12   H     H_    0.567722 0.138516 0.032474 0.200566
H13   H     H_    0.137900 0.556594 0.930753 0.190293
H14   H     H_    0.567722 0.861484 0.967526 0.200566
H15   H     H_    0.861536 0.432891 0.964377 0.200138
H16   H     H_    0.432294 0.138496 0.967212 0.200475
C73   C     C_R   0.366806 1.000000 0.500000 -0.071248
C74   C     C_R   0.999995 0.366550 0.499866 -0.081233
C75   C     C_R   0.633440 0.000000 0.500000 -0.080970
C76   C     C_R   0.999995 0.633450 0.500134 -0.081233
C77   C     C_R   0.866560 0.500000 0.000000 -0.080969
C78   C     C_R   0.500005 0.866550 0.000133 -0.081232
C79   C     C_R   0.133194 0.500000 0.000000 -0.071247
C80   C     C_R   0.500005 0.133450 0.999866 -0.081233
Cu9   Cu    Cu3+1 0.000000 1.000000 0.427490 1.214692
Cu10  Cu    Cu3+1 0.000000 0.000000 0.572510 1.214692
Cu11  Cu    Cu3+1 0.500000 0.500000 0.927490 1.214692
Cu12  Cu    Cu3+1 0.500000 0.500000 0.072510 1.214692
C81   C     C_R   0.274319 1.000000 0.500000 -0.028967
C82   C     C_R   0.999977 0.274128 0.499693 -0.031369
C83   C     C_R   0.725891 1.000000 0.500000 -0.031256
C84   C     C_R   0.999977 0.725872 0.500306 -0.031369
C85   C     C_R   0.774109 0.500000 0.000000 -0.031260
C86   C     C_R   0.500023 0.774128 0.000306 -0.031369
C87   C     C_R   0.225681 0.500000 0.000000 -0.028967
C88   C     C_R   0.500023 0.225872 0.999694 -0.031369
C89   C     C_R   0.202742 0.036188 0.472802 -0.120244
C90   C     C_R   0.975885 0.202866 0.447428 -0.121018
C91   C     C_R   0.797127 0.974879 0.448913 -0.120455
C92   C     C_R   0.024036 0.797020 0.447675 -0.116631
C93   C     C_R   0.797127 0.025121 0.551087 -0.120455
C94   C     C_R   0.024036 0.202980 0.552325 -0.116631
C95   C     C_R   0.202741 0.963812 0.527197 -0.120244
C96   C     C_R   0.975885 0.797134 0.552572 -0.121018
C97   C     C_R   0.702873 0.525122 0.948915 -0.120440
C98   C     C_R   0.475965 0.702980 0.947674 -0.116631
C99   C     C_R   0.297258 0.463812 0.972803 -0.120245
C100  C     C_R   0.524114 0.297134 0.947428 -0.121019
C101  C     C_R   0.297258 0.536188 0.027197 -0.120244
C102  C     C_R   0.524114 0.702866 0.052572 -0.121019
C103  C     C_R   0.702873 0.474878 0.051085 -0.120459
C104  C     C_R   0.475964 0.297020 0.052325 -0.116631
H17   H     H_    0.220839 0.064088 0.451568 0.175000
H18   H     H_    0.956798 0.220984 0.407614 0.176734
H19   H     H_    0.778949 0.955043 0.410196 0.176804
H20   H     H_    0.043039 0.778804 0.407871 0.176811
H21   H     H_    0.778949 0.044957 0.589804 0.176804
H22   H     H_    0.043039 0.221196 0.592129 0.176811
H23   H     H_    0.220839 0.935912 0.548432 0.175000
H24   H     H_    0.956798 0.779015 0.592386 0.176734
H25   H     H_    0.721051 0.544959 0.910198 0.176803
H26   H     H_    0.456962 0.721196 0.907871 0.176811
H27   H     H_    0.279161 0.435912 0.951568 0.175000
H28   H     H_    0.543202 0.279016 0.907613 0.176734
H29   H     H_    0.279161 0.564088 0.048432 0.175000
H30   H     H_    0.543202 0.720984 0.092386 0.176734
H31   H     H_    0.721051 0.455041 0.089801 0.176804
H32   H     H_    0.456962 0.278804 0.092129 0.176811
C105  C     C_R   0.156740 0.036869 0.472701 0.309275
C106  C     C_R   0.974697 0.156938 0.447862 0.314632
C107  C     C_R   0.843084 0.973711 0.449255 0.312132
C108  C     C_R   0.025168 0.842952 0.447714 0.315898
C109  C     C_R   0.843084 0.026289 0.550744 0.312132
C110  C     C_R   0.025168 0.157048 0.552286 0.315898
C111  C     C_R   0.156740 0.963131 0.527299 0.309275
C112  C     C_R   0.974697 0.843062 0.552138 0.314631
C113  C     C_R   0.656916 0.526290 0.949256 0.312131
C114  C     C_R   0.474832 0.657048 0.947713 0.315899
C115  C     C_R   0.343260 0.463131 0.972702 0.309275
C116  C     C_R   0.525303 0.343062 0.947862 0.314633
C117  C     C_R   0.343260 0.536869 0.027298 0.309275
C118  C     C_R   0.525303 0.656937 0.052138 0.314633
C119  C     C_R   0.656916 0.473710 0.050743 0.312131
C120  C     C_R   0.474832 0.342952 0.052287 0.315899
C121  C     C_R   0.133298 1.000000 0.500000 -0.232659
C122  C     C_R   0.999991 0.133509 0.500050 -0.232069
C123  C     C_R   0.866537 0.000000 0.500000 -0.231114
C124  C     C_R   0.999991 0.866491 0.499950 -0.232068
C125  C     C_R   0.633463 0.500000 1.000000 -0.231114
C126  C     C_R   0.500009 0.633509 0.999950 -0.232068
C127  C     C_R   0.366702 0.500000 0.000000 -0.232659
C128  C     C_R   0.500009 0.366491 0.000050 -0.232068
C129  C     C_2   0.275894 0.064758 0.589164 0.862942
O49   O     O_2   0.240914 0.056161 0.618837 -0.546068
O50   O     O_R   0.296224 0.105220 0.602516 -0.738047
H33   H     H_    0.278489 0.124587 0.636550 0.363180
C130  C     C_2   0.919868 0.275368 0.543036 0.863542
O51   O     O_2   0.920911 0.239256 0.572257 -0.545687
O52   O     O_R   0.879477 0.296712 0.533844 -0.739860
H34   H     H_    0.853780 0.278732 0.552629 0.362451
C131  C     C_2   0.724645 0.920708 0.547018 0.863375
O53   O     O_2   0.760732 0.922270 0.576349 -0.545965
O54   O     O_R   0.703334 0.880190 0.539571 -0.739807
H35   H     H_    0.721317 0.854849 0.559600 0.362387
C132  C     C_2   0.080094 0.724622 0.543603 0.867129
O55   O     O_2   0.079055 0.760763 0.572727 -0.539892
O56   O     O_R   0.120480 0.703252 0.534524 -0.739637
H36   H     H_    0.146175 0.721239 0.553301 0.364605
C133  C     C_2   0.724645 0.079292 0.452982 0.863374
O57   O     O_2   0.760732 0.077729 0.423651 -0.545965
O58   O     O_R   0.703334 0.119810 0.460429 -0.739807
H37   H     H_    0.721317 0.145150 0.440401 0.362387
C134  C     C_2   0.080094 0.275378 0.456396 0.867128
O59   O     O_2   0.079055 0.239236 0.427272 -0.539891
O60   O     O_R   0.120480 0.296747 0.465475 -0.739637
H38   H     H_    0.146175 0.278761 0.446698 0.364604
C135  C     C_2   0.275894 0.935242 0.410836 0.862941
O61   O     O_2   0.240914 0.943839 0.381163 -0.546068
O62   O     O_R   0.296224 0.894779 0.397484 -0.738047
H39   H     H_    0.278489 0.875413 0.363450 0.363180
C136  C     C_2   0.919868 0.724632 0.456964 0.863542
O63   O     O_2   0.920911 0.760744 0.427743 -0.545688
O64   O     O_R   0.879477 0.703288 0.466156 -0.739859
H40   H     H_    0.853780 0.721268 0.447371 0.362451
C137  C     C_2   0.775356 0.579289 0.047036 0.863381
O65   O     O_2   0.739264 0.577725 0.076354 -0.545970
O66   O     O_R   0.796671 0.619806 0.039614 -0.739811
H41   H     H_    0.778687 0.645146 0.059647 0.362387
C138  C     C_2   0.419906 0.775378 0.043602 0.867128
O67   O     O_2   0.420945 0.739236 0.072726 -0.539891
O68   O     O_R   0.379520 0.796747 0.034522 -0.739637
H42   H     H_    0.353825 0.778761 0.053299 0.364605
C139  C     C_2   0.224106 0.435242 0.089164 0.862942
O69   O     O_2   0.259085 0.443839 0.118837 -0.546068
O70   O     O_R   0.203776 0.394779 0.102516 -0.738047
H43   H     H_    0.221511 0.375413 0.136550 0.363180
C140  C     C_2   0.580132 0.224632 0.043035 0.863542
O71   O     O_2   0.579089 0.260744 0.072257 -0.545687
O72   O     O_R   0.620523 0.203288 0.033842 -0.739859
H44   H     H_    0.646220 0.221268 0.052627 0.362451
C141  C     C_2   0.224106 0.564758 0.910836 0.862942
O73   O     O_2   0.259085 0.556161 0.881163 -0.546068
O74   O     O_R   0.203776 0.605220 0.897484 -0.738047
H45   H     H_    0.221511 0.624587 0.863450 0.363180
C142  C     C_2   0.580132 0.775368 0.956964 0.863543
O75   O     O_2   0.579090 0.739256 0.927743 -0.545688
O76   O     O_R   0.620523 0.796712 0.966158 -0.739858
H46   H     H_    0.646220 0.778732 0.947373 0.362450
C143  C     C_2   0.775355 0.420712 0.952967 0.863376
O77   O     O_2   0.739267 0.422276 0.923638 -0.545967
O78   O     O_R   0.796666 0.380193 0.960404 -0.739807
H47   H     H_    0.778683 0.354854 0.940371 0.362387
C144  C     C_2   0.419906 0.224622 0.956398 0.867129
O79   O     O_2   0.420945 0.260763 0.927274 -0.539892
O80   O     O_R   0.379520 0.203252 0.965477 -0.739637
H48   H     H_    0.353825 0.221239 0.946700 0.364605
N1    N     N_R   0.134826 0.075929 0.447403 0.138244
O81   O     O_R   0.103329 0.073433 0.399679 -0.310975
O82   O     O_R   0.151316 0.114364 0.462419 -0.281421
N2    N     N_R   0.946263 0.134903 0.397022 0.147760
O83   O     O_R   0.919460 0.104428 0.419495 -0.310520
O84   O     O_R   0.941669 0.150257 0.331303 -0.294811
N3    N     N_R   0.865129 0.944427 0.399762 0.147438
O85   O     O_R   0.896119 0.918530 0.423207 -0.313611
O86   O     O_R   0.849458 0.938289 0.334591 -0.293988
N4    N     N_R   0.053186 0.864851 0.396067 0.150500
O87   O     O_R   0.079661 0.895889 0.417409 -0.310759
O88   O     O_R   0.057629 0.849043 0.330615 -0.294230
N5    N     N_R   0.865129 0.055572 0.600238 0.147437
O89   O     O_R   0.849458 0.061711 0.665409 -0.293988
O90   O     O_R   0.896119 0.081470 0.576793 -0.313612
N6    N     N_R   0.053186 0.135149 0.603933 0.150500
O91   O     O_R   0.079661 0.104111 0.582590 -0.310759
O92   O     O_R   0.057629 0.150957 0.669385 -0.294230
N7    N     N_R   0.134826 0.924070 0.552597 0.138244
O93   O     O_R   0.103329 0.926566 0.600321 -0.310975
O94   O     O_R   0.151317 0.885636 0.537581 -0.281421
N8    N     N_R   0.946263 0.865096 0.602978 0.147760
O95   O     O_R   0.941669 0.849743 0.668697 -0.294811
O96   O     O_R   0.919460 0.895572 0.580505 -0.310519
N9    N     N_R   0.634871 0.555574 0.899764 0.147437
O97   O     O_R   0.603880 0.581471 0.923210 -0.313613
O98   O     O_R   0.650542 0.561714 0.834593 -0.293989
N10   N     N_R   0.446814 0.635149 0.896066 0.150498
O99   O     O_R   0.420339 0.604111 0.917409 -0.310758
O100  O     O_R   0.442372 0.650957 0.830614 -0.294230
N11   N     N_R   0.365174 0.424070 0.947404 0.138244
O101  O     O_R   0.396671 0.426566 0.899680 -0.310976
O102  O     O_R   0.348683 0.385635 0.962420 -0.281421
N12   N     N_R   0.553737 0.365096 0.897021 0.147759
O103  O     O_R   0.580539 0.395572 0.919493 -0.310518
O104  O     O_R   0.558330 0.349743 0.831303 -0.294811
N13   N     N_R   0.365174 0.575930 0.052596 0.138243
O105  O     O_R   0.396671 0.573434 0.100320 -0.310976
O106  O     O_R   0.348683 0.614364 0.037580 -0.281421
N14   N     N_R   0.553737 0.634903 0.102979 0.147759
O107  O     O_R   0.558330 0.650257 0.168697 -0.294812
O108  O     O_R   0.580539 0.604428 0.080506 -0.310518
N15   N     N_R   0.634871 0.444426 0.100235 0.147438
O109  O     O_R   0.650543 0.438286 0.165406 -0.293988
O110  O     O_R   0.603880 0.418529 0.076790 -0.313614
N16   N     N_R   0.446814 0.364851 0.103934 0.150500
O111  O     O_R   0.420339 0.395889 0.082591 -0.310758
O112  O     O_R   0.442372 0.349043 0.169386 -0.294230

loop_
_geom_bond_atom_site_label_1
_geom_bond_atom_site_label_2
_geom_bond_distance
_ccdc_geom_bond_type
O50   H33   1.013928 S    
C55   C85   1.421270 A    
C99   C115  1.398353 A    
C61   H5    1.083705 S    
O47   C31   1.291123 A    
C2    C90   1.394895 A    
O27   Cu7   1.953640 S    
C34   C39   1.199260 T    
N7    O94   1.301509 A    
C103  H31   1.083808 S    
O28   Cu8   1.953624 S    
C52   C88   1.421294 A    
C107  N3    1.438078 S    
O45   Cu12  1.965206 S    
C42   C58   1.398989 A    
C25   C124  1.472043 S    
Cu2   Cu4   2.678383 S    
O74   H45   1.013929 S    
Cu5   Cu7   2.680303 S    
O48   C30   1.290416 A    
O4    C12   1.296473 A    
C18   C34   1.423949 S    
N3    O85   1.301164 A    
N14   O107  1.301328 A    
C108  C124  1.420578 A    
C49   C137  1.491010 S    
O38   C28   1.290415 A    
C114  N10   1.438057 S    
C104  H32   1.083816 S    
C135  O61   1.222927 D    
C58   H2    1.083667 S    
C8    C88   1.470890 S    
C3    C91   1.395075 A    
C52   C68   1.398992 A    
O7    Cu3   1.964550 S    
O13   C15   1.295521 A    
C106  N2    1.437840 S    
C2    C94   1.394845 A    
C56   C88   1.421300 A    
C136  O64   1.398957 S    
N16   O111  1.300920 A    
O70   H43   1.013928 S    
C53   C87   1.423046 A    
C47   C81   1.423045 A    
C120  C128  1.420580 A    
C21   C37   1.423942 S    
C90   C106  1.397476 A    
C131  O53   1.222857 D    
O34   C26   1.289698 A    
O10   C14   1.296473 A    
N7    O93   1.300010 A    
O14   Cu8   1.965927 S    
O41   Cu11  1.965206 S    
N8    O95   1.301327 A    
O2    C10   1.296460 A    
C71   H15   1.083706 S    
C110  C122  1.420579 A    
C72   H16   1.083657 S    
C101  H29   1.083847 S    
C4    C96   1.394896 A    
C64   C76   1.398417 A    
C5    C97   1.395073 A    
C141  O74   1.398797 S    
O8    C12   1.296460 A    
C106  C122  1.420217 A    
O20   C18   1.291746 A    
N6    O91   1.300922 A    
C137  O66   1.398959 S    
C120  N16   1.438060 S    
C108  N4    1.438060 S    
C111  C121  1.420032 A    
O34   Cu9   1.963811 S    
O40   Cu10  1.963810 S    
O44   Cu11  1.963813 S    
O37   Cu10  1.965206 S    
C32   C127  1.466629 S    
O35   Cu9   1.965203 S    
C100  C116  1.397476 A    
C33   C40   1.199260 T    
C3    C83   1.470465 S    
N1    O82   1.301508 A    
C35   C38   1.199260 T    
O31   Cu7   1.953638 S    
C65   C77   1.398199 A    
C94   C110  1.397526 A    
Cu1   Cu3   2.680303 S    
C13   C77   1.469422 S    
O43   Cu11  1.965203 S    
C5    C103  1.395076 A    
N13   O105  1.300010 A    
C4    C84   1.470890 S    
Cu11  Cu12  2.662577 S    
O18   Cu2   1.953624 S    
C138  O68   1.398957 S    
O17   C17   1.292331 A    
O21   Cu1   1.953638 S    
O23   C19   1.292331 A    
O35   C27   1.291123 A    
C43   C83   1.421267 A    
C90   H18   1.083811 S    
C46   C82   1.421301 A    
C54   C86   1.421296 A    
C113  C125  1.419713 A    
C136  O63   1.222849 D    
C47   C135  1.489294 S    
C107  C123  1.419714 A    
C55   C143  1.491003 S    
N3    O86   1.301341 A    
O11   Cu7   1.964547 S    
C139  O69   1.222924 D    
O12   Cu8   1.965924 S    
C67   H11   1.084206 S    
N10   O99   1.300924 A    
C102  C118  1.397476 A    
C134  O59   1.222865 D    
C65   H9    1.083704 S    
C104  C120  1.397526 A    
N12   O104  1.301326 A    
C69   C79   1.395961 A    
O5    C11   1.296777 A    
C72   C80   1.398464 A    
C69   H13   1.084206 S    
C16   C80   1.470437 S    
C8    C104  1.394844 A    
C53   C141  1.489293 S    
C1    C81   1.476647 S    
C132  O55   1.222863 D    
O26   Cu6   1.953624 S    
C62   H6    1.083656 S    
O8    Cu2   1.965924 S    
O45   C29   1.290726 A    
C143  O77   1.222859 D    
N5    O90   1.301164 A    
O4    Cu4   1.965924 S    
C43   C131  1.491002 S    
C142  O75   1.222848 D    
O39   C27   1.290725 A    
O3    C11   1.296779 A    
N9    O98   1.301341 A    
C7    C101  1.396213 A    
C45   C133  1.491003 S    
C117  C127  1.420030 A    
O36   Cu9   1.963813 S    
C51   C139  1.489295 S    
O39   Cu10  1.965203 S    
C117  N13   1.439077 S    
N2    O84   1.301328 A    
C129  O49   1.222926 D    
O1    Cu1   1.964550 S    
C26   C121  1.466629 S    
C15   C79   1.464532 S    
O32   Cu6   1.953622 S    
C60   H4    1.083655 S    
O78   H47   1.013947 S    
O41   C29   1.291123 A    
C50   C66   1.399088 A    
C140  O72   1.398957 S    
O25   C21   1.292323 A    
C54   C70   1.398992 A    
O22   Cu4   1.953622 S    
O43   C31   1.290726 A    
C51   C87   1.423044 A    
C49   C85   1.421275 A    
C27   C122  1.472043 S    
C98   C114  1.397526 A    
O18   C18   1.291759 A    
O72   H44   1.013947 S    
C144  O80   1.398958 S    
C112  C124  1.420217 A    
C118  N14   1.437838 S    
C143  O78   1.398952 S    
C71   C77   1.398195 A    
C70   C78   1.398415 A    
O46   Cu12  1.963814 S    
O6    C10   1.296473 A    
C130  O52   1.398957 S    
O28   C22   1.291760 A    
O29   C23   1.292330 A    
N14   O108  1.301213 A    
O30   C24   1.291759 A    
O80   H48   1.013950 S    
C91   C107  1.397318 A    
O68   H42   1.013953 S    
O58   H37   1.013948 S    
C44   C60   1.399085 A    
C51   C67   1.399553 A    
O64   H40   1.013948 S    
C102  H30   1.083812 S    
N16   O112  1.301347 A    
C66   C78   1.398464 A    
C29   C128  1.472043 S    
C43   C59   1.398762 A    
N4    O87   1.300919 A    
C6    C86   1.470890 S    
C14   C78   1.470437 S    
C7    C99   1.396210 A    
C109  N5    1.438075 S    
O60   H38   1.013953 S    
C59   C75   1.398200 A    
O19   Cu3   1.953640 S    
C31   C126  1.472043 S    
C57   C73   1.395961 A    
C96   C112  1.397476 A    
C19   C35   1.423942 S    
O27   C21   1.292330 A    
C42   C82   1.421296 A    
C50   C138  1.491155 S    
N8    O96   1.301214 A    
O56   H36   1.013952 S    
Cu6   Cu8   2.678383 S    
C28   C123  1.470167 S    
C42   C130  1.491066 S    
N11   O101  1.300012 A    
C141  O73   1.222925 D    
C44   C132  1.491157 S    
O10   Cu6   1.965927 S    
C48   C84   1.421296 A    
N6    O92   1.301347 A    
O15   C13   1.296779 A    
C119  C125  1.419715 A    
C67   C79   1.395964 A    
C12   C76   1.470437 S    
O36   C28   1.290416 A    
O24   Cu2   1.953622 S    
C66   H10   1.083656 S    
C60   C76   1.398464 A    
C70   H14   1.083666 S    
C63   H7    1.084207 S    
O25   Cu5   1.953640 S    
C64   H8    1.083665 S    
N1    O81   1.300011 A    
C2    C82   1.470890 S    
C89   C105  1.398353 A    
C54   C142  1.491065 S    
O33   C25   1.290725 A    
O23   Cu3   1.953638 S    
C94   H22   1.083817 S    
C115  N11   1.439080 S    
C98   H26   1.083818 S    
C135  O62   1.398797 S    
O9    Cu5   1.964550 S    
C20   C36   1.423949 S    
O16   C16   1.296473 A    
C105  C121  1.420030 A    
O46   C32   1.289698 A    
C24   C40   1.423949 S    
C48   C136  1.491066 S    
C92   C108  1.397526 A    
C68   H12   1.083663 S    
C113  N9    1.438077 S    
O2    Cu2   1.965927 S    
C63   C73   1.395963 A    
C110  N6    1.438061 S    
O7    C9    1.295523 A    
O5    Cu1   1.964547 S    
C61   C75   1.398198 A    
C45   C61   1.398762 A    
N15   O109  1.301340 A    
C131  O54   1.398949 S    
C1    C89   1.396210 A    
O26   C22   1.291746 A    
C137  O65   1.222860 D    
O29   Cu5   1.953638 S    
C36   C37   1.199260 T    
N10   O100  1.301348 A    
O42   Cu11  1.963811 S    
C56   C144  1.491157 S    
C50   C86   1.421300 A    
C95   C111  1.398353 A    
C52   C140  1.491066 S    
C56   C72   1.399088 A    
O37   C25   1.291123 A    
C93   C109  1.397318 A    
C45   C83   1.421270 A    
C97   C113  1.397321 A    
C48   C64   1.398989 A    
C116  C128  1.420218 A    
N5    O89   1.301341 A    
C6    C102  1.394895 A    
C59   H3    1.083705 S    
N9    O97   1.301164 A    
C114  C126  1.420580 A    
C57   H1    1.084206 S    
C138  O67   1.222866 D    
C112  N8    1.437840 S    
C99   H27   1.083845 S    
O21   C19   1.292322 A    
C100  H28   1.083813 S    
O22   C20   1.291746 A    
C119  N15   1.438079 S    
C103  C119  1.397318 A    
C10   C74   1.470437 S    
C101  C117  1.398353 A    
C109  C123  1.419712 A    
C142  O76   1.398956 S    
O47   Cu12  1.965203 S    
C91   H19   1.083807 S    
O52   H34   1.013946 S    
C92   H20   1.083817 S    
O33   Cu9   1.965206 S    
C8    C100  1.394896 A    
C140  O71   1.222849 D    
O44   C32   1.289699 A    
C46   C62   1.399086 A    
O9    C13   1.296777 A    
C68   C80   1.398416 A    
O11   C15   1.295523 A    
O12   C16   1.296460 A    
O1    C9    1.295521 A    
O16   Cu6   1.965924 S    
O14   C14   1.296460 A    
C6    C98   1.394843 A    
O48   Cu12  1.963810 S    
C7    C87   1.476647 S    
C4    C92   1.394845 A    
N11   O102  1.301506 A    
C5    C85   1.470462 S    
C111  N7    1.439079 S    
O6    Cu4   1.965927 S    
C62   C74   1.398463 A    
C58   C74   1.398416 A    
C23   C39   1.423942 S    
C139  O70   1.398795 S    
N13   O106  1.301509 A    
C144  O79   1.222862 D    
O24   C20   1.291760 A    
O30   Cu8   1.953622 S    
C134  O60   1.398956 S    
C30   C125  1.470167 S    
C41   C81   1.423043 A    
O19   C17   1.292322 A    
N12   O103  1.301213 A    
C44   C84   1.421301 A    
C130  O51   1.222850 D    
C49   C65   1.398766 A    
C46   C134  1.491157 S    
O42   C30   1.290415 A    
C132  O56   1.398956 S    
C53   C69   1.399553 A    
O76   H46   1.013951 S    
C133  O58   1.398949 S    
C55   C71   1.398766 A    
C41   C57   1.399553 A    
O66   H41   1.013948 S    
O31   C23   1.292323 A    
O32   C24   1.291746 A    
O17   Cu1   1.953640 S    
O38   Cu10  1.963814 S    
C116  N12   1.437837 S    
C47   C63   1.399553 A    
C3    C93   1.395076 A    
C17   C33   1.423942 S    
O20   Cu4   1.953624 S    
C105  N1    1.439079 S    
O62   H39   1.013929 S    
C1    C95   1.396212 A    
C115  C127  1.420033 A    
C118  C126  1.420218 A    
C95   H23   1.083846 S    
C89   H17   1.083846 S    
N2    O83   1.301213 A    
C93   H21   1.083809 S    
C129  O50   1.398797 S    
N4    O88   1.301349 A    
N15   O110  1.301163 A    
C96   H24   1.083812 S    
C97   H25   1.083808 S    
C41   C129  1.489295 S    
C22   C38   1.423949 S    
O13   Cu5   1.964547 S    
C11   C75   1.469422 S    
O54   H35   1.013947 S    
O15   Cu7   1.964550 S    
C9    C73   1.464532 S    
Cu9   Cu10  2.662577 S    
C133  O57   1.222857 D    
O40   C26   1.289699 A    
O3    Cu3   1.964547 S    
