data_mof_unit_23450.cif
_audit_creation_date              2013-03-05T16:43:03-0500
_audit_creation_method            fapswitch 2.2
_symmetry_space_group_name_H-M    P1
_symmetry_Int_Tables_number       1
_space_group_crystal_system       triclinic
_cell_length_a                    10.691993
_cell_length_b                    10.702363
_cell_length_c                    9.967156
_cell_angle_alpha                 88.985608
_cell_angle_beta                  89.667057
_cell_angle_gamma                 90.794282
_cell_volume                      1140.22833526

loop_
_atom_site_label
_atom_site_type_symbol
_atom_site_description
_atom_site_fract_x
_atom_site_fract_y
_atom_site_fract_z
_atom_type_partial_charge
O1    O     O_R   0.500020 0.316790 0.614690 -0.585330
O2    O     O_R   0.500000 0.316760 0.385350 -0.576316
C1    C     C_R   0.508112 0.260083 0.500216 0.911988
O3    O     O_R   0.314800 0.500000 0.614670 -0.590519
O4    O     O_R   0.314790 0.499960 0.385330 -0.627809
C2    C     C_R   0.257601 0.503521 0.500375 0.905836
Zn1   Zn    Zn3+2 0.500010 0.500020 0.653130 1.045025
Zn2   Zn    Zn3+2 0.499990 0.499980 0.346870 1.023360
O5    O     O_R   0.500000 0.683240 0.614650 -0.596530
O6    O     O_R   0.499980 0.683210 0.385310 -0.625644
O7    O     O_R   0.685210 0.500040 0.614670 -0.649095
O8    O     O_R   0.685200 0.500000 0.385330 -0.628413
C3    C     C_R   0.506585 0.739738 0.498779 0.920289
C4    C     C_R   0.741522 0.499713 0.499431 0.909826
C5    C     C_3   0.069628 0.394438 0.588799 -0.377522
H1    H     H_    0.107229 0.399053 0.691466 0.207170
H2    H     H_    0.101594 0.304751 0.546285 0.239861
C6    C     C_3   0.926427 0.398901 0.597337 0.119237
H3    H     H_    0.902054 0.427288 0.701392 0.125935
H4    H     H_    0.885547 0.646595 0.650019 0.171585
C7    C     C_3   0.069416 0.632667 0.552849 0.083624
C8    C     C_3   0.070987 0.488243 0.356964 -0.432569
C9    C     C_3   0.120088 0.505356 0.501614 -0.071142
H5    H     H_    0.103063 0.568613 0.292704 0.199372
H6    H     H_    0.107023 0.400383 0.315727 0.250122
C10   C     C_3   0.877286 0.502021 0.498472 -0.082276
C11   C     C_3   0.924745 0.631446 0.548012 0.005861
C12   C     C_3   0.929124 0.482009 0.354797 -0.344249
H7    H     H_    0.896937 0.391232 0.314235 0.236329
H8    H     H_    0.894817 0.554854 0.283556 0.216917
H9    H     H_    0.107658 0.708903 0.486607 0.193576
C13   C     C_R   0.566989 0.061614 0.612166 0.132567
C14   C     C_R   0.536738 0.129003 0.496602 -0.076279
C15   C     C_R   0.538306 0.066826 0.373334 -0.108175
H10   H     H_    0.531352 0.116379 0.278488 0.224455
C16   C     C_R   0.535476 0.937278 0.372561 -0.139268
H11   H     H_    0.524320 0.890781 0.277629 0.188811
C17   C     C_R   0.533803 0.870804 0.495112 -0.059121
C18   C     C_R   0.564958 0.933505 0.611863 0.044937
C19   C     C_3   0.516444 0.924901 0.753131 0.063149
C20   C     C_3   0.516257 0.066320 0.750730 -0.383506
H12   H     H_    0.584300 0.883619 0.824999 0.141200
H13   H     H_    0.420645 0.104516 0.748587 0.284984
H14   H     H_    0.583950 0.108471 0.821657 0.240387
C21   C     C_R   0.391484 0.513548 0.070881 0.097990
N1    N     N_R   0.499150 0.499140 0.142800 -0.086930
C22   C     C_R   0.608772 0.496031 0.070957 -0.055466
H15   H     H_    0.696818 0.490911 0.123360 0.141758
C23   C     C_R   0.608793 0.496273 0.927826 -0.059222
H16   H     H_    0.696904 0.491387 0.874598 0.147663
N2    N     N_R   0.499150 0.499180 0.857150 -0.093309
C24   C     C_R   0.391592 0.512747 0.929294 0.176853
C25   C     C_3   0.278134 0.429491 0.925725 0.028991
C26   C     C_3   0.272246 0.436985 0.077919 0.013292
H17   H     H_    0.195861 0.471075 0.877304 0.129623
H18   H     H_    0.192023 0.492820 0.111271 0.079811
Br1   Br    Br    0.864597 0.772573 0.439643 -0.456296
N3    N     N_R   0.389982 0.872129 0.766000 0.267663
O9    O     O_R   0.361702 0.802138 0.870027 -0.345829
O10   O     O_R   0.302123 0.905721 0.683450 -0.320112
N4    N     N_R   0.307456 0.304877 0.878051 0.254189
O11   O     O_R   0.413039 0.254482 0.911154 -0.375014
O12   O     O_R   0.220174 0.235728 0.825777 -0.346681
N5    N     N_R   0.277672 0.314431 0.145735 0.261940
O13   O     O_R   0.384022 0.262364 0.170899 -0.331785
O14   O     O_R   0.176631 0.245321 0.151970 -0.331110
N6    N     N_R   0.869704 0.275001 0.576146 0.221567
O15   O     O_R   0.804059 0.221781 0.672000 -0.379885
O16   O     O_R   0.891952 0.212911 0.467709 -0.353018
Br2   Br    Br    0.121130 0.675515 0.733457 -0.419323

loop_
_geom_bond_atom_site_label_1
_geom_bond_atom_site_label_2
_geom_bond_distance
_ccdc_geom_bond_type
C5    C6    1.534423 S    
C13   C20   1.482794 S    
C26   H18   1.105094 S    
C5    H2    1.113339 S    
H4    C11   1.112847 S    
O2    C1    1.290060 A    
O4    Zn2   2.014730 S    
C21   C24   1.411394 A    
C7    H9    1.112355 S    
C10   C12   1.551996 S    
C22   H15   1.080806 S    
C6    C10   1.564828 S    
C7    Br2   1.946878 S    
Zn2   O8    2.019208 S    
N5    O13   1.297047 A    
C23   H16   1.080858 S    
C23   N2    1.371619 A    
C12   H8    1.112609 S    
C14   C15   1.407709 A    
C3    C17   1.428428 S    
N6    O15   1.300650 A    
Zn1   N2    2.033327 S    
C22   C23   1.426564 A    
C8    C12   1.517640 S    
C25   C26   1.521467 S    
C4    C10   1.451430 S    
C16   C17   1.402527 A    
Zn1   O7    2.014728 S    
C20   H13   1.106413 S    
C10   C11   1.558069 S    
N4    O11   1.299636 A    
C26   N5    1.466890 S    
O3    Zn1   2.019210 S    
C2    C9    1.470680 S    
C19   H12   1.112845 S    
C16   H11   1.083282 S    
C20   H14   1.111445 S    
O8    C4    1.289923 A    
C21   C26   1.506548 S    
C15   H10   1.079174 S    
C15   C16   1.386545 A    
C25   H17   1.101353 S    
C7    C9    1.566105 S    
C7    C11   1.547733 S    
O4    C2    1.297786 A    
Zn2   O6    2.004720 S    
O7    C4    1.293823 A    
C8    H5    1.112411 S    
N3    O9    1.300065 A    
C19   N3    1.462162 S    
C5    C9    1.547786 S    
C1    C14   1.441031 S    
N3    O10   1.302521 A    
N2    C24   1.363594 A    
C17   C18   1.393332 A    
C24   C25   1.496139 S    
O3    C2    1.296305 A    
C6    H3    1.116266 S    
C11   Br1   1.959288 S    
C13   C18   1.371001 A    
C18   C19   1.498564 S    
Zn1   O5    1.991369 S    
O5    C3    1.295193 A    
N1    C22   1.371055 A    
C12   H7    1.109956 S    
O1    Zn1   2.004719 S    
C19   C20   1.513316 S    
Zn2   N1    2.034248 S    
O1    C1    1.304787 A    
C6    N6    1.469654 S    
C21   N1    1.368714 A    
C25   N4    1.461178 S    
O6    C3    1.293842 A    
N4    O12   1.300081 A    
O2    Zn2   1.991369 S    
C8    C9    1.550250 S    
C5    H1    1.103282 S    
C13   C14   1.390286 A    
N6    O16   1.301197 A    
C8    H6    1.106102 S    
N5    O14   1.301334 A    
