data_mof_unit_6141.cif
_audit_creation_date              2012-12-10T18:47:08-0500
_audit_creation_method            fapswitch 2.2
_symmetry_space_group_name_H-M    P1
_symmetry_Int_Tables_number       1
_space_group_crystal_system       triclinic
_cell_length_a                    10.709095
_cell_length_b                    9.919772
_cell_length_c                    14.944976
_cell_angle_alpha                 89.559194
_cell_angle_beta                  91.772512
_cell_angle_gamma                 89.350273
_cell_volume                      1586.71833057

loop_
_atom_site_label
_atom_site_type_symbol
_atom_type_description
_atom_site_fract_x
_atom_site_fract_y
_atom_site_fract_z
_atom_type_partial_charge
C1    C     C_R   0.261728 0.500732 0.511449 0.948554
C2    C     C_R   0.129607 0.502873 0.527701 -0.357707
C3    C     C_R   0.567254 0.069564 0.564114 0.169554
C4    C     C_R   0.435471 0.929150 0.434411 0.172038
C5    C     C_R   0.435292 0.073821 0.434532 0.155204
C6    C     C_R   0.573684 0.925924 0.560116 0.206755
C7    C     C_R   0.499200 0.500680 0.327480 0.947954
C8    C     C_R   0.501984 0.499077 0.672577 0.943576
C9    C     C_R   0.618404 0.505383 0.816200 0.310312
C10   C     C_R   0.388207 0.462061 0.184838 0.336074
C11   C     C_R   0.504641 0.494992 0.767983 -0.236844
C12   C     C_R   0.740449 0.499040 0.495292 0.951346
C13   C     C_R   0.495715 0.503272 0.232146 -0.244204
C14   C     C_R   0.393485 0.467237 0.809215 0.339995
C15   C     C_R   0.600181 0.551100 0.190107 0.366502
C16   C     C_R   0.389717 0.469880 0.902887 -0.116546
C17   C     C_R   0.606285 0.542890 0.096743 -0.043586
C18   C     C_R   0.501600 0.497171 0.953062 -0.114791
C19   C     C_R   0.499093 0.499669 0.046933 -0.143890
C20   C     C_R   0.616249 0.519327 0.909518 0.025456
C21   C     C_R   0.389392 0.458303 0.090996 -0.042092
C22   C     C_R   0.278020 0.443687 0.947675 0.373514
C23   C     C_R   0.281784 0.421866 0.039583 0.202652
C24   C     C_R   0.717717 0.573230 0.053229 0.387750
C25   C     C_3   0.066580 0.442704 0.090569 -0.519726
C26   C     C_3   0.872914 0.701875 0.884534 -0.721435
C27   C     C_3   0.590800 0.125227 0.723366 -0.725803
C28   C     C_3   0.252532 0.838188 0.353424 -0.628466
C29   C     C_3   0.239346 0.166171 0.371048 -0.599291
C30   C     C_3   0.667252 0.818984 0.695402 -0.678362
C31   C     C_R   0.724765 0.555271 0.960548 0.114745
C32   C     C_R   0.066442 0.380491 0.538005 0.370882
C33   C     C_R   0.938490 0.621163 0.491202 0.291320
C34   C     C_R   0.941452 0.375611 0.514742 0.374577
C35   C     C_R   0.063255 0.625111 0.518192 0.398981
C36   C     C_R   0.875259 0.497049 0.494700 -0.395612
H1    H     H_    0.720866 0.458442 0.713475 0.326087
H2    H     H_    0.984707 0.394888 0.057023 0.238118
H3    H     H_    0.885499 0.487259 0.894253 0.302736
H4    H     H_    0.885137 0.694332 0.811290 0.274226
H5    H     H_    0.962027 0.736901 0.915722 0.222510
H6    H     H_    0.798454 0.777705 0.897447 0.226521
H7    H     H_    0.192420 0.288204 0.611754 0.367211
H8    H     H_    0.829851 0.714679 0.405624 0.371059
H9    H     H_    0.844317 0.242024 0.453731 0.342182
H10   H     H_    0.061040 0.820681 0.534896 0.378908
H11   H     H_    0.676067 0.226705 0.617881 0.296787
H12   H     H_    0.278403 0.480397 0.286971 0.316242
H13   H     H_    0.513022 0.052563 0.727753 0.231151
H14   H     H_    0.556255 0.223525 0.746922 0.247646
H15   H     H_    0.668466 0.094532 0.770083 0.234756
H16   H     H_    0.424222 0.885460 0.298953 0.196011
H17   H     H_    0.204726 0.885599 0.410052 0.266330
H18   H     H_    0.233477 0.728583 0.352949 0.248415
H19   H     H_    0.212807 0.881807 0.289937 0.190571
H20   H     H_    0.400519 0.123138 0.300687 0.208806
H21   H     H_    0.189302 0.114530 0.315235 0.192122
H22   H     H_    0.215218 0.274715 0.365432 0.258062
H23   H     H_    0.265884 0.339829 0.779018 0.366501
H24   H     H_    0.205322 0.126970 0.435586 0.265220
H25   H     H_    0.762428 0.896761 0.587937 0.264188
H26   H     H_    0.728536 0.882663 0.738139 0.212586
H27   H     H_    0.702407 0.714865 0.703296 0.275275
H28   H     H_    0.569574 0.824623 0.718165 0.238213
H29   H     H_    0.704873 0.698300 0.223148 0.357061
H30   H     H_    0.155493 0.516579 0.863658 0.366864
H31   H     H_    0.877882 0.664922 0.066196 0.344979
H32   H     H_    0.192222 0.280661 0.122181 0.251556
H33   H     H_    0.077674 0.545660 0.062169 0.224048
H34   H     H_    0.048555 0.451462 0.163063 0.252252
N1    N     N_R   0.500000 0.857200 0.500000 -0.123254
N2    N     N_R   0.500000 0.142800 0.500000 -0.138296
N3    N     N_2   0.176371 0.359514 0.077771 -0.269732
N4    N     N_2   0.843456 0.570919 0.921285 -0.280765
N5    N     N_2   0.636791 0.136044 0.633183 -0.270532
N6    N     N_2   0.386055 0.858750 0.358976 -0.269901
N7    N     N_2   0.373154 0.147745 0.364105 -0.254166
N8    N     N_2   0.676732 0.857011 0.602506 -0.239688
O1    O     O_R   0.316770 0.614620 0.499990 -0.547803
O2    O     O_3   0.279662 0.433508 0.228792 -0.798736
O3    O     O_3   0.293152 0.428266 0.755713 -0.776803
O4    O     O_3   0.695728 0.603224 0.242761 -0.730675
O5    O     O_3   0.163080 0.436751 0.903887 -0.757112
O6    O     O_3   0.822110 0.610810 0.103397 -0.760491
O7    O     O_3   0.124239 0.263302 0.568904 -0.702140
O8    O     O_3   0.882737 0.738536 0.458688 -0.757995
O9    O     O_3   0.886903 0.250547 0.513270 -0.700039
O10   O     O_3   0.123197 0.746120 0.532766 -0.730476
O11   O     O_R   0.683230 0.385380 0.500010 -0.642019
O12   O     O_R   0.683230 0.614620 0.500010 -0.572859
O13   O     O_R   0.316770 0.385380 0.499990 -0.609503
O14   O     O_R   0.499980 0.614680 0.367850 -0.601700
O15   O     O_R   0.500020 0.385320 0.632150 -0.631764
O16   O     O_R   0.500020 0.614680 0.632150 -0.605909
O17   O     O_R   0.499980 0.385320 0.367850 -0.600621
O18   O     O_3   0.731581 0.496683 0.774119 -0.791961
Zn1   Zn    Zn3+2 0.500000 0.653120 0.500000 1.017678
Zn2   Zn    Zn3+2 0.500000 0.346880 0.500000 0.972676

loop_
_geom_bond_atom_site_label_1
_geom_bond_atom_site_label_2
_ccdc_geom_bond_type
C2    C35   A    
C30   H28   S    
C3    C6    A    
O17   Zn2   S    
N2    Zn2   S    
N1    Zn1   S    
C12   O12   A    
H9    O9    S    
C18   C19   A    
C5    N2    A    
C11   C14   A    
C27   N5    S    
C6    N8    S    
C32   O7    S    
C33   C36   A    
C18   C20   A    
C2    C32   A    
C1    C2    S    
H3    N4    S    
C26   N4    S    
H30   O5    S    
C21   C23   A    
C12   C36   S    
C3    N5    S    
O12   Zn1   S    
C25   N3    S    
C27   H14   S    
C28   H18   S    
H31   O6    S    
C1    O13   A    
C30   H27   S    
C23   N3    S    
H8    O8    S    
C28   H19   S    
C27   H15   S    
O14   Zn1   S    
C15   O4    S    
H10   O10   S    
C10   C21   A    
C6    N1    A    
C17   C24   A    
H7    O7    S    
C12   O11   A    
C8    O16   A    
C10   O2    S    
C17   C19   A    
C31   N4    S    
O16   Zn1   S    
H32   N3    S    
H20   N7    S    
H1    O18   S    
C32   C34   A    
C33   O8    S    
C25   H2    S    
C35   O10   S    
C9    C20   A    
C29   H24   S    
H25   N8    S    
C9    C11   A    
C9    O18   S    
C29   H21   S    
C13   C15   A    
C1    O1    A    
C14   C16   A    
C25   H33   S    
C5    N7    S    
C28   N6    S    
C26   H6    S    
C15   C17   A    
C16   C22   A    
C19   C21   A    
O1    Zn1   S    
C8    O15   A    
H23   O3    S    
C4    C5    A    
H16   N6    S    
C10   C13   A    
C28   H17   S    
C7    O17   A    
O11   Zn2   S    
C22   O5    S    
H12   O2    S    
C30   H26   S    
C3    N2    A    
C24   O6    S    
C24   C31   A    
H11   N5    S    
C26   H4    S    
H29   O4    S    
C8    C11   S    
C7    O14   A    
C33   C35   A    
C34   C36   A    
C34   O9    S    
O13   Zn2   S    
C4    N6    S    
C30   N8    S    
C7    C13   S    
C29   N7    S    
C29   H22   S    
C16   C18   A    
C22   C23   A    
C25   H34   S    
C14   O3    S    
O15   Zn2   S    
C4    N1    A    
C27   H13   S    
C26   H5    S    
C20   C31   A    
