data_mof_unit_16048.cif
_audit_creation_date              2012-12-10T17:50:42-0500
_audit_creation_method            fapswitch 2.2
_symmetry_space_group_name_H-M    P1
_symmetry_Int_Tables_number       1
_space_group_crystal_system       triclinic
_cell_length_a                    14.718513
_cell_length_b                    14.603106
_cell_length_c                    15.876355
_cell_angle_alpha                 76.532037
_cell_angle_beta                  102.601548
_cell_angle_gamma                 114.622533
_cell_volume                      2988.35851594

loop_
_atom_site_label
_atom_site_type_symbol
_atom_type_description
_atom_site_fract_x
_atom_site_fract_y
_atom_site_fract_z
_atom_type_partial_charge
C1    C     C_R   0.880666 0.311416 0.516998 0.799660
C2    C     C_R   0.119334 0.688584 0.483002 0.799660
C3    C     C_R   0.778431 0.024142 0.595619 -0.203195
C4    C     C_R   0.221569 0.975859 0.404383 -0.203193
C5    C     C_R   0.847752 0.125214 0.582936 0.185017
C6    C     C_R   0.152248 0.874787 0.417067 0.185017
C7    C     C_R   0.711945 0.174697 0.499420 -0.288222
C8    C     C_R   0.288055 0.825303 0.500578 -0.288220
C9    C     C_R   0.639803 0.075119 0.519015 0.075891
C10   C     C_R   0.360197 0.924881 0.480983 0.075890
C11   C     C_R   0.674812 0.997241 0.563992 0.051474
C12   C     C_R   0.325189 0.002759 0.436007 0.051473
C13   C     C_R   0.534313 0.051418 0.493654 0.020175
C14   C     C_R   0.465688 0.948581 0.506343 0.020175
C15   C     C_R   0.504323 0.871774 0.542257 -0.205058
C16   C     C_R   0.495678 0.128225 0.457739 -0.205057
C17   C     C_R   0.606446 0.894102 0.575059 0.135891
C18   C     C_R   0.393555 0.105898 0.424936 0.135890
C19   C     C_R   0.705400 0.652330 0.341952 -0.318985
C20   C     C_R   0.294599 0.347668 0.658047 -0.318988
C21   C     C_R   0.790511 0.628637 0.369662 0.075529
C22   C     C_R   0.209488 0.371363 0.630338 0.075529
C23   C     C_R   0.999547 0.499940 0.659975 0.824979
C24   C     C_R   0.000453 0.500059 0.340025 0.824980
C25   C     C_R   0.718119 0.514605 0.492515 0.005615
C26   C     C_R   0.281880 0.485393 0.507483 0.005614
C27   C     C_R   0.628812 0.535350 0.467804 -0.021330
C28   C     C_R   0.371185 0.464645 0.532193 -0.021324
C29   C     C_R   0.624064 0.605445 0.390217 0.169875
C30   C     C_R   0.375934 0.394550 0.609780 0.169872
C31   C     C_R   0.544275 0.488541 0.515912 0.064868
C32   C     C_R   0.455721 0.511452 0.484084 0.064875
C33   C     C_R   0.455160 0.581122 0.405824 -0.248231
C34   C     C_R   0.544836 0.418870 0.594171 -0.248224
C35   C     C_R   0.537904 0.627486 0.360497 -0.192170
C36   C     C_R   0.462092 0.372507 0.639499 -0.192166
C37   C     C_3   0.927255 0.414978 0.031594 0.185920
C38   C     C_3   0.072742 0.585017 0.968406 0.185920
C39   C     C_3   0.910882 0.496195 0.955432 0.187073
C40   C     C_3   0.089114 0.503800 0.044569 0.187074
C41   C     C_1   0.998819 0.499948 0.749399 -0.184638
C42   C     C_1   0.001180 0.500050 0.250601 -0.184638
C43   C     C_3   0.016009 0.417498 0.992326 -0.248365
C44   C     C_3   0.983988 0.582498 0.007674 -0.248365
C45   C     C_3   0.999422 0.499773 0.916616 0.093318
C46   C     C_3   0.000575 0.500223 0.083385 0.093319
C47   C     C_1   0.998859 0.499833 0.824882 -0.031269
C48   C     C_1   0.001139 0.500164 0.175118 -0.031269
C49   C     C_R   0.814093 0.201767 0.532817 -0.071641
C50   C     C_R   0.185907 0.798233 0.467184 -0.071642
Cu1   Cu    Cu3+1 0.081740 0.475690 0.522610 0.933186
Cu2   Cu    Cu3+1 0.918260 0.524310 0.477390 0.933186
H1    H     H_    0.272360 0.539063 0.450598 0.126363
H2    H     H_    0.727639 0.460935 0.549400 0.126363
H3    H     H_    0.147582 0.336557 0.668492 0.126304
H4    H     H_    0.852419 0.663444 0.331510 0.126303
H5    H     H_    0.702703 0.706138 0.282477 0.137150
H6    H     H_    0.297296 0.293860 0.717523 0.137151
H7    H     H_    0.391556 0.601805 0.377486 0.137183
H8    H     H_    0.608439 0.398185 0.622508 0.137182
H9    H     H_    0.970927 0.649893 0.014403 0.148772
H10   H     H_    0.029070 0.350103 0.985598 0.148772
H11   H     H_    0.309027 0.766631 0.543980 0.159245
H12   H     H_    0.690974 0.233369 0.456017 0.159244
H13   H     H_    0.806881 0.966869 0.631722 0.131087
H14   H     H_    0.193118 0.033132 0.368283 0.131087
H15   H     H_    0.455665 0.793081 0.543492 0.158471
H16   H     H_    0.544336 0.206918 0.456503 0.158472
H17   H     H_    0.533992 0.680759 0.300853 0.140423
H18   H     H_    0.466004 0.319233 0.699143 0.140422
N1    N     N_R   0.795440 0.560790 0.443380 -0.176421
N2    N     N_R   0.204560 0.439210 0.556620 -0.176421
O1    O     O_R   0.977900 0.338120 0.529810 -0.576734
O2    O     O_R   0.022100 0.661880 0.470190 -0.576735
O3    O     O_R   0.839850 0.379180 0.491620 -0.587501
O4    O     O_R   0.160150 0.620820 0.508380 -0.587500
O5    O     O_R   0.069010 0.479460 0.640020 -0.581947
O6    O     O_R   0.930990 0.520540 0.359980 -0.581946
O7    O     O_R   0.930960 0.520530 0.601820 -0.578094
O8    O     O_R   0.069040 0.479470 0.398180 -0.578095
C51   C     C_3   0.809422 0.491702 0.903976 -0.867857
H19   H     H_    0.759949 0.489518 0.948706 0.235205
H20   H     H_    0.820579 0.560169 0.852709 0.233650
H21   H     H_    0.773119 0.422154 0.872640 0.235040
C52   C     C_3   0.190574 0.508294 0.096024 -0.867857
H22   H     H_    0.240048 0.510478 0.051295 0.235205
H23   H     H_    0.226877 0.577841 0.127361 0.235040
H24   H     H_    0.179418 0.439827 0.147292 0.233650
C53   C     C_3   0.844368 0.318277 0.068199 -0.866355
H25   H     H_    0.803148 0.270668 0.016165 0.234154
H26   H     H_    0.878130 0.274475 0.123073 0.232913
H27   H     H_    0.790902 0.338562 0.092285 0.237955
C54   C     C_3   0.155628 0.681719 0.931801 -0.866355
H28   H     H_    0.196848 0.729328 0.983835 0.234154
H29   H     H_    0.209095 0.661434 0.907716 0.237955
H30   H     H_    0.121867 0.725520 0.876926 0.232913
C55   C     C_3   0.644172 0.809083 0.620205 -0.412036
C56   C     C_3   0.565016 0.699875 0.629514 -0.827887
H31   H     H_    0.507061 0.691777 0.668376 0.249518
H32   H     H_    0.529053 0.678857 0.564107 0.260387
H33   H     H_    0.602018 0.646246 0.663794 0.250429
H34   H     H_    0.701432 0.811556 0.583258 0.208145
H35   H     H_    0.681047 0.823912 0.687360 0.201103
C57   C     C_3   0.355830 0.190917 0.379786 -0.412033
C58   C     C_3   0.434990 0.300123 0.370463 -0.827886
H36   H     H_    0.470959 0.321153 0.435866 0.260384
H37   H     H_    0.492940 0.308209 0.331602 0.249519
H38   H     H_    0.397989 0.353751 0.336178 0.250427
H39   H     H_    0.318948 0.176080 0.312634 0.201102
H40   H     H_    0.298578 0.188453 0.416735 0.208145
C59   C     C_3   0.044326 0.852042 0.375216 -0.853367
H41   H     H_    0.021823 0.794982 0.331240 0.225713
H42   H     H_    0.993797 0.823430 0.426303 0.249352
H43   H     H_    0.033746 0.920934 0.334846 0.214260
C60   C     C_3   0.955673 0.147960 0.624790 -0.853368
H44   H     H_    0.978174 0.205022 0.668763 0.225713
H45   H     H_    0.966252 0.079069 0.665163 0.214261
H46   H     H_    0.006203 0.176570 0.573705 0.249353

loop_
_geom_bond_atom_site_label_1
_geom_bond_atom_site_label_2
_ccdc_geom_bond_type
C57   H40   S    
C54   H28   S    
C27   C29   A    
C24   C42   S    
C6    C59   S    
C59   H41   S    
Cu2   O3    S    
C55   C56   S    
C20   C30   A    
C52   H22   S    
C19   H5    S    
C40   C46   S    
C58   H37   S    
C21   N1    A    
C19   C21   A    
Cu2   O2    S    
C57   H39   S    
C60   H44   S    
C26   N2    A    
C15   C17   A    
C9    C13   A    
Cu1   O8    S    
C38   C45   S    
C2    C50   S    
C24   O8    A    
C40   C43   S    
C44   C46   S    
C60   H45   S    
C25   N1    A    
C4    C12   A    
Cu2   O7    S    
C55   H34   S    
C2    O2    A    
C39   C45   S    
C52   H23   S    
C33   H7    S    
C13   C14   A    
C5    C60   S    
C34   H8    S    
C5    C49   A    
C3    H13   S    
Cu2   O6    S    
C35   H17   S    
C22   N2    A    
C57   C58   S    
C51   H20   S    
C36   H18   S    
C51   H19   S    
C45   C47   S    
C58   H38   S    
C46   C48   S    
C27   C31   A    
Cu1   Cu2   S    
C1    O3    A    
C28   C32   A    
C25   H2    S    
C7    C49   A    
C4    C6    A    
C10   C14   A    
C18   C57   S    
C23   O5    A    
C40   C52   S    
C37   C43   S    
Cu1   O5    S    
C38   C44   S    
C9    C11   A    
C31   C32   A    
C60   H46   S    
C15   H15   S    
C41   C47   T    
C31   C34   A    
C59   H42   S    
C16   C18   A    
C42   C48   T    
C6    C50   A    
C53   H27   S    
C43   C45   S    
C39   C51   S    
C55   H35   S    
C10   C12   A    
C16   H16   S    
C24   O6    A    
C20   C22   A    
C54   H30   S    
C56   H32   S    
C53   H26   S    
Cu1   N2    S    
C39   C44   S    
C20   H6    S    
C19   C29   A    
C26   H1    S    
C8    C50   A    
C51   H21   S    
C2    O4    A    
C52   H24   S    
C7    C9    A    
C11   C17   A    
Cu1   O1    S    
C3    C5    A    
C21   H4    S    
C22   H3    S    
C37   C53   S    
C44   H9    S    
C25   C27   A    
C56   H33   S    
C58   H36   S    
C29   C35   A    
C26   C28   A    
C23   C41   S    
C30   C36   A    
C1    O1    A    
C32   C33   A    
C28   C30   A    
C53   H25   S    
C37   C39   S    
Cu2   N1    S    
C38   C40   S    
C54   H29   S    
C1    C49   S    
C38   C54   S    
C33   C35   A    
C59   H43   S    
C34   C36   A    
C7    H12   S    
C3    C11   A    
C8    H11   S    
C4    H14   S    
C8    C10   A    
C56   H31   S    
C13   C16   A    
C12   C18   A    
Cu1   O4    S    
C14   C15   A    
C23   O7    A    
C37   C46   S    
C17   C55   S    
C43   H10   S    
