data_mof_unit_50774.cif
_audit_creation_date              2012-12-10T17:11:11-0500
_audit_creation_method            fapswitch 2.2
_symmetry_space_group_name_H-M    P1
_symmetry_Int_Tables_number       1
_space_group_crystal_system       triclinic
_cell_length_a                    9.998242
_cell_length_b                    10.714063
_cell_length_c                    16.570929
_cell_angle_alpha                 89.910095
_cell_angle_beta                  84.359811
_cell_angle_gamma                 90.783526
_cell_volume                      1766.34109533

loop_
_atom_site_label
_atom_site_type_symbol
_atom_type_description
_atom_site_fract_x
_atom_site_fract_y
_atom_site_fract_z
_atom_type_partial_charge
C1    C     C_R   0.501569 0.737520 0.498658 0.854806
C2    C     C_R   0.532571 0.448684 0.263060 -0.350864
C3    C     C_2   0.604263 0.068589 0.525024 -0.264525
C4    C     C_R   0.480378 0.501146 0.653825 0.903490
C5    C     C_2   0.492206 0.132969 0.521881 -0.271483
C6    C     C_2   0.594503 0.934152 0.533565 0.403977
C7    C     C_2   0.508884 0.870235 0.490324 0.222402
C8    C     C_2   0.084597 0.495841 0.435011 -0.265039
C9    C     C_2   0.934558 0.468652 0.436901 0.486061
C10   C     C_R   0.498246 0.262853 0.504741 0.942924
C11   C     C_R   0.519266 0.491836 0.346759 0.985112
C12   C     C_R   0.352465 0.427916 0.779785 -0.267087
C13   C     C_R   0.464894 0.492590 0.741902 -0.126157
C14   C     C_R   0.564189 0.541328 0.788259 0.464600
C15   C     C_R   0.548321 0.524071 0.872193 -0.219288
C16   C     C_R   0.441084 0.452084 0.908326 0.021588
C17   C     C_R   0.341074 0.406976 0.862838 -0.186566
C18   C     C_3   0.792454 0.556730 0.758108 0.102056
C19   C     C_3   0.906432 0.646045 0.726828 -0.314585
C20   C     C_3   0.043686 0.587526 0.732240 -0.969838
C21   C     C_3   0.965055 0.335511 0.326127 0.099518
C22   C     C_3   0.884814 0.259828 0.268980 -0.309568
C23   C     C_R   0.465653 0.303354 0.161519 0.371989
C24   C     C_3   0.972199 0.161688 0.223672 -0.988465
C25   C     C_3   0.674318 0.703408 0.224027 0.121780
C26   C     C_3   0.748511 0.795638 0.274565 -0.308477
C27   C     C_3   0.694212 0.927317 0.268527 -0.986756
C28   C     C_3   0.646970 0.172774 0.971224 0.075121
C29   C     C_3   0.765630 0.141262 0.019218 -0.366874
C30   C     C_3   0.787720 0.000616 0.021469 -0.960808
C31   C     C_3   0.420634 0.094677 0.162071 0.017267
C32   C     C_3   0.332119 0.993536 0.128752 -0.309903
C33   C     C_3   0.374233 0.863343 0.152676 -0.958281
C34   C     C_R   0.446217 0.352621 0.240349 0.314759
C35   C     C_R   0.637737 0.494924 0.208266 0.378974
C36   C     C_R   0.654072 0.449642 0.129131 0.289118
C37   C     C_R   0.561994 0.358856 0.104613 -0.236864
C38   C     C_2   0.438722 0.420105 0.994105 0.346823
C39   C     C_2   0.539008 0.350765 0.018570 0.492722
H1    H     H_    0.703093 0.113023 0.520887 0.165285
H2    H     H_    0.807557 0.531562 0.821751 0.139200
H3    H     H_    0.895625 0.671507 0.662841 0.236185
H4    H     H_    0.900219 0.732959 0.763478 0.230308
H5    H     H_    0.059836 0.569479 0.796578 0.273533
H6    H     H_    0.124071 0.652114 0.705662 0.282132
H7    H     H_    0.050883 0.498145 0.698419 0.249036
H8    H     H_    0.771113 0.450973 0.027789 0.361847
H9    H     H_    0.726608 0.936452 0.612174 0.330050
H10   H     H_    0.388581 0.864674 0.404372 0.329636
H11   H     H_    0.008727 0.269556 0.368335 0.135873
H12   H     H_    0.393330 0.089065 0.532801 0.189512
H13   H     H_    0.046824 0.385988 0.288504 0.166299
H14   H     H_    0.797826 0.213299 0.304305 0.221610
H15   H     H_    0.845905 0.323374 0.224061 0.246715
H16   H     H_    0.058911 0.206985 0.187332 0.294240
H17   H     H_    0.911984 0.109288 0.181971 0.270204
H18   H     H_    0.009937 0.094690 0.267089 0.269648
H19   H     H_    0.277892 0.260139 0.268431 0.354418
H20   H     H_    0.565079 0.706898 0.245597 0.094793
H21   H     H_    0.688898 0.732197 0.159157 0.176104
H22   H     H_    0.736275 0.765425 0.339119 0.239201
H23   H     H_    0.142792 0.507980 0.376847 0.198710
H24   H     H_    0.857470 0.796467 0.253242 0.234735
H25   H     H_    0.712798 0.962505 0.205359 0.261188
H26   H     H_    0.745514 0.990213 0.309158 0.283700
H27   H     H_    0.584648 0.928329 0.287374 0.291111
H28   H     H_    0.666363 0.132397 0.909539 0.174913
H29   H     H_    0.552267 0.127136 0.998534 0.144007
H30   H     H_    0.858369 0.187894 0.990517 0.241883
H31   H     H_    0.746839 0.175884 0.082326 0.212520
H32   H     H_    0.696344 0.951783 0.050007 0.257880
H33   H     H_    0.872957 0.980317 0.057402 0.269451
H34   H     H_    0.093271 0.475827 0.553059 0.151478
H35   H     H_    0.811883 0.964262 0.959072 0.274152
H36   H     H_    0.410426 0.087803 0.229443 0.180006
H37   H     H_    0.527271 0.077568 0.139416 0.142531
H38   H     H_    0.225669 0.008040 0.152642 0.233243
H39   H     H_    0.339637 0.000444 0.061517 0.223587
H40   H     H_    0.479199 0.845788 0.127326 0.255961
H41   H     H_    0.307358 0.792251 0.128148 0.282253
H42   H     H_    0.366397 0.853801 0.219743 0.261841
H43   H     H_    0.281263 0.521441 0.020620 0.339937
H44   H     H_    0.892243 0.543626 0.546141 0.118152
H45   H     H_    0.257101 0.352517 0.891150 0.156700
H46   H     H_    0.276127 0.389086 0.744668 0.173961
H47   H     H_    0.620836 0.564439 0.909465 0.152570
H48   H     H_    0.797980 0.470569 0.720456 0.142233
N1    N     N_2   0.147950 0.498670 0.499150 -0.197211
N2    N     N_2   0.852290 0.498640 0.499130 -0.214699
O1    O     O_R   0.386960 0.680940 0.500010 -0.625630
O2    O     O_3   0.755028 0.503057 0.076776 -0.742159
O3    O     O_3   0.672294 0.873246 0.585669 -0.766866
O4    O     O_3   0.438306 0.928622 0.433251 -0.814605
O5    O     O_3   0.879274 0.421869 0.368980 -0.578220
O6    O     O_3   0.344343 0.308894 0.296314 -0.751434
O7    O     O_3   0.727678 0.583207 0.232655 -0.567058
O8    O     O_3   0.636656 0.303301 0.961698 -0.707344
O9    O     O_3   0.379185 0.212597 0.136294 -0.635019
O10   O     O_3   0.342208 0.469821 0.050165 -0.776159
O11   O     O_R   0.613100 0.680900 0.499990 -0.573401
O12   O     O_R   0.373570 0.500040 0.615810 -0.630877
O13   O     O_R   0.599710 0.500000 0.615790 -0.589838
O14   O     O_R   0.386900 0.319100 0.500010 -0.593266
O15   O     O_R   0.613040 0.319060 0.499990 -0.615884
O16   O     O_R   0.400290 0.500000 0.384210 -0.576581
O17   O     O_R   0.626430 0.499960 0.384190 -0.539913
O18   O     O_3   0.668052 0.615875 0.752507 -0.622248
Zn1   Zn    Zn3+2 0.349000 0.500030 0.500020 0.959890
Zn2   Zn    Zn3+2 0.651000 0.499970 0.499980 1.010329

loop_
_geom_bond_atom_site_label_1
_geom_bond_atom_site_label_2
_ccdc_geom_bond_type
C28   O8    S    
C2    C35   A    
C1    O1    A    
H43   O10   S    
C35   C36   A    
C26   H24   S    
C3    C6    S    
C30   H32   S    
C22   H15   S    
C35   O7    S    
C24   H16   S    
C28   C29   S    
C26   C27   S    
C12   H46   S    
C10   O14   A    
C28   H29   S    
C26   H22   S    
C38   C39   D    
N1    Zn1   S    
C39   O8    S    
C21   O5    S    
C15   C16   A    
N2    Zn2   S    
C18   C19   S    
C31   O9    S    
C4    C13   S    
C30   H35   S    
C18   O18   S    
C32   H38   S    
C19   C20   S    
C8    C9    S    
C4    O13   A    
C12   C17   A    
C11   O16   A    
O14   Zn1   S    
C25   H21   S    
C20   H6    S    
C19   H3    S    
C2    C34   A    
O12   Zn1   S    
O11   Zn2   S    
C13   C14   A    
H44   N2    S    
C2    C11   S    
C1    O11   A    
C21   H11   S    
C20   H5    S    
C19   H4    S    
C22   H14   S    
C29   H30   S    
C7    O4    S    
O16   Zn1   S    
C28   H28   S    
C34   O6    S    
C18   H2    S    
C9    N2    D    
C24   H18   S    
C25   C26   S    
C23   C37   A    
C8    N1    D    
H19   O6    S    
H34   N1    S    
C29   C30   S    
C27   H26   S    
C31   H36   S    
C31   C32   S    
C14   C15   A    
C23   C34   A    
C4    O12   A    
C11   O17   A    
C15   H47   S    
C36   O2    S    
C14   O18   S    
C3    H1    S    
C22   C24   S    
C29   H31   S    
C36   C37   A    
C1    C7    S    
H8    O2    S    
C33   H40   S    
C38   O10   S    
C3    C5    D    
C30   H33   S    
C33   H41   S    
C6    C7    D    
C24   H17   S    
C18   H48   S    
C17   H45   S    
C32   C33   S    
C10   O15   A    
O1    Zn1   S    
C5    C10   S    
C37   C39   S    
C27   H27   S    
C31   H37   S    
C16   C17   A    
C6    O3    S    
C27   H25   S    
C32   H39   S    
C23   O9    S    
C12   C13   A    
C25   O7    S    
H9    O3    S    
C8    H23   S    
O15   Zn2   S    
C5    H12   S    
O13   Zn2   S    
C25   H20   S    
H10   O4    S    
C21   C22   S    
C33   H42   S    
C9    O5    S    
C21   H13   S    
C20   H7    S    
C16   C38   S    
O17   Zn2   S    
