data_mof_unit_26339.cif
_audit_creation_date              2012-12-11T15:48:43-0500
_audit_creation_method            fapswitch 2.2
_symmetry_space_group_name_H-M    P1
_symmetry_Int_Tables_number       1
_space_group_crystal_system       triclinic
_cell_length_a                    10.910171
_cell_length_b                    11.126541
_cell_length_c                    18.769037
_cell_angle_alpha                 90.458743
_cell_angle_beta                  90.044445
_cell_angle_gamma                 60.008218
_cell_volume                      1973.25574521

loop_
_atom_site_label
_atom_site_type_symbol
_atom_type_description
_atom_site_fract_x
_atom_site_fract_y
_atom_site_fract_z
_atom_type_partial_charge
C1    C     C_R   0.235326 0.648637 0.608816 0.535199
C2    C     C_3   0.621946 0.555281 0.815079 -0.236059
C3    C     C_3   0.686055 0.651628 0.818385 0.047489
C4    C     C_3   0.647111 0.609068 0.684867 0.050857
C5    C     C_3   0.805390 0.560876 0.699074 -0.224784
C6    C     C_3   0.596900 0.531453 0.735703 -0.245238
C7    C     C_R   0.710117 0.073302 0.810730 0.003392
C8    C     C_R   0.823166 0.062660 0.770996 0.008091
C9    C     C_R   0.811968 0.091093 0.698616 0.018392
C10   C     C_R   0.588264 0.102336 0.697067 -0.147117
C11   C     C_R   0.588040 0.090460 0.771275 -0.043092
C12   C     C_R   0.626601 0.585626 0.608676 0.561123
C13   C     C_3   0.912417 0.126531 0.782982 -0.277520
C14   C     C_3   0.907649 0.149897 0.702906 -0.281209
C15   C     C_R   0.685148 0.130599 0.663007 -0.002559
C16   C     C_R   0.160781 0.684095 0.830777 0.016851
C17   C     C_R   0.126405 0.601489 0.789531 0.011974
C18   C     C_R   0.134677 0.598784 0.715730 -0.006128
C19   C     C_R   0.194153 0.778714 0.721820 -0.157969
C20   C     C_R   0.193401 0.774990 0.795881 -0.169463
C21   C     C_3   0.197468 0.449566 0.792926 -0.279119
C22   C     C_3   0.200809 0.446652 0.712507 -0.275834
C23   C     C_R   0.632030 0.221551 0.600427 0.531131
C24   C     C_R   0.176996 0.680787 0.680825 0.022606
C25   C     C_R   0.656942 0.654973 0.165337 0.011344
C26   C     C_R   0.770617 0.582599 0.211077 0.013207
C27   C     C_R   0.754699 0.560485 0.280531 0.012913
C28   C     C_R   0.506099 0.658807 0.262463 -0.181092
C29   C     C_R   0.523604 0.681783 0.189351 -0.181458
C30   C     C_3   0.895086 0.598415 0.225770 -0.248720
C31   C     C_3   0.876562 0.576489 0.303666 -0.255252
C32   C     C_R   0.622067 0.609426 0.310032 -0.000455
C33   C     C_R   0.676590 0.093856 0.183679 0.030563
C34   C     C_R   0.222606 0.648467 0.401627 0.541698
C35   C     C_R   0.647272 0.020795 0.234162 -0.062893
C36   C     C_R   0.632155 0.060199 0.304935 0.027774
C37   C     C_R   0.698456 0.231951 0.276731 -0.166218
C38   C     C_R   0.701824 0.200367 0.205152 -0.157820
C39   C     C_3   0.523053 0.999374 0.237016 -0.232564
C40   C     C_3   0.505399 0.042991 0.314698 0.160917
C41   C     C_R   0.657677 0.165827 0.326896 0.047569
C42   C     C_R   0.139749 0.687789 0.184937 0.004690
C43   C     C_R   0.091450 0.807253 0.228179 0.035674
C44   C     C_R   0.096662 0.798254 0.300999 -0.001975
C45   C     C_R   0.613853 0.587591 0.386269 0.558674
C46   C     C_R   0.200443 0.548303 0.289872 -0.163567
C47   C     C_R   0.193495 0.558135 0.216091 -0.179793
C48   C     C_3   0.138329 0.914502 0.228936 -0.135481
C49   C     C_3   0.128954 0.914226 0.309089 -0.261180
C50   C     C_R   0.159424 0.667632 0.332658 0.002966
C51   C     C_R   0.725449 0.043616 0.888345 0.562873
C52   C     C_R   0.716887 0.682172 0.891650 0.533053
C53   C     C_R   0.114060 0.709610 0.904634 0.538411
C54   C     C_R   0.699423 0.046791 0.111270 0.565152
C55   C     C_R   0.692691 0.687154 0.095445 0.534743
C56   C     C_R   0.618831 0.227269 0.396165 0.551249
C57   C     C_R   0.094093 0.711091 0.112090 0.535034
C58   C     C_3   0.584502 0.786683 0.781135 -0.245947
C59   C     C_3   0.560910 0.764014 0.703545 -0.232098
C60   C     C_3   0.827382 0.582053 0.776529 -0.227005
Cr1   Cr    Cr6+3 0.392960 0.397920 0.502240 1.013215
Cr2   Cr    Cr6+3 0.398340 0.708480 0.501250 0.986061
Cr3   Cr    Cr6+3 0.708670 0.393570 0.496460 0.990348
Cr4   Cr    Cr6+3 0.937650 0.938540 0.007610 0.984483
Cr5   Cr    Cr6+3 0.625330 0.937370 0.994520 0.980965
Cr6   Cr    Cr6+3 0.937940 0.625230 0.001190 0.987792
H1    H     H_    0.636269 0.849763 0.781754 0.141631
H2    H     H_    0.651467 0.419200 0.723613 0.114068
H3    H     H_    0.901238 0.479015 0.799677 0.133517
H4    H     H_    0.875111 0.449529 0.685563 0.125528
H5    H     H_    0.501181 0.109581 0.666597 0.142544
H6    H     H_    0.016917 0.049170 0.803184 0.150000
H7    H     H_    0.857799 0.223988 0.814761 0.134109
H8    H     H_    0.857154 0.259308 0.686976 0.141141
H9    H     H_    0.010585 0.081786 0.676036 0.138061
H10   H     H_    0.220679 0.850452 0.697468 0.130865
H11   H     H_    0.481326 0.836174 0.809761 0.123524
H12   H     H_    0.217603 0.843304 0.826037 0.118855
H13   H     H_    0.128097 0.415624 0.817292 0.146739
H14   H     H_    0.302747 0.411130 0.817406 0.136209
H15   H     H_    0.310570 0.394101 0.691014 0.174164
H16   H     H_    0.128282 0.415102 0.687995 0.125770
H17   H     H_    0.404454 0.679535 0.281833 0.131011
H18   H     H_    0.436063 0.721577 0.152550 0.115571
H19   H     H_    0.875171 0.704434 0.213891 0.143143
H20   H     H_    0.989888 0.510238 0.201026 0.156357
H21   H     H_    0.965115 0.478693 0.325020 0.142165
H22   H     H_    0.447033 0.801587 0.694756 0.125198
H23   H     H_    0.843732 0.670627 0.337268 0.146611
H24   H     H_    0.716559 0.315784 0.292027 0.132240
H25   H     H_    0.725649 0.258005 0.166667 0.135861
H26   H     H_    0.554846 0.889492 0.230829 0.112503
H27   H     H_    0.435124 0.071527 0.201907 0.162710
H28   H     H_    0.526343 0.959237 0.353389 0.113603
H29   H     H_    0.249089 0.445754 0.312736 0.199245
H30   H     H_    0.227157 0.465745 0.183695 0.137816
H31   H     H_    0.592022 0.825090 0.668712 0.135420
H32   H     H_    0.248628 0.870558 0.210834 0.136382
H33   H     H_    0.232136 0.888070 0.332976 0.151397
H34   H     H_    0.037632 0.007520 0.333370 0.132360
H35   H     H_    0.874863 0.649604 0.779965 0.136764
H36   H     H_    0.839856 0.620662 0.665322 0.141578
H37   H     H_    0.694318 0.454698 0.840717 0.121696
H38   H     H_    0.519933 0.603026 0.844845 0.117784
H39   H     H_    0.482460 0.569750 0.727365 0.121348
O1    O     O_R   0.507380 0.255700 0.581440 -0.539471
O2    O     O_R   0.524480 0.695810 0.424040 -0.503394
O3    O     O_R   0.736390 0.504290 0.414790 -0.514169
O4    O     O_R   0.691300 0.277290 0.422170 -0.537971
O5    O     O_3   0.499990 0.499990 0.499980 -0.288962
O6    O     O_R   0.089400 0.825690 0.930570 -0.533688
O7    O     O_R   0.818460 0.054440 0.929850 -0.486816
O8    O     O_R   0.606060 0.077150 0.915510 -0.545173
O9    O     O_R   0.646550 0.806680 0.917570 -0.535046
O10   O     O_R   0.837170 0.593410 0.915250 -0.526034
O11   O     O_R   0.065200 0.635530 0.931570 -0.498081
O12   O     O_R   0.280320 0.527350 0.578930 -0.505570
O13   O     O_R   0.068260 0.828890 0.091840 -0.536166
O14   O     O_R   0.798870 0.057410 0.079340 -0.525435
O15   O     O_R   0.584930 0.080350 0.076780 -0.507134
O16   O     O_R   0.626960 0.809650 0.067060 -0.518113
O17   O     O_R   0.816040 0.596610 0.076510 -0.519459
O18   O     O_R   0.045610 0.638500 0.081060 -0.506351
O19   O     O_3   0.833640 0.833710 0.001100 -0.276763
O20   O     O_R   0.260510 0.739590 0.584590 -0.537757
O21   O     O_R   0.532300 0.695080 0.573820 -0.502718
O22   O     O_R   0.744840 0.503500 0.576370 -0.525460
O23   O     O_R   0.699120 0.276560 0.571960 -0.516435
O24   O     O_R   0.498940 0.256500 0.419860 -0.459715
O25   O     O_R   0.272500 0.528080 0.429150 -0.501844
O26   O     O_R   0.252060 0.740380 0.423010 -0.536850
C61   C     C_3   0.452729 0.108161 0.807228 -0.236157
C62   C     C_3   0.333549 0.115905 0.760617 -0.337824
C63   C     C_3   0.208970 0.138613 0.806731 -0.469724
H40   H     H_    0.227626 0.037604 0.826362 0.137337
H41   H     H_    0.194706 0.203944 0.854386 0.148788
H42   H     H_    0.111515 0.191069 0.774475 0.147647
H43   H     H_    0.297667 0.198459 0.721610 0.167252
H44   H     H_    0.368937 0.021342 0.728468 0.149463
H45   H     H_    0.477141 0.023560 0.844484 0.191506
H46   H     H_    0.409011 0.201613 0.841098 0.172090
O27   O     O_3   0.380201 0.171189 0.326289 -0.543744
C64   C     C_3   0.268267 0.146906 0.341989 -0.131034
H47   H     H_    0.288858 0.086345 0.391841 0.118188
H48   H     H_    0.248906 0.093481 0.296873 0.109395
H49   H     H_    0.170504 0.248195 0.350367 0.128899
C65   C     C_3   0.039414 0.055391 0.194767 -0.250167
C66   C     C_3   0.117646 0.095830 0.140665 -0.311671
C67   C     C_3   0.016342 0.231993 0.104109 -0.425483
H50   H     H_    0.935933 0.220676 0.073067 0.170326
H51   H     H_    0.961992 0.316101 0.144304 0.161940
H52   H     H_    0.076423 0.261174 0.067169 0.141997
H53   H     H_    0.200860 0.107986 0.168288 0.148787
H54   H     H_    0.169332 0.013029 0.099408 0.180177
H55   H     H_    0.956334 0.047058 0.166774 0.216192
H56   H     H_    0.989681 0.139448 0.235500 0.136040

loop_
_geom_bond_atom_site_label_1
_geom_bond_atom_site_label_2
_ccdc_geom_bond_type
C44   C49   S    
C64   H49   S    
C55   O16   A    
C51   O7    A    
C54   O15   A    
Cr5   O9    S    
C39   H26   S    
C35   C36   A    
C9    C14   S    
C11   C61   S    
C63   H42   S    
C7    C8    A    
C12   O22   A    
C7    C11   A    
C26   C27   A    
C51   O8    A    
Cr4   O14   S    
Cr6   O11   S    
C37   H24   S    
C18   C24   A    
C14   H8    S    
C28   C29   A    
C1    O20   A    
C40   O27   S    
C10   C15   A    
C67   H51   S    
C30   C31   S    
Cr4   O7    S    
C12   O21   A    
C64   H47   S    
C48   C65   S    
C33   C54   S    
Cr4   O13   S    
C4    C59   S    
C32   C45   S    
Cr5   O19   S    
C59   H22   S    
C39   H27   S    
C58   H11   S    
C16   C53   S    
Cr5   O15   S    
C46   H29   S    
C65   C66   S    
C61   C62   S    
C31   H23   S    
C47   H30   S    
Cr6   O17   S    
Cr5   O16   S    
C30   H20   S    
C65   H55   S    
C43   C48   S    
C56   O24   A    
C53   O11   A    
Cr1   O24   S    
C3    C60   S    
C53   O6    A    
C15   C23   S    
C55   O17   A    
C62   H43   S    
C21   C22   S    
C28   H17   S    
C37   C41   A    
C36   C41   A    
C2    C6    S    
C66   H54   S    
Cr1   O5    S    
C42   C57   S    
Cr3   O23   S    
C25   C29   A    
C34   C50   S    
C31   H21   S    
Cr6   O10   S    
C27   C31   S    
C13   C14   S    
C22   H15   S    
C28   C32   A    
C66   C67   S    
C29   H18   S    
C4    C6    S    
C67   H52   S    
C39   C40   S    
Cr2   O21   S    
C8    C9    A    
Cr4   O6    S    
C63   H41   S    
Cr2   O2    S    
C25   C26   A    
Cr4   O19   S    
C23   O1    A    
Cr1   O12   S    
C38   H25   S    
C17   C21   S    
Cr3   O4    S    
C35   C39   S    
C43   C44   A    
C3    C58   S    
C41   C56   S    
C37   C38   A    
Cr1   O1    S    
C57   O18   A    
Cr2   O5    S    
C36   C40   S    
C16   C20   A    
C21   H13   S    
C17   C18   A    
C1    O12   A    
C30   H19   S    
C65   H56   S    
Cr1   O25   S    
C48   C49   S    
C13   H7    S    
C2    H38   S    
C62   H44   S    
C62   C63   S    
C59   H31   S    
Cr6   O19   S    
C4    C12   S    
C66   H53   S    
C60   H35   S    
C22   H16   S    
C56   O4    A    
C52   O10   A    
C44   C50   A    
C61   H46   S    
C64   H48   S    
C5    H36   S    
C19   H10   S    
C5    C60   S    
C27   C32   A    
C18   C22   S    
Cr5   O8    S    
Cr2   O26   S    
C25   C55   S    
C40   H28   S    
C4    C5    S    
C5    H4    S    
C34   O26   A    
Cr2   O20   S    
C3    C52   S    
C45   O3    A    
C26   C30   S    
C63   H40   S    
C13   H6    S    
C52   O9    A    
C61   H45   S    
C48   H32   S    
C46   C50   A    
C33   C38   A    
C20   H12   S    
C14   H9    S    
C19   C20   A    
C2    C3    S    
C58   C59   S    
C7    C51   S    
C67   H50   S    
C10   H5    S    
C49   H34   S    
C49   H33   S    
C16   C17   A    
C60   H3    S    
Cr3   O5    S    
C21   H14   S    
C6    H2    S    
C33   C35   A    
C6    H39   S    
C19   C24   A    
C42   C47   A    
C9    C15   A    
C2    H37   S    
C46   C47   A    
C10   C11   A    
Cr6   O18   S    
C8    C13   S    
C58   H1    S    
C34   O25   A    
C1    C24   S    
C42   C43   A    
O27   C64   S    
C23   O23   A    
Cr3   O3    S    
C54   O14   A    
Cr3   O22   S    
C45   O2    A    
C57   O13   A    
