data_mof_unit_39301.cif
_audit_creation_date              2012-12-11T14:05:38-0500
_audit_creation_method            fapswitch 2.2
_symmetry_space_group_name_H-M    P1
_symmetry_Int_Tables_number       1
_space_group_crystal_system       triclinic
_cell_length_a                    17.58641
_cell_length_b                    17.646908
_cell_length_c                    17.586882
_cell_angle_alpha                 90.331619
_cell_angle_beta                  90.005759
_cell_angle_gamma                 90.235848
_cell_volume                      5457.87654727

loop_
_atom_site_label
_atom_site_type_symbol
_atom_type_description
_atom_site_fract_x
_atom_site_fract_y
_atom_site_fract_z
_atom_type_partial_charge
C1    C     C_R   0.681481 0.779358 0.220410 -0.247021
C2    C     C_R   0.319020 0.779323 0.221304 -0.247267
C3    C     C_R   0.902725 0.817608 0.615505 -0.022394
C4    C     C_R   0.091791 0.379554 0.817241 -0.125047
C5    C     C_R   0.904412 0.616560 0.183715 -0.115072
C6    C     C_R   0.094961 0.816771 0.616437 -0.070716
C7    C     C_R   0.904735 0.183345 0.383974 -0.114417
C8    C     C_R   0.817371 0.908237 0.620459 -0.121325
C9    C     C_R   0.183580 0.095648 0.383500 -0.114076
C10   C     C_R   0.616437 0.904706 0.183541 -0.115110
C11   C     C_R   0.379699 0.091402 0.817319 -0.121722
C12   C     C_R   0.183734 0.904658 0.383889 -0.114657
C13   C     C_R   0.210435 0.306029 0.785279 -0.288167
C14   C     C_R   0.816133 0.095835 0.615479 -0.114852
C15   C     C_R   0.384447 0.903791 0.816086 -0.113941
C16   C     C_R   0.616207 0.095732 0.183756 -0.114946
C17   C     C_R   0.184575 0.096574 0.614334 -0.113340
C18   C     C_R   0.816230 0.904308 0.383856 -0.112473
C19   C     C_R   0.383604 0.095795 0.183581 -0.114973
C20   C     C_R   0.614511 0.903282 0.815566 -0.115290
C21   C     C_R   0.816442 0.095344 0.383570 -0.115196
C22   C     C_R   0.183472 0.904704 0.616583 -0.112895
C23   C     C_R   0.616330 0.095176 0.816351 -0.110191
C24   C     C_R   0.778433 0.681532 0.220824 -0.245507
C25   C     C_R   0.383842 0.904734 0.183699 -0.112746
C26   C     C_R   0.318808 0.778668 0.778239 -0.244187
C27   C     C_R   0.681320 0.221152 0.221751 -0.247042
C28   C     C_R   0.785525 0.694277 0.790445 -0.285950
C29   C     C_R   0.220332 0.317646 0.220341 -0.249211
C30   C     C_R   0.223862 0.223015 0.676557 -0.215088
C31   C     C_R   0.778174 0.778833 0.318849 -0.249643
C32   C     C_R   0.221534 0.779250 0.319027 -0.247731
C33   C     C_R   0.306456 0.209697 0.785348 -0.288184
C34   C     C_R   0.778479 0.220966 0.680868 -0.243856
C35   C     C_R   0.779629 0.220698 0.318566 -0.248325
C36   C     C_R   0.220193 0.779397 0.681678 -0.247870
C37   C     C_R   0.785412 0.790031 0.694017 -0.288971
C38   C     C_R   0.220638 0.220951 0.318178 -0.247497
C39   C     C_R   0.633968 0.828285 0.828271 0.163496
C40   C     C_R   0.362188 0.170174 0.170045 0.179868
C41   C     C_R   0.169742 0.638101 0.829760 0.181133
C42   C     C_R   0.830085 0.362044 0.170272 0.190264
C43   C     C_R   0.357773 0.164389 0.830960 0.216805
C44   C     C_R   0.221590 0.681485 0.221423 -0.247342
C45   C     C_R   0.637831 0.830198 0.169798 0.191447
C46   C     C_R   0.829227 0.362695 0.829525 0.189041
C47   C     C_R   0.170483 0.637701 0.170408 0.189774
C48   C     C_R   0.637475 0.170278 0.170647 0.189768
C49   C     C_R   0.362856 0.829416 0.829334 0.189859
C50   C     C_R   0.169826 0.361705 0.169671 0.181829
C51   C     C_R   0.831124 0.642736 0.835573 0.215851
C52   C     C_R   0.362546 0.830097 0.170294 0.189538
C53   C     C_R   0.637635 0.169837 0.829759 0.190116
C54   C     C_R   0.829591 0.637459 0.170365 0.190588
C55   C     C_R   0.778223 0.318820 0.778459 -0.247557
C56   C     C_R   0.164928 0.357623 0.830820 0.217280
C57   C     C_R   0.829644 0.170283 0.637208 0.189624
C58   C     C_R   0.170417 0.830023 0.362572 0.190767
C59   C     C_R   0.829350 0.829725 0.362574 0.188718
C60   C     C_R   0.172187 0.171692 0.633781 0.161161
C61   C     C_R   0.170100 0.170077 0.362226 0.191715
C62   C     C_R   0.830847 0.835334 0.642336 0.216050
C63   C     C_R   0.169646 0.830244 0.638016 0.181039
C64   C     C_R   0.830129 0.169850 0.362314 0.191204
C65   C     C_R   0.710798 0.711339 0.191490 0.591558
C66   C     C_R   0.318257 0.221043 0.220742 -0.248496
C67   C     C_R   0.261041 0.260663 0.824322 0.561962
C68   C     C_R   0.289767 0.710964 0.192728 0.593753
C69   C     C_R   0.710160 0.289158 0.807224 0.590250
C70   C     C_R   0.288649 0.288595 0.191852 0.603369
C71   C     C_R   0.709461 0.711070 0.807594 0.607172
C72   C     C_R   0.710855 0.289106 0.193271 0.593767
C73   C     C_R   0.289152 0.710785 0.806740 0.592074
C74   C     C_R   0.191139 0.711575 0.711034 0.603104
C75   C     C_R   0.808736 0.288492 0.289091 0.591729
C76   C     C_R   0.193850 0.289283 0.708997 0.609122
C77   C     C_R   0.677052 0.776912 0.777194 -0.217324
C78   C     C_R   0.806520 0.710645 0.289506 0.590851
C79   C     C_R   0.191623 0.288457 0.288509 0.594509
C80   C     C_R   0.824442 0.739489 0.739422 0.561873
C81   C     C_R   0.193066 0.710867 0.289759 0.593731
C82   C     C_R   0.806856 0.289381 0.710140 0.589225
C83   C     C_R   0.710397 0.192043 0.710410 0.592380
C84   C     C_R   0.289705 0.808026 0.289607 0.593937
C85   C     C_R   0.710899 0.192565 0.289667 0.593943
C86   C     C_R   0.289026 0.807427 0.710456 0.594112
C87   C     C_R   0.289060 0.192883 0.289059 0.595789
C88   C     C_R   0.779589 0.318064 0.221336 -0.247957
C89   C     C_R   0.709324 0.806708 0.710798 0.610212
C90   C     C_R   0.289943 0.192784 0.709067 0.609676
C91   C     C_R   0.710340 0.807568 0.289150 0.594035
C92   C     C_R   0.614293 0.815778 0.903390 -0.116613
C93   C     C_R   0.383551 0.183334 0.095388 -0.072099
C94   C     C_R   0.183548 0.616581 0.904331 -0.130911
C95   C     C_R   0.816412 0.383416 0.095637 -0.114829
C96   C     C_R   0.384467 0.182345 0.903036 -0.023459
C97   C     C_R   0.616238 0.816681 0.095128 -0.112865
C98   C     C_R   0.816168 0.383735 0.904427 -0.111883
C99   C     C_R   0.220307 0.681974 0.778731 -0.251494
C100  C     C_R   0.183765 0.616304 0.095625 -0.115413
C101  C     C_R   0.616243 0.183548 0.095963 -0.117546
C102  C     C_R   0.383743 0.816389 0.904131 -0.113503
C103  C     C_R   0.183371 0.383193 0.095051 -0.071192
C104  C     C_R   0.817495 0.620407 0.908527 -0.123184
C105  C     C_R   0.383829 0.816506 0.095532 -0.114264
C106  C     C_R   0.616261 0.183462 0.904498 -0.131019
C107  C     C_R   0.816180 0.615399 0.095890 -0.114779
C108  C     C_R   0.182642 0.384426 0.902902 -0.023231
C109  C     C_R   0.903035 0.615965 0.817577 -0.023917
C110  C     C_R   0.681098 0.220681 0.778738 -0.249081
C111  C     C_R   0.095388 0.383637 0.183407 -0.114605
C112  C     C_R   0.904572 0.183555 0.616393 -0.112779
C113  C     C_R   0.095635 0.816476 0.383773 -0.118288
C114  C     C_R   0.904697 0.383828 0.183579 -0.112451
C115  C     C_R   0.095024 0.616501 0.816511 -0.069046
C116  C     C_R   0.904072 0.816428 0.383729 -0.131374
C117  C     C_R   0.096925 0.184352 0.614389 -0.115421
C118  C     C_R   0.095709 0.616343 0.183769 -0.115174
C119  C     C_R   0.903847 0.384308 0.816067 -0.130532
C120  C     C_R   0.095569 0.183369 0.383890 -0.113612
F1    F     F_    0.673692 0.674403 0.134959 -0.695836
F2    F     F_    0.865193 0.325530 0.326186 -0.695655
F3    F     F_    0.143924 0.332107 0.669413 -0.684762
F4    F     F_    0.861653 0.673112 0.327272 -0.698538
F5    F     F_    0.135707 0.325603 0.325847 -0.693906
F6    F     F_    0.901708 0.742773 0.742456 -0.717630
F7    F     F_    0.137464 0.673383 0.327308 -0.694305
F8    F     F_    0.862523 0.326769 0.672595 -0.700056
F9    F     F_    0.673023 0.135962 0.673106 -0.693846
F10   F     F_    0.327112 0.864015 0.327037 -0.692070
F11   F     F_    0.673214 0.137269 0.327217 -0.691772
F12   F     F_    0.257520 0.257622 0.901548 -0.717864
F13   F     F_    0.326611 0.862754 0.672873 -0.693014
F14   F     F_    0.326832 0.138092 0.326821 -0.691264
F15   F     F_    0.669740 0.856384 0.667780 -0.682287
F16   F     F_    0.332800 0.142491 0.669520 -0.682070
F17   F     F_    0.672836 0.863080 0.326736 -0.692088
F18   F     F_    0.327218 0.673548 0.136915 -0.694460
F19   F     F_    0.672671 0.326510 0.863059 -0.699381
F20   F     F_    0.326090 0.325836 0.136146 -0.695617
F21   F     F_    0.669902 0.668401 0.857909 -0.685364
F22   F     F_    0.673133 0.326624 0.138130 -0.694182
F23   F     F_    0.326879 0.673220 0.861849 -0.698373
F24   F     F_    0.134690 0.674546 0.673899 -0.696413
H1    H     H_    0.613313 0.762321 0.932669 0.188631
H2    H     H_    0.384448 0.763322 0.933906 0.194200
H3    H     H_    0.236478 0.383395 0.064640 0.194195
H4    H     H_    0.765164 0.624255 0.940042 0.185188
H5    H     H_    0.384907 0.763194 0.065593 0.194894
H6    H     H_    0.615221 0.236768 0.934453 0.194406
H7    H     H_    0.762450 0.612338 0.066917 0.195844
H8    H     H_    0.238196 0.387471 0.929117 0.155213
H9    H     H_    0.929116 0.613228 0.761965 0.156185
H10   H     H_    0.065646 0.384883 0.236820 0.197102
H11   H     H_    0.934816 0.236679 0.615939 0.193209
H12   H     H_    0.384157 0.236146 0.065098 0.194354
H13   H     H_    0.065733 0.763186 0.384712 0.194149
H14   H     H_    0.934667 0.385356 0.236866 0.196020
H15   H     H_    0.064478 0.615693 0.763490 0.194248
H16   H     H_    0.933748 0.763258 0.384580 0.193951
H17   H     H_    0.067777 0.237941 0.613655 0.187165
H18   H     H_    0.065893 0.615342 0.237156 0.194486
H19   H     H_    0.932809 0.386602 0.762306 0.193110
H20   H     H_    0.065817 0.236470 0.385331 0.196390
H21   H     H_    0.928677 0.762235 0.612410 0.155853
H22   H     H_    0.060352 0.375421 0.764822 0.183107
H23   H     H_    0.237040 0.615945 0.933993 0.194682
H24   H     H_    0.934320 0.616260 0.237079 0.193858
H25   H     H_    0.064380 0.763826 0.615631 0.194681
H26   H     H_    0.934735 0.236553 0.385523 0.196538
H27   H     H_    0.765135 0.939601 0.624721 0.184326
H28   H     H_    0.236910 0.066013 0.384028 0.195334
H29   H     H_    0.615702 0.934629 0.237002 0.195770
H30   H     H_    0.375706 0.059775 0.764910 0.184371
H31   H     H_    0.237068 0.934698 0.385102 0.195789
H32   H     H_    0.762386 0.066720 0.612862 0.195664
H33   H     H_    0.386836 0.932604 0.762459 0.195110
H34   H     H_    0.762947 0.383985 0.065926 0.194563
H35   H     H_    0.615183 0.066013 0.236974 0.195625
H36   H     H_    0.238181 0.067217 0.613479 0.187905
H37   H     H_    0.762995 0.934083 0.385002 0.195738
H38   H     H_    0.384344 0.066279 0.236920 0.196285
H39   H     H_    0.614021 0.932393 0.761871 0.188297
H40   H     H_    0.763006 0.065458 0.384173 0.195651
H41   H     H_    0.236873 0.934677 0.616097 0.195286
H42   H     H_    0.615445 0.064925 0.763068 0.194839
H43   H     H_    0.384950 0.934826 0.237057 0.195523
H44   H     H_    0.387512 0.237823 0.929311 0.155817
H45   H     H_    0.615025 0.763532 0.064896 0.195404
H46   H     H_    0.762893 0.384657 0.934451 0.194331
H47   H     H_    0.237101 0.615214 0.065716 0.193815
H48   H     H_    0.615305 0.236692 0.066338 0.194209
N1    N     N_R   0.584840 0.879720 0.932190 -0.061110
N2    N     N_R   0.415160 0.879720 0.932190 -0.063301
N3    N     N_R   0.120280 0.415160 0.067810 -0.066186
N4    N     N_R   0.879720 0.584840 0.932190 -0.065658
N5    N     N_R   0.415160 0.879720 0.067810 -0.063459
N6    N     N_R   0.584840 0.120280 0.932190 -0.064744
N7    N     N_R   0.879720 0.584840 0.067810 -0.062222
N8    N     N_R   0.120280 0.415160 0.932190 -0.069937
N9    N     N_R   0.932190 0.584840 0.879720 -0.069944
N10   N     N_R   0.067810 0.415160 0.120280 -0.064801
N11   N     N_R   0.932190 0.120280 0.584840 -0.062941
N12   N     N_R   0.415160 0.120280 0.067810 -0.066321
N13   N     N_R   0.067810 0.879720 0.415160 -0.064184
N14   N     N_R   0.932190 0.415160 0.120280 -0.063230
N15   N     N_R   0.067810 0.584840 0.879720 -0.066166
N16   N     N_R   0.932190 0.879720 0.415160 -0.064534
N17   N     N_R   0.067810 0.120280 0.584840 -0.060385
N18   N     N_R   0.067810 0.584840 0.120280 -0.062991
N19   N     N_R   0.932190 0.415160 0.879720 -0.062544
N20   N     N_R   0.067810 0.120280 0.415160 -0.064466
N21   N     N_R   0.932190 0.879720 0.584840 -0.070314
N22   N     N_R   0.067810 0.415160 0.879720 -0.066061
N23   N     N_R   0.120280 0.584840 0.932190 -0.065218
N24   N     N_R   0.932190 0.584840 0.120280 -0.062793
N25   N     N_R   0.067810 0.879720 0.584840 -0.066584
N26   N     N_R   0.932190 0.120280 0.415160 -0.064331
N27   N     N_R   0.879720 0.932190 0.584840 -0.065878
N28   N     N_R   0.120280 0.067810 0.415160 -0.064076
N29   N     N_R   0.584840 0.932190 0.120280 -0.063963
N30   N     N_R   0.415160 0.067810 0.879720 -0.065905
N31   N     N_R   0.120280 0.932190 0.415160 -0.063873
N32   N     N_R   0.879720 0.067810 0.584840 -0.062272
N33   N     N_R   0.415160 0.932190 0.879720 -0.062354
N34   N     N_R   0.879720 0.415160 0.067810 -0.063011
N35   N     N_R   0.584840 0.067810 0.120280 -0.063716
N36   N     N_R   0.120280 0.067810 0.584840 -0.060095
N37   N     N_R   0.879720 0.932190 0.415160 -0.063719
N38   N     N_R   0.415160 0.067810 0.120280 -0.064589
N39   N     N_R   0.584840 0.932190 0.879720 -0.060922
N40   N     N_R   0.879720 0.067810 0.415160 -0.063767
N41   N     N_R   0.120280 0.932190 0.584840 -0.064541
N42   N     N_R   0.584840 0.067810 0.879720 -0.063697
N43   N     N_R   0.415160 0.932190 0.120280 -0.063150
N44   N     N_R   0.415160 0.120280 0.932190 -0.070328
N45   N     N_R   0.584840 0.879720 0.067810 -0.064066
N46   N     N_R   0.879720 0.415160 0.932190 -0.062756
N47   N     N_R   0.120280 0.584840 0.067810 -0.063211
N48   N     N_R   0.584840 0.120280 0.067810 -0.064127
Ni1   Ni    Ni4+2 0.500000 0.880920 0.000000 0.244977
Ni2   Ni    Ni4+2 0.119080 1.000000 0.500000 0.245622
Ni3   Ni    Ni4+2 0.500000 1.000000 0.119080 0.245319
Ni4   Ni    Ni4+2 0.500000 0.000000 0.880920 0.245115
Ni5   Ni    Ni4+2 0.500000 0.119080 0.000000 0.234476
Ni6   Ni    Ni4+2 0.119080 0.500000 0.000000 0.234901
Ni7   Ni    Ni4+2 0.880920 0.500000 0.000000 0.244768
Ni8   Ni    Ni4+2 0.000000 0.500000 0.880920 0.234477
Ni9   Ni    Ni4+2 0.000000 0.500000 0.119080 0.245130
Ni10  Ni    Ni4+2 0.000000 0.119080 0.500000 0.244838
Ni11  Ni    Ni4+2 0.000000 0.880920 0.500000 0.234442
Ni12  Ni    Ni4+2 0.880920 1.000000 0.500000 0.244892

loop_
_geom_bond_atom_site_label_1
_geom_bond_atom_site_label_2
_ccdc_geom_bond_type
C53   C110  S    
C120  N20   A    
C21   H40   S    
C117  N17   A    
C16   N35   A    
C69   F19   S    
C89   F15   S    
N2    Ni1   S    
C115  N15   A    
C75   F2    S    
N26   Ni10  S    
C104  H4    S    
C68   F18   S    
C67   F12   S    
C32   C58   S    
C40   C93   A    
C30   C90   A    
C101  H48   S    
C83   C110  A    
N15   Ni8   S    
C16   C48   A    
C37   C62   S    
N5    N43   A    
C103  H3    S    
N34   Ni7   S    
N3    N10   A    
C36   C74   A    
N33   Ni4   S    
C72   F22   S    
C32   C81   A    
C77   C89   A    
C94   N23   A    
C80   F6    S    
C54   C107  A    
C15   N33   A    
N47   Ni6   S    
C9    C61   A    
C39   C77   S    
N2    N33   A    
C14   N32   A    
C28   C71   A    
C116  H16   S    
C2    C68   A    
N35   Ni3   S    
C28   C51   S    
C57   C112  A    
N32   Ni12  S    
C38   C79   A    
C48   C101  A    
N6    Ni5   S    
C24   C54   S    
C22   N41   A    
C26   C73   A    
C30   C76   A    
C11   N30   A    
C100  N47   A    
C5    H24   S    
C31   C59   S    
C106  H6    S    
C27   C85   A    
N14   Ni9   S    
C96   H44   S    
C114  H14   S    
C21   C64   A    
C14   H32   S    
N38   Ni3   S    
C25   H43   S    
C10   N29   A    
C22   C63   A    
C91   F17   S    
C23   N42   A    
C2    C84   A    
C53   C106  A    
C42   C114  A    
C47   C118  A    
C56   C108  A    
N24   Ni9   S    
C112  H11   S    
C30   C60   S    
C46   C55   S    
N14   N34   A    
C34   C57   S    
N8    N22   A    
C41   C99   S    
C3    H21   S    
C11   C43   A    
C35   C64   S    
N40   Ni12  S    
N17   N36   A    
C65   F1    S    
C36   C63   S    
C78   F4    S    
N43   Ni3   S    
N18   Ni9   S    
N12   Ni5   S    
C44   C47   S    
C98   H46   S    
N17   Ni10  S    
C106  N6    A    
C38   C61   S    
C107  H7    S    
C10   H29   S    
C97   H45   S    
C46   C98   A    
C50   C103  A    
C51   C109  A    
C20   N39   A    
C108  H8    S    
C4    C56   A    
C101  N48   A    
N12   N38   A    
C7    N26   A    
C87   F14   S    
C21   N40   A    
C103  N3    A    
C41   C115  A    
C83   F9    S    
C102  N2    A    
C19   H38   S    
C97   N45   A    
C72   C88   A    
N29   Ni3   S    
C23   C53   A    
C29   C50   S    
N21   N27   A    
C32   C84   A    
C37   C80   A    
C96   N44   A    
C4    N22   A    
C75   C88   A    
C42   C95   A    
C33   C43   S    
C5    C54   A    
C108  N8    A    
C13   C67   A    
C44   C81   A    
N6    N42   A    
C26   C49   S    
C119  H19   S    
C66   C87   A    
C20   C39   A    
N30   Ni4   S    
C59   C116  A    
N20   N28   A    
C18   H37   S    
C117  H17   S    
C51   C104  A    
C5    N24   A    
N28   Ni2   S    
N13   N31   A    
C47   C100  A    
N7    N24   A    
N29   N45   A    
N16   Ni11  S    
C113  N13   A    
C6    C63   A    
N46   Ni7   S    
C12   N31   A    
N31   Ni2   S    
N13   Ni11  S    
C58   C113  A    
C6    N25   A    
C90   F16   S    
C69   C110  A    
N41   Ni2   S    
C86   F13   S    
C1    C65   A    
C41   C94   A    
C29   C79   A    
C13   C76   A    
C26   C86   A    
N5    Ni1   S    
C10   C45   A    
N15   N23   A    
C43   C96   A    
C104  N4    A    
N19   N46   A    
N36   Ni2   S    
C60   C117  A    
C116  N16   A    
N3    Ni6   S    
C55   C82   A    
C93   N12   A    
C8    H27   S    
C82   F8    S    
C55   C69   A    
C2    C52   S    
C24   C65   A    
N23   Ni6   S    
C12   H31   S    
C17   H36   S    
C24   C78   A    
C84   F10   S    
C8    C62   A    
C52   C105  A    
C92   N1    A    
C31   C91   A    
N27   Ni12  S    
C15   H33   S    
N4    Ni7   S    
N48   Ni5   S    
C44   C68   A    
C100  H47   S    
C42   C88   S    
C34   C83   A    
N1    N39   A    
N25   N41   A    
C39   C92   A    
C49   C102  A    
C109  H9    S    
C33   C67   A    
C31   C78   A    
C29   C70   A    
C73   F23   S    
C3    C62   A    
C73   C99   A    
C14   C57   A    
C74   F24   S    
C118  H18   S    
C11   H30   S    
C34   C82   A    
C95   H34   S    
C92   H1    S    
C76   F3    S    
N1    Ni1   S    
N44   Ni5   S    
C93   H12   S    
C35   C75   A    
N19   Ni8   S    
N45   Ni1   S    
C94   H23   S    
C23   H42   S    
C19   N38   A    
C16   H35   S    
C111  N10   A    
C74   C99   A    
C98   N46   A    
N7    Ni7   S    
C3    N21   A    
C105  H5    S    
N16   N37   A    
C119  N19   A    
C71   F21   S    
C38   C87   A    
C118  N18   A    
C36   C86   A    
N18   N47   A    
C13   C56   S    
C22   H41   S    
C109  N9    A    
N39   Ni4   S    
C95   N34   A    
C12   C58   A    
C8    N27   A    
C45   C97   A    
C33   C90   A    
C85   F11   S    
C107  N7    A    
C35   C85   A    
C1    C45   S    
C66   C70   A    
N11   Ni10  S    
C71   C77   A    
C70   F20   S    
N35   N48   A    
C105  N5    A    
C50   C111  A    
C17   N36   A    
C37   C89   A    
C4    H22   S    
C46   C119  A    
N21   Ni11  S    
C20   H39   S    
C15   C49   A    
C27   C48   S    
C79   F5    S    
N26   N40   A    
C28   C80   A    
C111  H10   S    
C7    C64   A    
C25   C52   A    
N37   Ni12  S    
N8    Ni6   S    
C19   C40   A    
C120  H20   S    
C17   C60   A    
C18   N37   A    
C114  N14   A    
C18   C59   A    
N10   Ni9   S    
C9    N28   A    
C25   N43   A    
N30   N44   A    
C1    C91   A    
N11   N32   A    
C7    H26   S    
C115  H15   S    
N9    Ni8   S    
C9    H28   S    
C40   C66   S    
N25   Ni11  S    
C112  N11   A    
C113  H13   S    
N4    N9    A    
N20   Ni10  S    
C102  H2    S    
C27   C72   A    
C81   F7    S    
N22   Ni8   S    
N42   Ni4   S    
C61   C120  A    
C6    H25   S    
