data_mof_unit_21457.cif
_audit_creation_date              2012-12-10T18:34:37-0500
_audit_creation_method            fapswitch 2.2
_symmetry_space_group_name_H-M    P1
_symmetry_Int_Tables_number       1
_space_group_crystal_system       triclinic
_cell_length_a                    14.960586
_cell_length_b                    15.361726
_cell_length_c                    15.720001
_cell_angle_alpha                 89.976102
_cell_angle_beta                  105.81932
_cell_angle_gamma                 82.125783
_cell_volume                      3440.4694124

loop_
_atom_site_label
_atom_site_type_symbol
_atom_type_description
_atom_site_fract_x
_atom_site_fract_y
_atom_site_fract_z
_atom_type_partial_charge
C1    C     C_R   0.441813 0.662782 0.489985 0.890491
C2    C     C_R   0.561515 0.101222 0.574777 0.018988
C3    C     C_R   0.358386 0.928775 0.543678 0.078771
C4    C     C_R   0.658502 0.068169 0.591777 0.076064
C5    C     C_R   0.523837 0.952541 0.576245 0.107469
C6    C     C_R   0.495316 0.043768 0.576054 0.111676
C7    C     C_R   0.400992 0.074310 0.573760 -0.259237
C8    C     C_R   0.621066 0.920749 0.599008 -0.269675
C9    C     C_R   0.334214 0.017289 0.559597 -0.192022
C10   C     C_R   0.687271 0.977916 0.608827 -0.195446
C11   C     C_R   0.851753 0.621374 0.645548 -0.414610
C12   C     C_R   0.558551 0.337387 0.514975 0.893379
C13   C     C_R   0.153673 0.364931 0.365272 -0.390289
C14   C     C_R   0.756595 0.609677 0.614789 0.623217
C15   C     C_R   0.241292 0.393445 0.382459 0.606400
C16   C     C_R   0.501767 0.500957 0.662305 0.889434
C17   C     C_R   0.498164 0.499292 0.337650 0.893201
C18   C     C_R   0.794066 0.507425 0.511468 -0.130306
C19   C     C_R   0.209954 0.478366 0.500048 -0.145414
C20   C     C_R   0.889976 0.518150 0.538448 -0.037515
C21   C     C_R   0.118325 0.454867 0.482348 -0.039058
C22   C     C_R   0.918932 0.574200 0.609445 0.028776
C23   C     C_R   0.288599 0.872729 0.518920 0.496535
C24   C     C_R   0.090197 0.398350 0.411861 0.003551
C25   C     C_R   0.957382 0.475065 0.497840 0.040121
C26   C     C_R   0.052871 0.488870 0.529165 0.034568
C27   C     C_R   0.080258 0.536436 0.606069 -0.359377
C28   C     C_R   0.932142 0.419946 0.425937 -0.332491
C29   C     C_R   0.014443 0.582137 0.644525 0.516661
C30   C     C_R   0.998357 0.377888 0.386497 0.506635
C31   C     C_3   0.423003 0.550001 0.006503 -0.444301
C32   C     C_3   0.579711 0.441534 0.993472 -0.525394
C33   C     C_3   0.505859 0.578369 0.977421 0.498439
C34   C     C_R   0.724465 0.125308 0.589068 0.485357
C35   C     C_3   0.497094 0.413781 0.024150 0.489328
C36   C     C_1   0.506059 0.502476 0.752115 -0.215228
C37   C     C_1   0.494631 0.496425 0.247985 -0.205995
C38   C     C_3   0.425645 0.469297 0.948010 0.460340
C39   C     C_3   0.577736 0.522421 0.052452 0.451164
C40   C     C_3   0.506517 0.499152 0.918180 -0.093555
C41   C     C_3   0.495918 0.493707 0.082278 -0.074250
C42   C     C_1   0.507939 0.502382 0.827811 0.032464
C43   C     C_1   0.493704 0.494319 0.172520 0.040378
C44   C     C_R   0.409085 0.755208 0.501392 -0.119770
C45   C     C_R   0.315332 0.785678 0.496550 -0.335373
C46   C     C_R   0.594827 0.244983 0.539599 -0.118391
C47   C     C_3   0.492896 0.725067 0.008192 -0.318429
C48   C     C_3   0.569265 0.287345 0.107387 -0.327257
C49   C     C_3   0.266588 0.394039 0.245012 0.054353
C50   C     C_3   0.318234 0.339323 0.187221 -0.323126
C51   C     C_3   0.280341 0.370733 0.090192 -0.861441
C52   C     C_3   0.715457 0.687435 0.731073 0.003622
C53   C     C_3   0.629807 0.718532 0.764102 -0.280952
C54   C     C_3   0.658075 0.759092 0.854362 -0.907381
C55   C     C_3   0.732600 0.548938 0.081162 0.098143
C56   C     C_R   0.690714 0.213625 0.560121 -0.331801
C57   C     C_3   0.805687 0.471896 0.128130 -0.325098
C58   C     C_3   0.894819 0.466087 0.097806 -0.945769
C59   C     C_3   0.360920 0.367918 0.847251 0.130507
C60   C     C_3   0.299468 0.379161 0.751496 -0.355021
C61   C     C_3   0.318711 0.299692 0.697569 -0.949820
C62   C     C_3   0.140647 0.848214 0.531952 0.059654
C63   C     C_3   0.072135 0.821140 0.447799 -0.341174
C64   C     C_3   0.022206 0.746326 0.466977 -0.961907
C65   C     C_3   0.880655 0.147102 0.653217 0.075333
C66   C     C_3   0.933795 0.183081 0.593290 -0.353303
C67   C     C_R   0.476450 0.811221 0.526616 -0.258498
C68   C     C_3   0.988087 0.256134 0.636471 -0.949609
C69   C     C_3   0.110061 0.682374 0.719606 0.037711
C70   C     C_3   0.203816 0.647895 0.786699 -0.312084
C71   C     C_3   0.282541 0.696074 0.774839 -0.953677
C72   C     C_3   0.943272 0.248679 0.337054 0.061015
C73   C     C_3   0.029630 0.180220 0.377147 -0.363695
C74   C     C_3   0.001904 0.089318 0.385667 -0.947151
C75   C     C_R   0.531719 0.189297 0.548182 -0.263168
C76   C     C_R   0.453924 0.896566 0.551247 0.006754
H1    H     H_    0.235608 0.523611 0.550150 0.151547
H2    H     H_    0.760799 0.950372 0.625040 0.187961
H3    H     H_    0.458012 0.214822 0.529202 0.182787
H4    H     H_    0.546890 0.787889 0.524034 0.196334
H5    H     H_    0.738525 0.257867 0.552410 0.166735
H6    H     H_    0.263933 0.741489 0.474990 0.167096
H7    H     H_    0.377384 0.142041 0.584259 0.154405
H8    H     H_    0.647884 0.851700 0.610613 0.165518
H9    H     H_    0.535583 0.707783 0.077462 0.198275
H10   H     H_    0.416755 0.732846 0.003667 0.163776
H11   H     H_    0.508732 0.789746 0.989742 0.181875
H12   H     H_    0.766607 0.461867 0.462672 0.152540
H13   H     H_    0.625634 0.272388 0.073691 0.165843
H14   H     H_    0.556033 0.223981 0.131964 0.190314
H15   H     H_    0.592930 0.327598 0.165921 0.168811
H16   H     H_    0.276502 0.464077 0.239688 0.161968
H17   H     H_    0.190410 0.389972 0.217664 0.119142
H18   H     H_    0.394508 0.343779 0.210229 0.242921
H19   H     H_    0.308738 0.269288 0.193208 0.220334
H20   H     H_    0.203371 0.369999 0.066878 0.243957
H21   H     H_    0.314013 0.326198 0.048821 0.299294
H22   H     H_    0.295419 0.438484 0.081524 0.271953
H23   H     H_    0.874097 0.666762 0.696881 0.183213
H24   H     H_    0.752285 0.745080 0.728112 0.136485
H25   H     H_    0.762046 0.635347 0.778364 0.149457
H26   H     H_    0.581003 0.768397 0.716136 0.223023
H27   H     H_    0.592234 0.662065 0.769183 0.243486
H28   H     H_    0.701830 0.708760 0.904891 0.263392
H29   H     H_    0.594106 0.785060 0.874150 0.288305
H30   H     H_    0.697923 0.814436 0.851441 0.248319
H31   H     H_    0.763069 0.610932 0.097042 0.161523
H32   H     H_    0.716518 0.544123 0.007805 0.139373
H33   H     H_    0.823907 0.480488 0.200790 0.249011
H34   H     H_    0.134938 0.318573 0.313789 0.193166
H35   H     H_    0.775994 0.409282 0.114502 0.213898
H36   H     H_    0.878631 0.455650 0.025590 0.256633
H37   H     H_    0.946291 0.409897 0.133378 0.289359
H38   H     H_    0.926853 0.527405 0.112544 0.259193
H39   H     H_    0.342396 0.311789 0.880362 0.169968
H40   H     H_    0.435727 0.351260 0.846802 0.139995
H41   H     H_    0.224246 0.388627 0.750794 0.231588
H42   H     H_    0.313453 0.438692 0.719934 0.234780
H43   H     H_    0.392725 0.291128 0.694525 0.265967
H44   H     H_    0.271912 0.309892 0.629044 0.269221
H45   H     H_    0.153245 0.537726 0.638294 0.146067
H46   H     H_    0.304998 0.239152 0.727547 0.259569
H47   H     H_    0.098737 0.882747 0.573530 0.160075
H48   H     H_    0.182978 0.790136 0.573350 0.123427
H49   H     H_    0.018990 0.878821 0.418606 0.229691
H50   H     H_    0.110091 0.799871 0.398022 0.225074
H51   H     H_    0.073742 0.686094 0.489716 0.262928
H52   H     H_    0.969663 0.731746 0.405655 0.273300
H53   H     H_    0.985462 0.764775 0.518351 0.263912
H54   H     H_    0.932896 0.107343 0.708334 0.154470
H55   H     H_    0.845880 0.201188 0.685518 0.129927
H56   H     H_    0.860918 0.409037 0.396904 0.145161
H57   H     H_    0.983918 0.128638 0.578851 0.229738
H58   H     H_    0.884017 0.209232 0.529513 0.217330
H59   H     H_    0.938965 0.313016 0.648104 0.268828
H60   H     H_    0.027408 0.278713 0.592034 0.266452
H61   H     H_    0.038886 0.231666 0.700394 0.264335
H62   H     H_    0.084906 0.748924 0.738758 0.155545
H63   H     H_    0.119810 0.691699 0.652672 0.127463
H64   H     H_    0.196827 0.656705 0.854885 0.226809
H65   H     H_    0.223090 0.576581 0.779015 0.252873
H66   H     H_    0.293130 0.685021 0.708191 0.254752
H67   H     H_    0.358592 0.592072 0.012338 0.173905
H68   H     H_    0.348802 0.670534 0.825216 0.308566
H69   H     H_    0.265648 0.767729 0.783019 0.259122
H70   H     H_    0.900510 0.222749 0.275602 0.172705
H71   H     H_    0.897673 0.258234 0.382624 0.120166
H72   H     H_    0.078064 0.176280 0.334362 0.234699
H73   H     H_    0.067339 0.200373 0.443722 0.212675
H74   H     H_    0.949820 0.091668 0.424445 0.263732
H75   H     H_    0.065082 0.042770 0.419826 0.300771
H76   H     H_    0.971158 0.064761 0.319124 0.260815
H77   H     H_    0.642381 0.398428 0.985177 0.174937
H78   H     H_    0.262678 0.043967 0.557356 0.188816
N1    N     N_R   0.731710 0.552730 0.549140 -0.124954
N2    N     N_R   0.268290 0.447270 0.450860 -0.130469
O1    O     O_R   0.383110 0.605620 0.475230 -0.629115
O2    O     O_3   0.485656 0.328254 0.047761 -0.619517
O3    O     O_3   0.303075 0.362388 0.334314 -0.614674
O4    O     O_3   0.684842 0.654631 0.645700 -0.621158
O5    O     O_3   0.653112 0.553847 0.113954 -0.641150
O6    O     O_3   0.342283 0.445236 0.892006 -0.649118
O7    O     O_3   0.195230 0.908339 0.509547 -0.674977
O8    O     O_3   0.819030 0.090503 0.605311 -0.665728
O9    O     O_3   0.042254 0.627088 0.722316 -0.649632
O10   O     O_3   0.969900 0.328064 0.312909 -0.665193
O11   O     O_R   0.616890 0.394380 0.524770 -0.631835
O12   O     O_R   0.531900 0.639510 0.506760 -0.571047
O13   O     O_R   0.468100 0.360490 0.493240 -0.580717
O14   O     O_R   0.425620 0.483070 0.607460 -0.626027
O15   O     O_R   0.574380 0.516930 0.392540 -0.612206
O16   O     O_R   0.574400 0.516960 0.638990 -0.576580
O17   O     O_R   0.425600 0.483040 0.361010 -0.586808
O18   O     O_3   0.515130 0.662801 0.948708 -0.614379
Zn1   Zn    Zn3+2 0.400660 0.477370 0.478940 0.962356
Zn2   Zn    Zn3+2 0.599340 0.522630 0.521060 0.979105

loop_
_geom_bond_atom_site_label_1
_geom_bond_atom_site_label_2
_ccdc_geom_bond_type
N1    Zn2   S    
C51   H21   S    
C7    H7    S    
C21   C26   A    
N2    Zn1   S    
C34   C56   A    
C23   C45   A    
C22   C29   A    
C14   N1    A    
C61   H43   S    
C73   C74   S    
C66   C68   S    
C45   H6    S    
C12   O11   A    
C62   H48   S    
C65   H54   S    
C27   H45   S    
C56   H5    S    
C39   C41   S    
C53   C54   S    
C44   C45   A    
C25   C28   A    
C70   H64   S    
C26   C27   A    
C33   C39   S    
C58   H36   S    
C47   H9    S    
C54   H28   S    
C19   C21   A    
C34   O8    S    
C5    C6    A    
C11   C14   A    
C50   H19   S    
C27   C29   A    
C20   C25   A    
C11   H23   S    
C32   C39   S    
C29   O9    S    
C19   H1    S    
C62   H47   S    
C66   H58   S    
C36   C42   T    
C57   H33   S    
C59   H40   S    
C64   H52   S    
C48   H15   S    
C58   H37   S    
C31   C33   S    
C60   H42   S    
C70   C71   S    
C39   O5    S    
C51   H20   S    
C51   H22   S    
C40   C42   S    
C59   C60   S    
C48   H14   S    
C61   H44   S    
C19   N2    A    
C41   C43   S    
C74   H76   S    
C68   H61   S    
C2    C6    A    
C46   C75   A    
C65   H55   S    
C17   O17   A    
C6    C7    A    
C23   O7    S    
O14   Zn1   S    
O17   Zn1   S    
C10   H2    S    
C4    C34   A    
C52   H25   S    
C33   C40   S    
C54   H30   S    
C73   H72   S    
C74   H74   S    
C63   H50   S    
C32   C35   S    
C68   H60   S    
C35   C38   S    
C30   O10   S    
C12   C46   S    
C50   H18   S    
C1    O12   A    
C3    C23   A    
C48   O2    S    
C52   H24   S    
C18   H12   S    
C63   C64   S    
C13   C24   A    
C14   O4    S    
C61   H46   S    
C28   H56   S    
C47   H11   S    
C71   H68   S    
C37   C43   T    
C2    C4    A    
C47   H10   S    
C15   O3    S    
C62   C63   S    
C3    C9    A    
C16   O14   A    
C66   H57   S    
C16   O16   A    
C1    C44   S    
C62   O7    S    
C53   H26   S    
C64   H51   S    
C50   C51   S    
O13   Zn1   S    
C69   H63   S    
C17   C37   S    
C33   O18   S    
C13   H34   S    
C55   O5    S    
C15   N2    A    
C63   H49   S    
O1    Zn1   S    
C71   H66   S    
C8    C10   A    
C71   H69   S    
C20   C22   A    
C9    H78   S    
C49   C50   S    
C48   H13   S    
C13   C15   A    
C60   H41   S    
C74   H75   S    
C24   C30   A    
C49   H16   S    
C4    C10   A    
C52   C53   S    
C69   H62   S    
O12   Zn2   S    
C70   H65   S    
C31   C41   S    
C54   H29   S    
C73   H73   S    
C8    H8    S    
C72   O10   S    
C68   H59   S    
C49   O3    S    
C67   H4    S    
C72   C73   S    
C5    C8    A    
C17   O15   A    
C12   O13   A    
C72   H71   S    
O15   Zn2   S    
C11   C22   A    
C31   C38   S    
C55   H32   S    
C5    C76   A    
C55   C57   S    
C25   C26   A    
C35   O2    S    
C28   C30   A    
C59   O6    S    
C16   C36   S    
C38   C40   S    
C57   C58   S    
C57   H35   S    
C53   H27   S    
C72   H70   S    
C65   O8    S    
C1    O1    A    
C18   C20   A    
C32   C40   S    
C31   H67   S    
C69   C70   S    
C35   C41   S    
C69   O9    S    
C47   O18   S    
C18   N1    A    
C32   H77   S    
C7    C9    A    
C38   O6    S    
C64   H53   S    
C59   H39   S    
C65   C66   S    
C21   C24   A    
C46   C56   A    
C58   H38   S    
C3    C76   A    
C60   C61   S    
C44   C67   A    
C67   C76   A    
C55   H31   S    
C49   H17   S    
C75   H3    S    
C52   O4    S    
C2    C75   A    
O16   Zn2   S    
O11   Zn2   S    
