data_mof_unit_22999.cif
_audit_creation_date              2012-12-10T17:37:19-0500
_audit_creation_method            fapswitch 2.2
_symmetry_space_group_name_H-M    P1
_symmetry_Int_Tables_number       1
_space_group_crystal_system       triclinic
_cell_length_a                    12.32884
_cell_length_b                    13.183141
_cell_length_c                    15.849855
_cell_angle_alpha                 77.898052
_cell_angle_beta                  101.097482
_cell_angle_gamma                 116.578479
_cell_volume                      2238.29372686

loop_
_atom_site_label
_atom_site_type_symbol
_atom_type_description
_atom_site_fract_x
_atom_site_fract_y
_atom_site_fract_z
_atom_type_partial_charge
C1    C     C_R   0.854851 0.286598 0.507444 0.771430
C2    C     C_3   0.000265 0.500801 0.916915 0.177842
C3    C     C_3   0.110133 0.574074 0.031976 -0.148402
C4    C     C_3   0.999751 0.499387 0.083039 0.159155
C5    C     C_3   0.024099 0.606305 0.957490 -0.192850
C6    C     C_3   0.913593 0.531984 0.010247 -0.211889
C7    C     C_1   0.999231 0.500461 0.825101 -0.054392
C8    C     C_1   0.000476 0.499387 0.174844 -0.067074
C9    C     C_R   0.275451 0.021216 0.385212 -0.192555
C10   C     C_R   0.228014 0.834435 0.469753 -0.047128
C11   C     C_R   0.815285 0.085396 0.563804 -0.188340
C12   C     C_R   0.999480 0.499827 0.659916 0.823549
C13   C     C_R   0.736508 0.970588 0.580846 -0.145816
C14   C     C_R   0.613191 0.932832 0.550649 -0.182518
C15   C     C_R   0.566406 0.009432 0.499311 0.078927
C16   C     C_R   0.649843 0.123755 0.473593 0.081979
C17   C     C_R   0.439796 0.976052 0.471785 0.072598
C18   C     C_R   0.400088 0.053169 0.412862 0.167034
C19   C     C_R   0.485286 0.160186 0.380435 -0.241886
C20   C     C_R   0.608364 0.194334 0.409163 -0.200176
C21   C     C_R   0.351018 0.868417 0.501570 -0.253409
C22   C     C_R   0.189723 0.911916 0.413072 -0.196894
C23   C     C_R   0.145085 0.713361 0.487443 0.794324
C24   C     C_R   0.772894 0.163607 0.512275 -0.100881
C25   C     C_R   0.345428 0.327552 0.636977 -0.301608
C26   C     C_R   0.760309 0.645998 0.383867 0.078488
C27   C     C_R   0.664273 0.678122 0.358686 -0.257767
C28   C     C_R   0.560512 0.623061 0.402353 -0.191382
C29   C     C_R   0.551655 0.534733 0.472325 -0.006481
C30   C     C_R   0.652851 0.505128 0.496049 0.285574
C31   C     C_R   0.446973 0.475098 0.519766 -0.037829
C32   C     C_R   0.445970 0.387528 0.589432 0.174233
C33   C     C_R   0.545459 0.360467 0.611683 -0.279688
C34   C     C_R   0.000419 0.500050 0.340079 0.818582
C35   C     C_R   0.646660 0.418273 0.566392 -0.175431
C36   C     C_R   0.342414 0.498120 0.501566 0.021905
C37   C     C_R   0.245894 0.354426 0.615823 0.074044
C38   C     C_3   0.975757 0.393411 0.042964 -0.156886
C39   C     C_3   0.892810 0.428150 0.969253 0.206103
C40   C     C_1   0.998940 0.500158 0.749516 -0.178947
C41   C     C_1   0.000783 0.499608 0.250455 -0.183691
C42   C     C_3   0.085988 0.468396 0.990120 -0.191731
Cu1   Cu    Cu3+1 0.098270 0.475420 0.519690 0.936095
Cu2   Cu    Cu3+1 0.901730 0.524580 0.480310 0.923604
H1    H     H_    0.374931 0.808133 0.549087 0.148408
H2    H     H_    0.909242 0.113408 0.592870 0.151246
H3    H     H_    0.557769 0.842643 0.567054 0.129855
H4    H     H_    0.770548 0.910866 0.620072 0.142246
H5    H     H_    0.670335 0.275655 0.378118 0.176302
H6    H     H_    0.167870 0.308451 0.652198 0.121774
H7    H     H_    0.545491 0.293962 0.665195 0.155003
H8    H     H_    0.343952 0.260415 0.690254 0.135988
H9    H     H_    0.335123 0.563033 0.449820 0.124229
H10   H     H_    0.840542 0.689274 0.349654 0.123994
H11   H     H_    0.953984 0.305742 0.078471 0.131327
H12   H     H_    0.489017 0.651458 0.380094 0.135873
H13   H     H_    0.670282 0.745945 0.305141 0.142885
H14   H     H_    0.718380 0.391997 0.589433 0.207820
H15   H     H_    0.841566 0.556196 0.019251 0.132598
H16   H     H_    0.044561 0.693511 0.921446 0.137814
H17   H     H_    0.200473 0.634721 0.059504 0.133674
H18   H     H_    0.156962 0.443044 0.980722 0.136481
H19   H     H_    0.094610 0.886577 0.387617 0.147158
H20   H     H_    0.456721 0.217914 0.332469 0.145231
H21   H     H_    0.244726 0.079679 0.340095 0.133299
N1    N     N_R   0.246280 0.438200 0.549540 -0.180117
N2    N     N_R   0.754330 0.561180 0.450980 -0.206654
O1    O     O_R   0.972510 0.318130 0.524770 -0.580565
O2    O     O_R   0.806530 0.359650 0.491510 -0.604853
O3    O     O_R   0.082970 0.479240 0.637550 -0.575524
O4    O     O_R   0.916990 0.520750 0.604290 -0.591772
O5    O     O_R   0.193470 0.640350 0.508490 -0.587746
O6    O     O_R   0.027490 0.681870 0.475230 -0.587197
O7    O     O_R   0.083010 0.479250 0.395710 -0.575320
O8    O     O_R   0.917030 0.520760 0.362450 -0.588137
N3    N     N_3   0.774478 0.347993 0.933471 -0.599269
H22   H     H_    0.717898 0.312993 0.983204 0.210185
H23   H     H_    0.737345 0.395502 0.886120 0.213947

loop_
_geom_bond_atom_site_label_1
_geom_bond_atom_site_label_2
_ccdc_geom_bond_type
C3    C42   S    
Cu1   O5    S    
C19   C20   A    
C4    C8    S    
C11   H2    S    
C28   H12   S    
C10   C22   A    
C26   C27   A    
C29   C30   A    
C30   C35   A    
C35   H14   S    
C26   N2    A    
C28   C29   A    
N3    H23   S    
C38   C42   S    
C5    C6    S    
C36   N1    A    
C9    C22   A    
C15   C16   A    
C11   C24   A    
C1    O1    A    
Cu2   O4    S    
C18   C19   A    
C23   O5    A    
C36   H9    S    
C25   C37   A    
C22   H19   S    
C2    C39   S    
C38   H11   S    
C2    C7    S    
Cu1   O1    S    
C7    C40   T    
C42   H18   S    
C30   N2    A    
C34   O8    A    
Cu1   O7    S    
C16   C24   A    
C13   C14   A    
C34   C41   S    
C23   O6    A    
C26   H10   S    
C21   H1    S    
C3    H17   S    
C10   C21   A    
C8    C41   T    
C4    C6    S    
C27   H13   S    
C1    O2    A    
C12   C40   S    
Cu2   O8    S    
Cu1   Cu2   S    
C20   H5    S    
C31   C32   A    
C14   C15   A    
C19   H20   S    
C16   C20   A    
C37   N1    A    
C17   C18   A    
Cu2   O2    S    
C39   N3    S    
N3    H22   S    
C34   O7    A    
C12   O4    A    
C4    C38   S    
Cu1   O3    S    
C2    C5    S    
C3    C4    S    
C15   C17   A    
C12   O3    A    
C5    H16   S    
C31   C36   A    
C6    H15   S    
C3    C5    S    
C13   H4    S    
C14   H3    S    
C10   C23   S    
C33   H7    S    
C32   C33   A    
C25   H8    S    
C29   C31   A    
C37   H6    S    
C11   C13   A    
C38   C39   S    
C2    C42   S    
Cu1   N1    S    
C33   C35   A    
Cu2   O6    S    
C9    H21   S    
C9    C18   A    
C1    C24   S    
C27   C28   A    
C6    C39   S    
Cu2   N2    S    
C25   C32   A    
C17   C21   A    
