data_mof_unit_20379.cif
_audit_creation_date              2012-12-11T14:52:44-0500
_audit_creation_method            fapswitch 2.2
_symmetry_space_group_name_H-M    P1
_symmetry_Int_Tables_number       1
_space_group_crystal_system       triclinic
_cell_length_a                    18.768419
_cell_length_b                    10.951828
_cell_length_c                    18.792329
_cell_angle_alpha                 90.341941
_cell_angle_beta                  90.900072
_cell_angle_gamma                 89.990432
_cell_volume                      3862.18957239

loop_
_atom_site_label
_atom_site_type_symbol
_atom_type_description
_atom_site_fract_x
_atom_site_fract_y
_atom_site_fract_z
_atom_type_partial_charge
C1    C     C_R   0.271426 0.045002 0.852826 0.543910
C2    C     C_R   0.688631 0.567137 0.032172 -0.195491
C3    C     C_3   0.038937 0.324700 0.061906 0.052979
C4    C     C_3   0.082580 0.763895 0.959990 -0.030166
C5    C     C_3   0.040147 0.839014 0.905998 -0.364457
C6    C     C_3   0.899967 0.787152 0.042524 -0.013308
C7    C     C_3   0.944144 0.812579 0.109663 -0.351950
C8    C     C_3   0.582581 0.263889 0.959986 -0.030252
C9    C     C_3   0.540152 0.339011 0.905992 -0.364305
C10   C     C_3   0.399977 0.287094 0.042545 -0.013212
C11   C     C_3   0.444147 0.312550 0.109684 -0.352146
C12   C     C_R   0.819592 0.103202 0.974514 -0.196910
C13   C     C_R   0.188632 0.067133 0.032174 -0.195540
C14   C     C_R   0.311194 0.576309 0.046175 -0.116909
C15   C     C_R   0.697918 0.536820 0.960964 -0.179545
C16   C     C_R   0.811194 0.076316 0.046176 -0.116813
C17   C     C_R   0.197919 0.036817 0.960966 -0.179971
C18   C     C_R   0.243901 0.585642 0.075878 0.006798
C19   C     C_R   0.749484 0.595783 0.921125 -0.016316
C20   C     C_R   0.743899 0.085637 0.075876 0.006896
C21   C     C_R   0.727802 0.043151 0.146753 0.543992
C22   C     C_R   0.249487 0.095777 0.921128 -0.016965
C23   C     C_R   0.185844 0.626029 0.034750 -0.136370
C24   C     C_R   0.789527 0.690554 0.951999 -0.122221
C25   C     C_R   0.685840 0.126011 0.034747 -0.136337
C26   C     C_R   0.289534 0.190542 0.952004 -0.122237
C27   C     C_R   0.193341 0.660408 0.964832 0.250641
C28   C     C_R   0.784434 0.716437 0.024622 0.250084
C29   C     C_R   0.693338 0.160394 0.964830 0.250682
C30   C     C_R   0.284439 0.216428 0.024626 0.250160
C31   C     C_R   0.261233 0.644328 0.933430 0.034348
C32   C     C_R   0.771425 0.545004 0.852826 0.540505
C33   C     C_R   0.733032 0.654553 0.064987 0.027212
C34   C     C_R   0.761231 0.144322 0.933429 0.034440
C35   C     C_R   0.233035 0.154547 0.064989 0.027709
C36   C     C_R   0.464400 0.727018 0.527175 -0.121985
C37   C     C_R   0.471700 0.731477 0.454510 -0.131373
C38   C     C_R   0.968464 0.224696 0.528031 -0.127711
C39   C     C_R   0.974932 0.228908 0.455353 -0.136595
C40   C     C_R   0.500096 0.835652 0.423328 0.027811
C41   C     C_R   0.483135 0.828106 0.569901 0.034800
C42   C     C_R   0.000116 0.334871 0.423383 0.028318
C43   C     C_R   0.227803 0.543153 0.146754 0.543365
C44   C     C_R   0.983961 0.328054 0.570112 0.034293
C45   C     C_R   0.515217 0.939806 0.465137 -0.139623
C46   C     C_R   0.506364 0.936135 0.538452 -0.148563
C47   C     C_R   0.012467 0.440765 0.464523 -0.129828
C48   C     C_R   0.003775 0.437555 0.537904 -0.133578
C49   C     C_R   0.471917 0.821813 0.854691 0.543516
C50   C     C_R   0.560860 0.817067 0.137496 0.541916
C51   C     C_R   0.971917 0.321813 0.854692 0.543245
C52   C     C_R   0.060860 0.317067 0.137496 0.542278
C53   C     C_R   0.215440 0.698553 0.524533 -0.125691
C54   C     C_3   0.545555 0.727475 0.961810 -0.116923
C55   C     C_R   0.792672 0.685099 0.474033 -0.124585
C56   C     C_R   0.707261 0.184921 0.526439 -0.128319
C57   C     C_R   0.318045 0.088121 0.455523 -0.137467
C58   C     C_R   0.214682 0.686816 0.451975 -0.137370
C59   C     C_R   0.792448 0.677882 0.546574 -0.132805
C60   C     C_R   0.707788 0.178581 0.453892 -0.137945
C61   C     C_R   0.324044 0.080851 0.528066 -0.124913
C62   C     C_R   0.253177 0.592374 0.421088 0.031083
C63   C     C_R   0.748011 0.593463 0.578879 0.034647
C64   C     C_R   0.752277 0.094406 0.421024 0.035920
C65   C     C_3   0.493810 0.725529 0.024783 -0.108939
C66   C     C_R   0.263144 0.061099 0.569052 0.039237
C67   C     C_R   0.300066 0.520146 0.462073 -0.138954
C68   C     C_R   0.696095 0.529718 0.538950 -0.131075
C69   C     C_R   0.804070 0.030209 0.460493 -0.139213
C70   C     C_R   0.196907 0.040462 0.536633 -0.150607
C71   C     C_R   0.301356 0.532796 0.535134 -0.150683
C72   C     C_R   0.694603 0.540174 0.465620 -0.135964
C73   C     C_R   0.805090 0.039457 0.533882 -0.147144
C74   C     C_R   0.190677 0.049345 0.463575 -0.139824
C75   C     C_R   0.256684 0.618557 0.566492 0.037279
C76   C     C_3   0.045553 0.227473 0.961812 -0.116837
C77   C     C_R   0.744803 0.614630 0.432917 0.039260
C78   C     C_R   0.755004 0.113986 0.567044 0.040849
C79   C     C_R   0.250816 0.079829 0.423626 0.031467
C80   C     C_R   0.272079 0.680168 0.859665 0.567576
C81   C     C_R   0.726176 0.684013 0.140744 0.569597
C82   C     C_R   0.772078 0.180165 0.859665 0.567516
C83   C     C_R   0.226177 0.184011 0.140744 0.568776
C84   C     C_R   0.273476 0.040650 0.643659 0.549760
C85   C     C_R   0.730130 0.048812 0.352506 0.551809
C86   C     C_R   0.769976 0.548269 0.647350 0.550791
C87   C     C_3   0.993806 0.225534 0.024784 -0.108948
C88   C     C_R   0.230099 0.548204 0.352667 0.551970
C89   C     C_R   0.466609 0.822694 0.644961 0.548904
C90   C     C_R   0.529345 0.824378 0.352613 0.558196
C91   C     C_R   0.966858 0.322723 0.645070 0.551446
C92   C     C_R   0.029320 0.324286 0.352607 0.559208
C93   C     C_R   0.261341 0.642468 0.641340 0.556876
C94   C     C_R   0.739006 0.641458 0.358323 0.559883
C95   C     C_R   0.760889 0.140846 0.641731 0.557120
C96   C     C_R   0.240597 0.133707 0.354962 0.559813
C97   C     C_3   0.493790 0.926299 0.027666 -0.112020
C98   C     C_R   0.319593 0.603199 0.974514 -0.196813
C99   C     C_3   0.545147 0.927924 0.963974 -0.138805
C100  C     C_3   0.993792 0.426304 0.027664 -0.111992
C101  C     C_3   0.045151 0.427922 0.963974 -0.138825
C102  C     C_3   0.448446 0.826995 0.989966 -0.112570
C103  C     C_3   0.590984 0.827069 0.999564 -0.141104
C104  C     C_3   0.948446 0.327003 0.989966 -0.112409
C105  C     C_3   0.090984 0.327064 0.999565 -0.141043
C106  C     C_3   0.500421 0.828498 0.927634 0.050200
C107  C     C_3   0.538937 0.824698 0.061905 0.053115
C108  C     C_3   0.000421 0.328499 0.927634 0.050412
Cr1   Cr    Cr6+3 0.229630 0.835900 0.747350 1.024848
Cr2   Cr    Cr6+3 0.614200 0.677120 0.250660 1.004937
Cr3   Cr    Cr6+3 0.885800 0.177120 0.749340 1.006843
Cr4   Cr    Cr6+3 0.114200 0.177120 0.250660 1.001316
Cr5   Cr    Cr6+3 0.770370 0.835900 0.252650 1.018599
Cr6   Cr    Cr6+3 0.729630 0.335900 0.747350 1.024196
Cr7   Cr    Cr6+3 0.270370 0.335900 0.252650 1.018841
Cr8   Cr    Cr6+3 0.387410 0.989850 0.750850 1.013587
Cr9   Cr    Cr6+3 0.612590 0.989850 0.249150 1.000564
Cr10  Cr    Cr6+3 0.887410 0.489850 0.750850 1.016862
Cr11  Cr    Cr6+3 0.112590 0.489850 0.249150 1.004011
Cr12  Cr    Cr6+3 0.385800 0.677120 0.749340 1.008322
H1    H     H_    0.389487 0.829499 0.984700 0.110026
H2    H     H_    0.660108 0.466139 0.563718 0.122322
H3    H     H_    0.840173 0.966826 0.435262 0.118278
H4    H     H_    0.150304 0.019877 0.567694 0.119879
H5    H     H_    0.335805 0.474632 0.566981 0.121809
H6    H     H_    0.655212 0.489611 0.434694 0.119648
H7    H     H_    0.844165 0.988223 0.564476 0.111582
H8    H     H_    0.138111 0.041571 0.439314 0.136985
H9    H     H_    0.472980 0.007288 0.056298 0.115151
H10   H     H_    0.564936 0.007133 0.934387 0.176781
H11   H     H_    0.972983 0.507300 0.056292 0.115399
H12   H     H_    0.649798 0.831510 0.004114 0.120562
H13   H     H_    0.064944 0.507130 0.934388 0.176847
H14   H     H_    0.565819 0.646324 0.932930 0.125088
H15   H     H_    0.473061 0.641727 0.050078 0.114139
H16   H     H_    0.065815 0.146318 0.932934 0.125232
H17   H     H_    0.973056 0.141735 0.050080 0.114225
H18   H     H_    0.371757 0.593343 0.951315 0.134225
H19   H     H_    0.648347 0.519595 0.061919 0.136797
H20   H     H_    0.871757 0.093354 0.951317 0.134202
H21   H     H_    0.148346 0.019595 0.061920 0.136880
H22   H     H_    0.356326 0.546271 0.077779 0.146154
H23   H     H_    0.889487 0.329510 0.984699 0.110290
H24   H     H_    0.667016 0.464356 0.937321 0.152300
H25   H     H_    0.856327 0.046289 0.077782 0.146199
H26   H     H_    0.167015 0.964357 0.937322 0.152199
H27   H     H_    0.132741 0.625291 0.056105 0.132688
H28   H     H_    0.828050 0.739750 0.920807 0.131307
H29   H     H_    0.632737 0.125265 0.056100 0.132707
H30   H     H_    0.328061 0.239733 0.920814 0.131744
H31   H     H_    0.443354 0.643973 0.549713 0.139016
H32   H     H_    0.459010 0.650666 0.423235 0.128337
H33   H     H_    0.950308 0.140007 0.550996 0.135965
H34   H     H_    0.149798 0.331500 0.004116 0.120741
H35   H     H_    0.964353 0.146543 0.424714 0.126914
H36   H     H_    0.537636 0.021274 0.441953 0.135290
H37   H     H_    0.518698 0.016162 0.570483 0.120356
H38   H     H_    0.032413 0.523611 0.440738 0.136363
H39   H     H_    0.013586 0.519187 0.569381 0.126120
H40   H     H_    0.183427 0.770502 0.547570 0.140740
H41   H     H_    0.830199 0.747459 0.450508 0.130548
H42   H     H_    0.669582 0.247038 0.550370 0.129668
H43   H     H_    0.365007 0.109223 0.425062 0.127873
H44   H     H_    0.107237 0.826385 0.000195 0.113087
H45   H     H_    0.179623 0.744918 0.420703 0.128171
H46   H     H_    0.044719 0.702773 0.987287 0.112267
H47   H     H_    0.001331 0.779590 0.877035 0.145792
H48   H     H_    0.011071 0.913409 0.933408 0.078092
H49   H     H_    0.076114 0.880827 0.866630 0.174231
H50   H     H_    0.915846 0.852112 0.000681 0.126413
H51   H     H_    0.912958 0.692612 0.024533 0.111505
H52   H     H_    0.930714 0.745475 0.151419 0.172844
H53   H     H_    0.001730 0.804391 0.097973 0.072459
H54   H     H_    0.933754 0.906007 0.130061 0.147490
H55   H     H_    0.607240 0.326377 0.000191 0.113146
H56   H     H_    0.831627 0.730361 0.576732 0.127125
H57   H     H_    0.544717 0.202774 0.987284 0.112263
H58   H     H_    0.501337 0.279589 0.877027 0.146199
H59   H     H_    0.511075 0.413406 0.933401 0.078137
H60   H     H_    0.576122 0.380823 0.866626 0.174207
H61   H     H_    0.415874 0.352014 0.000688 0.126467
H62   H     H_    0.412956 0.192534 0.024579 0.111362
H63   H     H_    0.430666 0.245535 0.151473 0.172086
H64   H     H_    0.501732 0.304248 0.098016 0.072546
H65   H     H_    0.433804 0.406028 0.130029 0.147415
H66   H     H_    0.668669 0.231206 0.424098 0.124198
H67   H     H_    0.376700 0.090462 0.551860 0.140579
H68   H     H_    0.331182 0.447434 0.438581 0.137652
O1    O     O_R   0.214270 0.709000 0.827470 -0.442948
O2    O     O_R   0.543270 0.717630 0.330160 -0.517918
O3    O     O_R   0.956730 0.217630 0.669840 -0.528991
O4    O     O_R   0.043270 0.217630 0.330160 -0.522303
O5    O     O_R   0.320620 0.625640 0.672920 -0.504327
O6    O     O_R   0.679380 0.625640 0.327080 -0.498474
O7    O     O_R   0.820620 0.125640 0.672920 -0.504200
O8    O     O_R   0.179380 0.125640 0.327080 -0.503914
O9    O     O_3   0.334280 0.834290 0.749180 -0.271387
O10   O     O_3   0.665720 0.834290 0.250820 -0.283957
O11   O     O_3   0.834280 0.334290 0.749180 -0.268072
O12   O     O_R   0.785730 0.709000 0.172530 -0.465840
O13   O     O_3   0.165720 0.334290 0.250820 -0.282524
O14   O     O_R   0.236160 0.958490 0.823130 -0.517130
O15   O     O_R   0.763840 0.958490 0.176870 -0.488062
O16   O     O_R   0.736160 0.458490 0.823130 -0.518801
O17   O     O_R   0.263840 0.458490 0.176870 -0.488126
O18   O     O_R   0.332080 0.075470 0.831280 -0.523366
O19   O     O_R   0.667920 0.075470 0.168720 -0.544092
O20   O     O_R   0.832080 0.575470 0.831280 -0.526136
O21   O     O_R   0.167920 0.575470 0.168720 -0.544519
O22   O     O_R   0.446300 0.918110 0.826620 -0.498006
O23   O     O_R   0.714270 0.209000 0.827470 -0.443417
O24   O     O_R   0.553700 0.918110 0.173380 -0.502953
O25   O     O_R   0.946300 0.418110 0.826620 -0.498668
O26   O     O_R   0.053700 0.418110 0.173380 -0.502451
O27   O     O_R   0.457110 0.716200 0.831760 -0.533134
O28   O     O_R   0.542890 0.716200 0.168240 -0.527379
O29   O     O_R   0.957110 0.216200 0.831760 -0.533536
O30   O     O_R   0.042890 0.216200 0.168240 -0.526670
O31   O     O_R   0.320980 0.624310 0.823030 -0.509907
O32   O     O_R   0.679020 0.624310 0.176970 -0.528101
O33   O     O_R   0.820980 0.124310 0.823030 -0.511150
O34   O     O_R   0.285730 0.209000 0.172530 -0.468637
O35   O     O_R   0.179020 0.124310 0.176970 -0.529847
O36   O     O_R   0.213890 0.710430 0.665540 -0.526457
O37   O     O_R   0.786110 0.710430 0.334460 -0.529682
O38   O     O_R   0.713890 0.210430 0.665540 -0.527434
O39   O     O_R   0.286110 0.210430 0.334460 -0.525344
O40   O     O_R   0.235810 0.959820 0.673020 -0.511452
O41   O     O_R   0.764190 0.959820 0.326980 -0.511936
O42   O     O_R   0.735810 0.459820 0.673020 -0.512132
O43   O     O_R   0.264190 0.459820 0.326980 -0.509947
O44   O     O_R   0.331700 0.076900 0.669350 -0.527403
O45   O     O_R   0.445950 0.919440 0.676520 -0.504882
O46   O     O_R   0.668300 0.076900 0.330650 -0.524708
O47   O     O_R   0.831700 0.576900 0.669350 -0.522346
O48   O     O_R   0.168300 0.576900 0.330650 -0.522486
O49   O     O_3   0.133893 0.693764 0.923427 -0.541314
O50   O     O_3   0.826868 0.805483 0.056817 -0.541339
O51   O     O_3   0.633890 0.193747 0.923424 -0.541375
O52   O     O_3   0.326877 0.305468 0.056820 -0.541092
O53   O     O_R   0.554050 0.919440 0.323480 -0.499510
O54   O     O_R   0.945950 0.419440 0.676520 -0.497334
O55   O     O_R   0.054050 0.419440 0.323480 -0.496908
O56   O     O_R   0.456730 0.717630 0.669840 -0.526360

loop_
_geom_bond_atom_site_label_1
_geom_bond_atom_site_label_2
_ccdc_geom_bond_type
C12   H20   S    
C58   C62   A    
C49   C106  S    
C99   C103  S    
C14   H22   S    
Cr3   O3    S    
C76   C105  S    
C53   C58   A    
C55   C59   A    
C43   O17   A    
C80   O1    A    
C57   C79   A    
Cr7   O34   S    
Cr1   O9    S    
Cr11  O13   S    
C61   H67   S    
Cr10  O25   S    
Cr10  O54   S    
C80   O31   A    
C76   H16   S    
C8    H55   S    
C92   O4    A    
C31   C80   S    
C82   O33   A    
C46   H37   S    
C45   C46   A    
C3    C105  S    
Cr12  O27   S    
C15   C19   A    
C6    O50   S    
C75   C93   S    
C62   C67   A    
C98   H18   S    
C2    H19   S    
C65   C102  S    
Cr1   O14   S    
C87   H17   S    
C13   C35   A    
C37   C40   A    
C8    O51   S    
C62   C88   S    
C38   C39   A    
C55   C77   A    
C92   O55   A    
C5    H48   S    
Cr2   O10   S    
C20   C25   A    
C69   H3    S    
C54   H14   S    
C7    H54   S    
C56   H42   S    
C77   C94   S    
C100  C104  S    
C56   C78   A    
C25   H29   S    
Cr3   O33   S    
C31   C98   A    
C89   O45   A    
C58   H45   S    
C14   C18   A    
Cr4   O8    S    
Cr8   O22   S    
C94   O37   A    
C28   O50   S    
C83   O34   A    
C3    C100  S    
C74   H8    S    
C6    C7    S    
C12   C16   A    
Cr1   O1    S    
C8    C9    S    
C90   O2    A    
Cr8   O45   S    
C70   C74   A    
C47   C48   A    
C60   H66   S    
C41   C46   A    
C4    H44   S    
C69   C73   A    
C17   C22   A    
C13   H21   S    
C32   O20   A    
C102  H1    S    
Cr2   O32   S    
C103  H12   S    
Cr7   O43   S    
C97   C102  S    
C9    H59   S    
C68   C72   A    
C83   O35   A    
C51   O25   A    
C101  C108  S    
Cr5   O15   S    
C105  H34   S    
C50   O24   A    
C1    C22   S    
C76   C108  S    
Cr2   O6    S    
C94   O6    A    
C7    H52   S    
Cr8   O44   S    
C25   C29   A    
C36   C41   A    
C53   C75   A    
Cr4   O13   S    
C81   O12   A    
C84   O44   A    
C1    O14   A    
C61   C66   A    
C97   C99   S    
Cr1   O40   S    
C38   C44   A    
C14   C98   A    
C39   C42   A    
C6    H51   S    
C101  C105  S    
C40   C45   A    
C88   O48   A    
C48   H39   S    
Cr10  O11   S    
C100  H11   S    
Cr11  O21   S    
C54   C106  S    
Cr4   O30   S    
C3    C87   S    
C85   O46   A    
C86   O42   A    
C96   O39   A    
C54   C103  S    
C26   H30   S    
C11   H63   S    
C55   H41   S    
C59   H56   S    
C24   H28   S    
C68   H2    S    
C54   C65   S    
C35   C83   S    
Cr2   O28   S    
C51   C108  S    
C73   H7    S    
C73   C78   A    
C27   C31   A    
C29   C34   A    
Cr2   O2    S    
C51   O29   A    
C56   C60   A    
C72   H6    S    
C16   H25   S    
C66   C84   S    
Cr11  O55   S    
Cr6   O23   S    
C49   O22   A    
C4    O49   S    
Cr10  O20   S    
Cr7   O39   S    
C72   C77   A    
C2    C15   A    
C42   C92   S    
C32   O16   A    
Cr6   O38   S    
Cr5   O37   S    
C18   C23   A    
C57   H43   S    
C91   O54   A    
C50   O28   A    
C78   C95   S    
C16   C20   A    
C19   C32   S    
C52   O26   A    
Cr12  O9    S    
C104  H23   S    
C85   O41   A    
C45   H36   S    
C64   C69   A    
Cr5   O41   S    
C1    O18   A    
C9    H60   S    
C76   C87   S    
C65   H15   S    
Cr1   O36   S    
Cr4   O4    S    
C30   C35   A    
C2    C33   A    
C29   O51   S    
C28   C33   A    
C26   C30   A    
C23   C27   A    
Cr6   O11   S    
Cr7   O17   S    
C63   C86   S    
C8    H57   S    
C50   C107  S    
C10   H62   S    
Cr4   O35   S    
Cr6   O16   S    
C7    H53   S    
C37   H32   S    
C12   C34   A    
C21   O15   A    
C84   O40   A    
Cr12  O56   S    
C64   C85   S    
C104  C108  S    
C67   H68   S    
C27   O49   S    
C82   O23   A    
C6    H50   S    
Cr5   O10   S    
C99   C106  S    
C63   C68   A    
C36   C37   A    
C53   H40   S    
C95   O7    A    
C99   H10   S    
C41   C89   S    
C11   H65   S    
C52   O30   A    
Cr9   O24   S    
C93   O5    A    
C11   H64   S    
C24   C28   A    
Cr12  O5    S    
C30   O52   S    
C4    C5    S    
Cr9   O19   S    
Cr6   O42   S    
C3    C52   S    
C36   H31   S    
C57   C61   A    
C10   O52   S    
C101  H13   S    
Cr3   O29   S    
C49   O27   A    
C59   C63   A    
C86   O47   A    
C13   C17   A    
C60   C64   A    
C89   O56   A    
C21   O19   A    
C19   C24   A    
C95   O38   A    
C97   H9    S    
C79   C96   S    
C23   H27   S    
C18   C43   S    
C71   C75   A    
Cr8   O9    S    
C81   O32   A    
C66   C70   A    
C91   O3    A    
Cr9   O46   S    
Cr12  O31   S    
Cr7   O13   S    
Cr3   O11   S    
C100  C101  S    
C74   C79   A    
Cr5   O12   S    
C4    H46   S    
C102  C106  S    
C93   O36   A    
C67   C71   A    
C42   C47   A    
C5    H47   S    
C43   O21   A    
C44   C91   S    
C10   C11   S    
C9    H58   S    
C17   H26   S    
C87   C104  S    
C97   C107  S    
C70   H4    S    
Cr11  O48   S    
C96   O8    A    
C88   O43   A    
C20   C21   S    
Cr11  O26   S    
C15   H24   S    
C22   C26   A    
C90   O53   A    
C39   H35   S    
C10   H61   S    
C5    H49   S    
C71   H5    S    
C103  C107  S    
C34   C82   S    
C38   H33   S    
C40   C90   S    
Cr10  O47   S    
C33   C81   S    
C65   C107  S    
Cr8   O18   S    
Cr9   O10   S    
C44   C48   A    
Cr3   O7    S    
C47   H38   S    
Cr9   O53   S    
