data_mof_unit_36174.cif
_audit_creation_date              2012-12-10T16:50:59-0500
_audit_creation_method            fapswitch 2.2
_symmetry_space_group_name_H-M    P1
_symmetry_Int_Tables_number       1
_space_group_crystal_system       triclinic
_cell_length_a                    7.892478
_cell_length_b                    8.571519
_cell_length_c                    10.672475
_cell_angle_alpha                 92.554192
_cell_angle_beta                  85.615301
_cell_angle_gamma                 92.841651
_cell_volume                      718.397271711

loop_
_atom_site_label
_atom_site_type_symbol
_atom_type_description
_atom_site_fract_x
_atom_site_fract_y
_atom_site_fract_z
_atom_type_partial_charge
C1    C     C_R   0.544747 0.794030 0.495792 0.918154
C2    C     C_R   0.966963 0.508505 0.026410 -0.120862
C3    C     C_R   0.051633 0.647587 0.071876 -0.091489
C4    C     C_R   0.973792 0.576838 0.909072 -0.079045
C5    C     C_R   0.198073 0.628798 0.136451 -0.231498
C6    C     C_R   0.821270 0.612921 0.861248 -0.169062
C7    C     C_R   0.355145 0.593584 0.069639 0.079044
C8    C     C_R   0.664800 0.578701 0.925194 0.053576
C9    C     C_R   0.369289 0.626707 0.941195 0.094578
C10   C     C_R   0.656563 0.527687 0.047035 0.079372
C11   C     C_R   0.499878 0.534405 0.123086 -0.220497
C12   C     C_R   0.455641 0.206129 0.500511 0.964017
C13   C     C_R   0.515789 0.590467 0.867333 -0.247897
C14   C     C_3   0.971316 0.262805 0.323279 -0.226212
C15   C     C_3   0.046561 0.801963 0.558577 -0.188690
C16   C     C_2   0.569033 0.957390 0.494676 -0.387970
C17   C     C_2   0.433341 0.043003 0.493846 -0.398261
C18   C     C_R   0.506233 0.534299 0.735954 0.865895
C19   C     C_R   0.498675 0.504856 0.258320 0.847859
C20   C     C_R   0.242315 0.709087 0.891540 -0.187730
C21   C     C_R   0.805913 0.466173 0.083995 -0.188512
C22   C     C_R   0.076923 0.704085 0.949253 -0.136003
H1    H     H_    0.036172 0.504205 0.834422 0.199339
H2    H     H_    0.305514 0.994435 0.486995 0.164328
H3    H     H_    0.029529 0.345481 0.253425 0.145859
H4    H     H_    0.832516 0.243952 0.317063 0.177638
H5    H     H_    0.029080 0.148446 0.301448 0.135609
H6    H     H_    0.094721 0.799265 0.457631 0.144569
H7    H     H_    0.144601 0.837788 0.624106 0.162500
H8    H     H_    0.950772 0.892725 0.570414 0.150074
H9    H     H_    0.966394 0.718905 0.133333 0.150634
H10   H     H_    0.266898 0.766094 0.803048 0.147131
H11   H     H_    0.794385 0.365614 0.141101 0.136235
H12   H     H_    0.023238 0.816970 0.938279 0.139117
H13   H     H_    0.044622 0.406745 0.026836 0.141774
H14   H     H_    0.185217 0.657030 0.235746 0.175374
H15   H     H_    0.823110 0.687566 0.783077 0.206660
H16   H     H_    0.698151 0.007156 0.497687 0.185740
N1    N     N_2   0.950330 0.457950 0.466250 0.190954
N2    N     N_2   0.049670 0.542050 0.533750 0.193329
O1    O     O_R   0.389250 0.738570 0.508280 -0.657098
O2    O     O_3   0.967709 0.659820 0.594384 -0.563193
O3    O     O_R   0.610750 0.261430 0.491720 -0.612977
O4    O     O_R   0.678390 0.711630 0.486650 -0.598167
O5    O     O_R   0.321610 0.288370 0.513350 -0.567054
O6    O     O_R   0.355430 0.513480 0.694040 -0.623514
O7    O     O_R   0.644570 0.486520 0.305960 -0.641798
O8    O     O_R   0.644570 0.486540 0.672410 -0.578146
O9    O     O_R   0.355430 0.513460 0.327590 -0.630831
O10   O     O_3   0.008812 0.313699 0.444534 -0.512767
Zn1   Zn    Zn3+2 0.306940 0.517990 0.514440 0.996467
Zn2   Zn    Zn3+2 0.693060 0.482010 0.485560 1.013445

loop_
_geom_bond_atom_site_label_1
_geom_bond_atom_site_label_2
_ccdc_geom_bond_type
C2    H13   S    
C12   C17   S    
C2    C4    A    
C5    C7    A    
O7    Zn2   S    
C14   H5    S    
N2    Zn1   S    
C4    C22   A    
C19   O9    A    
C1    O4    A    
C3    H9    S    
O4    Zn2   S    
C2    C21   A    
N2    O2    S    
N1    Zn2   S    
C6    H15   S    
C14   H3    S    
C1    C16   S    
C14   O10   S    
C14   H4    S    
C7    C11   A    
C11   C19   S    
C15   H6    S    
C8    C13   A    
C13   C18   S    
C18   O6    A    
C4    C6    A    
C20   C22   A    
C15   H7    S    
C12   O3    A    
C2    C3    A    
C10   C21   A    
C22   H12   S    
C19   O7    A    
O3    Zn2   S    
C17   H2    S    
C21   H11   S    
C10   C11   A    
O5    Zn1   S    
C5    H14   S    
O8    Zn2   S    
N1    O10   S    
C15   H8    S    
C8    C10   A    
C20   H10   S    
C1    O1    A    
N1    N2    D    
C7    C9    A    
C4    H1    S    
C9    C13   A    
C12   O5    A    
C3    C22   A    
C6    C8    A    
C9    C20   A    
C3    C5    A    
O6    Zn1   S    
O1    Zn1   S    
C15   O2    S    
C16   H16   S    
C16   C17   D    
O9    Zn1   S    
C18   O8    A    
