data_mof_unit_24191.cif
_audit_creation_date              2012-12-11T15:36:54-0500
_audit_creation_method            fapswitch 2.2
_symmetry_space_group_name_H-M    P1
_symmetry_Int_Tables_number       1
_space_group_crystal_system       triclinic
_cell_length_a                    15.060649
_cell_length_b                    15.077429
_cell_length_c                    34.845612
_cell_angle_alpha                 91.238252
_cell_angle_beta                  91.637565
_cell_angle_gamma                 60.096456
_cell_volume                      6856.1122181

loop_
_atom_site_label
_atom_site_type_symbol
_atom_type_description
_atom_site_fract_x
_atom_site_fract_y
_atom_site_fract_z
_atom_type_partial_charge
C1    C     C_R   0.610824 0.302565 0.444074 0.543434
C2    C     C_R   0.742682 0.687482 0.182926 0.031147
C3    C     C_R   0.621097 0.138019 0.828811 0.047358
C4    C     C_R   0.688545 0.160931 0.849579 -0.074797
C5    C     C_R   0.715126 0.130338 0.887498 -0.104931
C6    C     C_R   0.601100 0.245742 0.772280 -0.112476
C7    C     C_R   0.604965 0.256314 0.732911 -0.107260
C8    C     C_R   0.612454 0.179534 0.707553 0.036748
C9    C     C_R   0.611083 0.094110 0.721892 -0.077346
C10   C     C_R   0.608770 0.082660 0.761485 -0.059882
C11   C     C_R   0.606288 0.157351 0.787068 0.045900
C12   C     C_R   0.552704 0.187997 0.639585 -0.124493
C13   C     C_R   0.827361 0.620675 0.160984 -0.123665
C14   C     C_R   0.551859 0.216473 0.601649 -0.124223
C15   C     C_R   0.698519 0.237962 0.616135 -0.127812
C16   C     C_R   0.698422 0.210838 0.654072 -0.110087
C17   C     C_R   0.623192 0.189502 0.666322 0.031532
C18   C     C_R   0.622292 0.245626 0.590013 0.021911
C19   C     C_R   0.045300 0.739176 0.048621 0.539215
C20   C     C_R   0.747369 0.746773 0.064114 0.543731
C21   C     C_R   0.751270 0.040222 0.050717 0.539754
C22   C     C_R   0.015795 0.722905 0.939470 0.546123
C23   C     C_R   0.717350 0.730191 0.954861 0.543296
C24   C     C_R   0.826647 0.635637 0.121548 -0.127372
C25   C     C_R   0.721706 0.023978 0.941979 0.546818
C26   C     C_R   0.776540 0.582507 0.241583 -0.117270
C27   C     C_R   0.767554 0.575748 0.280983 -0.114419
C28   C     C_R   0.727760 0.664024 0.304335 0.029624
C29   C     C_R   0.702387 0.758149 0.287895 -0.118226
C30   C     C_R   0.710778 0.764948 0.248491 -0.117587
C31   C     C_R   0.745161 0.677684 0.224937 0.027030
C32   C     C_R   0.606922 0.734172 0.358784 -0.119147
C33   C     C_R   0.593450 0.610166 0.449422 0.544556
C34   C     C_R   0.573999 0.721295 0.394128 -0.126455
C35   C     C_R   0.733392 0.561746 0.402759 -0.126602
C36   C     C_R   0.766433 0.574833 0.367455 -0.121695
C37   C     C_R   0.702009 0.659353 0.344553 0.032803
C38   C     C_R   0.635388 0.633110 0.415783 0.021642
C39   C     C_R   0.101308 0.729030 0.085180 0.021523
C40   C     C_R   0.147399 0.635112 0.104497 -0.125878
C41   C     C_R   0.169864 0.631203 0.143653 -0.122431
C42   C     C_R   0.148004 0.720734 0.164034 0.030100
C43   C     C_R   0.112672 0.812542 0.144122 -0.122047
C44   C     C_R   0.303884 0.591499 0.442399 0.542363
C45   C     C_R   0.089301 0.816763 0.104838 -0.127915
C46   C     C_R   0.207174 0.756310 0.227310 -0.118362
C47   C     C_R   0.214753 0.748202 0.267292 -0.114950
C48   C     C_R   0.165345 0.704565 0.286791 0.028944
C49   C     C_R   0.105151 0.672912 0.265613 -0.118892
C50   C     C_R   0.098810 0.679750 0.225738 -0.116409
C51   C     C_R   0.151412 0.719535 0.206282 0.026344
C52   C     C_R   0.199949 0.590463 0.342944 -0.120229
C53   C     C_R   0.231852 0.563613 0.380959 -0.126673
C54   C     C_R   0.227224 0.725143 0.391528 -0.127226
C55   C     C_R   0.605793 0.300027 0.553571 0.542769
C56   C     C_R   0.194640 0.752297 0.353509 -0.122019
C57   C     C_R   0.184009 0.683747 0.328477 0.032965
C58   C     C_R   0.249392 0.629070 0.405242 0.021576
C59   C     C_R   0.724885 0.097103 0.087312 0.023954
C60   C     C_R   0.800563 0.105414 0.108957 -0.126573
C61   C     C_R   0.785514 0.132784 0.147678 -0.123099
C62   C     C_R   0.694281 0.153245 0.165126 0.031615
C63   C     C_R   0.615059 0.154253 0.142631 -0.120007
C64   C     C_R   0.630305 0.126215 0.104006 -0.125587
C65   C     C_R   0.594564 0.238531 0.223840 -0.117745
C66   C     C_R   0.587714 0.606665 0.558956 0.541997
C67   C     C_R   0.585202 0.244711 0.263605 -0.114626
C68   C     C_R   0.666374 0.175444 0.287337 0.028255
C69   C     C_R   0.756901 0.099604 0.270603 -0.119691
C70   C     C_R   0.766358 0.093639 0.230842 -0.116207
C71   C     C_R   0.685427 0.163350 0.207172 0.028518
C72   C     C_R   0.740537 0.183241 0.351307 -0.119611
C73   C     C_R   0.727519 0.212884 0.389800 -0.124993
C74   C     C_R   0.553450 0.243672 0.385996 -0.129171
C75   C     C_R   0.566534 0.214017 0.347464 -0.124244
C76   C     C_R   0.658749 0.187688 0.329428 0.031744
C77   C     C_R   0.297700 0.589236 0.551663 0.544366
C78   C     C_R   0.632385 0.247716 0.407008 0.021656
C79   C     C_R   0.692702 0.690739 0.919449 0.022238
C80   C     C_R   0.768051 0.599573 0.902430 -0.127171
C81   C     C_R   0.756927 0.576648 0.864222 -0.122909
C82   C     C_R   0.670278 0.644350 0.842419 0.031947
C83   C     C_R   0.590701 0.730358 0.860520 -0.119935
C84   C     C_R   0.601644 0.753164 0.898739 -0.126123
C85   C     C_R   0.575354 0.656277 0.780843 -0.118984
C86   C     C_R   0.570437 0.656035 0.740846 -0.116993
C87   C     C_R   0.657674 0.631161 0.719507 0.028034
C88   C     C_R   0.740931 0.717328 0.103545 0.021424
C89   C     C_R   0.750661 0.603881 0.738761 -0.114033
C90   C     C_R   0.755452 0.604918 0.778810 -0.112176
C91   C     C_R   0.667517 0.632197 0.800242 0.030128
C92   C     C_R   0.722157 0.549105 0.655604 -0.121784
C93   C     C_R   0.706368 0.544122 0.616124 -0.128532
C94   C     C_R   0.552913 0.710739 0.618969 -0.125658
C95   C     C_R   0.568368 0.715275 0.658402 -0.122081
C96   C     C_R   0.650862 0.632854 0.677218 0.030840
C97   C     C_R   0.619226 0.623119 0.597719 0.021309
C98   C     C_R   0.056645 0.702249 0.900597 0.025547
C99   C     C_R   0.654075 0.780114 0.125307 -0.124374
C100  C     C_R   0.088145 0.766327 0.884398 -0.106512
C101  C     C_R   0.106215 0.760860 0.845210 -0.046698
C102  C     C_R   0.090901 0.692855 0.821784 0.062428
C103  C     C_R   0.065466 0.624653 0.838190 -0.122784
C104  C     C_R   0.048754 0.629015 0.877422 -0.121247
C105  C     C_R   0.179005 0.600849 0.763524 -0.169197
C106  C     C_R   0.193692 0.594383 0.724249 -0.132123
C107  C     C_R   0.132961 0.678795 0.700932 -0.020893
C108  C     C_R   0.056438 0.769849 0.717171 -0.097946
C109  C     C_R   0.038917 0.776611 0.756702 0.235689
C110  C     C_R   0.655149 0.765513 0.164640 -0.120342
C111  C     C_R   0.102671 0.691390 0.780139 -0.002005
C112  C     C_R   0.181203 0.735961 0.642703 -0.118020
C113  C     C_R   0.222297 0.713737 0.606038 -0.128757
C114  C     C_R   0.197379 0.566700 0.602069 -0.125866
C115  C     C_R   0.157276 0.588462 0.638701 -0.118957
C116  C     C_R   0.152841 0.670659 0.659745 0.032673
C117  C     C_R   0.234745 0.626265 0.586145 0.021487
C118  C     C_R   0.675261 0.075739 0.905482 0.025058
C119  C     C_R   0.602746 0.058311 0.885659 -0.120513
C120  C     C_R   0.576100 0.088975 0.847490 -0.117772
Cr1   Cr    Cr6+3 0.426010 0.422500 0.497000 1.009162
Cr2   Cr    Cr6+3 0.651300 0.426310 0.501970 1.009835
Cr3   Cr    Cr6+3 0.422670 0.651170 0.501050 1.009951
Cr4   Cr    Cr6+3 0.905130 0.911420 0.992650 1.019968
Cr5   Cr    Cr6+3 0.911860 0.682710 0.002320 1.010494
Cr6   Cr    Cr6+3 0.682710 0.906840 0.004710 1.011152
H1    H     H_    0.586760 0.843510 0.112305 0.128510
H2    H     H_    0.498175 0.777654 0.403433 0.126594
H3    H     H_    0.895527 0.559770 0.174597 0.099450
H4    H     H_    0.782903 0.493500 0.419047 0.123607
H5    H     H_    0.158507 0.566049 0.090074 0.124166
H6    H     H_    0.053674 0.890302 0.090766 0.123092
H7    H     H_    0.180927 0.825549 0.343374 0.098822
H8    H     H_    0.262773 0.772115 0.282735 0.102858
H9    H     H_    0.247844 0.787618 0.212712 0.104294
H10   H     H_    0.198930 0.559275 0.158518 0.103556
H11   H     H_    0.064388 0.641129 0.279822 0.105903
H12   H     H_    0.894928 0.586298 0.105571 0.126355
H13   H     H_    0.053348 0.653169 0.209956 0.110268
H14   H     H_    0.193634 0.535336 0.324342 0.099493
H15   H     H_    0.248629 0.488896 0.390583 0.124567
H16   H     H_    0.095743 0.882329 0.159449 0.100978
H17   H     H_    0.239409 0.777540 0.409650 0.121826
H18   H     H_    0.874252 0.083372 0.096850 0.121671
H19   H     H_    0.570542 0.120843 0.087903 0.119028
H20   H     H_    0.503062 0.215990 0.331311 0.099945
H21   H     H_    0.515393 0.305329 0.275832 0.106759
H22   H     H_    0.531360 0.293214 0.206116 0.103665
H23   H     H_    0.840783 0.516949 0.357407 0.100753
H24   H     H_    0.846942 0.133318 0.164439 0.101261
H25   H     H_    0.820181 0.044831 0.288271 0.105845
H26   H     H_    0.836321 0.033422 0.218538 0.109416
H27   H     H_    0.812360 0.163505 0.338077 0.102007
H28   H     H_    0.789979 0.214574 0.405342 0.126738
H29   H     H_    0.544049 0.169713 0.155488 0.101224
H30   H     H_    0.479455 0.269448 0.398553 0.124214
H31   H     H_    0.838788 0.549419 0.917739 0.122540
H32   H     H_    0.542125 0.823910 0.911011 0.125081
H33   H     H_    0.513594 0.781532 0.674498 0.104640
H34   H     H_    0.786402 0.502399 0.292777 0.104780
H35   H     H_    0.498379 0.675145 0.726515 0.108749
H36   H     H_    0.506823 0.676303 0.796608 0.103123
H37   H     H_    0.818367 0.508586 0.851182 0.103384
H38   H     H_    0.818748 0.584665 0.722822 0.106519
H39   H     H_    0.827095 0.588002 0.792955 0.102192
H40   H     H_    0.786481 0.484768 0.669583 0.104648
H41   H     H_    0.758879 0.475609 0.600546 0.123096
H42   H     H_    0.523157 0.784245 0.844427 0.102680
H43   H     H_    0.485388 0.773151 0.605648 0.126980
H44   H     H_    0.095179 0.823048 0.901768 0.119527
H45   H     H_    0.803022 0.514377 0.223874 0.104496
H46   H     H_    0.023654 0.579368 0.889118 0.126110
H47   H     H_    0.134699 0.537984 0.651471 0.108081
H48   H     H_    0.253910 0.523866 0.712061 0.122428
H49   H     H_    0.227814 0.535058 0.781143 0.116823
H50   H     H_    0.129493 0.811338 0.832985 0.142699
H51   H     H_    0.009464 0.834542 0.698833 0.152757
H52   H     H_    0.178345 0.799633 0.658763 0.111204
H53   H     H_    0.249989 0.761240 0.594351 0.124687
H54   H     H_    0.054919 0.570697 0.820370 0.100984
H55   H     H_    0.588121 0.816472 0.180967 0.104575
H56   H     H_    0.204719 0.499560 0.587243 0.129017
H57   H     H_    0.571397 0.015701 0.898816 0.124632
H58   H     H_    0.771169 0.144806 0.902114 0.129071
H59   H     H_    0.754197 0.211080 0.674351 0.126148
H60   H     H_    0.603462 0.323997 0.722197 0.109837
H61   H     H_    0.596961 0.305480 0.791254 0.098129
H62   H     H_    0.523069 0.071373 0.832214 0.095940
H63   H     H_    0.616365 0.034419 0.702611 0.111533
H64   H     H_    0.614187 0.013116 0.772093 0.116508
H65   H     H_    0.494295 0.171438 0.648615 0.101571
H66   H     H_    0.673209 0.826967 0.305347 0.105406
H67   H     H_    0.492496 0.221338 0.582049 0.121254
H68   H     H_    0.725699 0.197247 0.835890 0.125419
H69   H     H_    0.753758 0.259943 0.608074 0.127279
H70   H     H_    0.688245 0.838827 0.236234 0.110359
H71   H     H_    0.555128 0.799604 0.341583 0.101938
O1    O     O_R   0.324990 0.503440 0.453910 -0.521355
O2    O     O_R   0.639980 0.519500 0.542640 -0.503031
O3    O     O_R   0.500750 0.673190 0.545480 -0.520174
O4    O     O_R   0.336260 0.640450 0.538210 -0.502506
O5    O     O_3   0.499990 0.499990 0.500010 -0.234273
O6    O     O_R   0.834210 0.019400 0.034570 -0.523401
O7    O     O_R   0.002210 0.824620 0.031030 -0.504378
O8    O     O_R   0.024400 0.669340 0.039790 -0.519866
O9    O     O_R   0.830490 0.694950 0.045870 -0.502272
O10   O     O_R   0.675430 0.831160 0.051290 -0.518747
O11   O     O_R   0.698870 0.998880 0.039560 -0.501581
O12   O     O_R   0.522030 0.339050 0.458320 -0.503533
O13   O     O_R   0.811290 0.006780 0.950620 -0.507978
O14   O     O_R   0.980960 0.812920 0.953200 -0.492980
O15   O     O_R   0.001480 0.656720 0.955830 -0.522444
O16   O     O_R   0.809240 0.683250 0.968050 -0.501938
O17   O     O_R   0.652500 0.818540 0.967340 -0.520495
O18   O     O_R   0.677620 0.987170 0.961730 -0.504782
O19   O     O_3   0.833240 0.833660 0.999890 -0.236034
O20   O     O_R   0.676180 0.324490 0.458320 -0.519022
O21   O     O_R   0.643570 0.521510 0.464260 -0.501836
O22   O     O_R   0.504630 0.675350 0.460920 -0.519539
O23   O     O_R   0.339850 0.642450 0.459830 -0.501656
O24   O     O_R   0.321120 0.501280 0.538470 -0.519732
O25   O     O_R   0.518440 0.337050 0.536710 -0.500642
O26   O     O_R   0.672300 0.322330 0.542880 -0.520370
S1    S     S_3+6 0.934432 0.890177 0.775189 -0.011493
O27   O     O_2   0.973613 0.956601 0.792463 -0.269944
O28   O     O_2   0.858513 0.948317 0.743574 -0.302483
O29   O     O_3   0.875108 0.862832 0.809292 -0.496907
H72   H     H_    0.850462 0.820021 0.796126 0.331745

loop_
_geom_bond_atom_site_label_1
_geom_bond_atom_site_label_2
_ccdc_geom_bond_type
C8    C9    A    
C15   C18   A    
Cr3   O23   S    
C44   O1    A    
C101  C102  A    
C22   C98   S    
Cr2   O20   S    
C49   H11   S    
C64   H19   S    
C41   C42   A    
C14   C18   A    
C7    H60   S    
C95   C96   A    
C44   O23   A    
C20   O9    A    
C72   C76   A    
C25   C118  S    
C56   H7    S    
C85   C91   A    
C7    C8    A    
C85   C86   A    
C108  C109  A    
C4    H68   S    
C25   O13   A    
O29   H72   S    
C59   C64   A    
C29   C30   A    
C105  C106  A    
Cr4   O7    S    
C95   H33   S    
C66   C97   S    
C55   O26   A    
C36   C37   A    
Cr1   O5    S    
C21   C59   S    
C77   C117  S    
C16   H59   S    
C109  C111  A    
C94   H43   S    
Cr4   O19   S    
C79   C84   A    
C80   C81   A    
Cr5   O19   S    
C98   C104  A    
C36   H23   S    
C106  C107  A    
C15   C16   A    
Cr5   O9    S    
C92   C96   A    
C56   C57   A    
C103  H54   S    
C33   O21   A    
C2    C13   A    
C21   O6    A    
C118  C119  A    
C100  C101  A    
Cr6   O17   S    
C102  C103  A    
C46   H9    S    
Cr5   O16   S    
C30   H70   S    
C35   C36   A    
C110  H55   S    
C44   C58   S    
C16   C17   A    
C65   C67   A    
C22   O15   A    
C12   C17   A    
C62   C71   S    
C23   O16   A    
C107  C108  A    
C70   C71   A    
Cr1   O12   S    
Cr2   O2    S    
Cr2   O21   S    
C61   H24   S    
C89   H38   S    
C74   C78   A    
C66   O2    A    
C42   C51   S    
C104  H46   S    
C15   H69   S    
C54   H17   S    
C105  C111  A    
C80   H31   S    
C59   C60   A    
C34   C38   A    
S1    O27   D    
C1    C78   S    
C81   H37   S    
C102  C111  S    
C69   C70   A    
C90   H39   S    
C73   C78   A    
C9    H63   S    
C120  H62   S    
C9    C10   A    
C112  C113  A    
Cr5   O15   S    
C114  C115  A    
C33   O22   A    
C75   H20   S    
C106  H48   S    
C114  C117  A    
C107  C116  S    
C54   C56   A    
C74   C75   A    
Cr3   O4    S    
Cr4   O6    S    
C1    O12   A    
C67   C68   A    
C69   H25   S    
C47   C48   A    
Cr3   O3    S    
C48   C57   S    
C35   C38   A    
C70   H26   S    
C119  C120  A    
Cr6   O11   S    
C6    C11   A    
C84   H32   S    
C86   C87   A    
C68   C69   A    
C99   H1    S    
C94   C97   A    
C24   H12   S    
C27   H34   S    
C114  H56   S    
C99   C110  A    
C85   H36   S    
C6    H61   S    
C81   C82   A    
C82   C91   S    
C63   C64   A    
C13   C24   A    
C77   O4    A    
C60   C61   A    
C32   C34   A    
C73   H28   S    
C75   C76   A    
C32   H71   S    
C43   C45   A    
C83   C84   A    
C25   O18   A    
Cr6   O10   S    
Cr1   O25   S    
C22   O14   A    
C62   C63   A    
C50   C51   A    
C26   C27   A    
C29   H66   S    
C74   H30   S    
C94   C95   A    
C86   H35   S    
C119  H57   S    
C32   C37   A    
C65   H22   S    
C92   C93   A    
C24   C88   A    
C35   H4    S    
C109  S1    S    
C19   C39   S    
C18   C55   S    
C10   H64   S    
C55   O25   A    
C113  C117  A    
C77   O24   A    
C40   C41   A    
C113  H53   S    
C40   H5    S    
C12   C14   A    
C26   H45   S    
C49   C50   A    
C98   C100  A    
Cr2   O26   S    
C87   C89   A    
C47   H8    S    
C67   H21   S    
C42   C43   A    
C3    C4    A    
S1    O29   S    
C93   C97   A    
C112  C116  A    
C52   C53   A    
C21   O11   A    
C112  H52   S    
C54   C58   A    
C3    C120  A    
C12   H65   S    
Cr3   O22   S    
C46   C47   A    
C28   C29   A    
C13   H3    S    
C72   H27   S    
C5    H58   S    
Cr3   O5    S    
C50   H13   S    
C26   C31   A    
C14   H67   S    
C8    C17   S    
C72   C73   A    
C101  H50   S    
S1    O28   D    
C53   C58   A    
C87   C96   S    
C6    C7    A    
Cr4   O14   S    
C68   C76   S    
C83   H42   S    
C33   C38   S    
C39   C45   A    
C5    C118  A    
Cr6   O19   S    
C10   C11   A    
Cr2   O5    S    
C63   H29   S    
C115  H47   S    
C65   C71   A    
C60   H18   S    
C30   C31   A    
C90   C91   A    
C100  H44   S    
Cr4   O13   S    
C28   C37   S    
C48   C49   A    
C20   C88   S    
Cr5   O8    S    
C19   O7    A    
C52   H14   S    
C108  H51   S    
C53   H15   S    
C46   C51   A    
C61   C62   A    
Cr1   O1    S    
C88   C99   A    
C3    C11   S    
C52   C57   A    
Cr6   O18   S    
C79   C80   A    
C39   C40   A    
C92   H40   S    
C4    C5    A    
C93   H41   S    
C45   H6    S    
C34   H2    S    
C82   C83   A    
C105  H49   S    
C103  C104  A    
C19   O8    A    
Cr1   O24   S    
C2    C31   S    
C43   H16   S    
C1    O20   A    
C20   O10   A    
C23   C79   S    
C89   C90   A    
C41   H10   S    
C66   O3    A    
C115  C116  A    
C27   C28   A    
C23   O17   A    
C2    C110  A    
