data_mof_unit_17372.cif
_audit_creation_date              2012-12-11T14:06:44-0500
_audit_creation_method            fapswitch 2.2
_symmetry_space_group_name_H-M    P1
_symmetry_Int_Tables_number       1
_space_group_crystal_system       triclinic
_cell_length_a                    6.915045
_cell_length_b                    17.273424
_cell_length_c                    24.153408
_cell_angle_alpha                 104.357792
_cell_angle_beta                  90.604416
_cell_angle_gamma                 90.000917
_cell_volume                      2794.76327047

loop_
_atom_site_label
_atom_site_type_symbol
_atom_type_description
_atom_site_fract_x
_atom_site_fract_y
_atom_site_fract_z
_atom_type_partial_charge
O1    O     O_R   0.494290 0.391990 0.999150 -0.539431
O2    O     O_R   0.827170 0.534410 0.082350 -0.546302
O3    O     O_R   0.994360 0.608010 0.000850 -0.541780
C1    C     C_R   0.659045 0.548857 0.106119 0.745576
O4    O     O_R   0.824210 0.388010 0.004470 -0.541906
O5    O     O_R   0.991370 0.460560 0.922410 -0.520285
C2    C     C_R   0.654516 0.354919 0.001666 0.781145
O6    O     O_R   0.497270 0.539440 0.077590 -0.512542
O7    O     O_3   0.659770 0.523970 0.973170 -0.367249
V1    V     V_3+5 0.935840 0.495550 0.004980 1.475376
O8    O     O_R   0.320910 0.465590 0.917650 -0.525333
C3    C     C_R   0.150740 0.450167 0.893812 0.755226
O9    O     O_R   0.323870 0.611990 0.995530 -0.545352
C4    C     C_R   0.154444 0.645155 0.998536 0.770020
V2    V     V_3+5 0.435470 0.504450 0.995020 1.480937
O10   O     O_3   0.161670 0.476030 0.026830 -0.364346
C5    C     C_2   0.142868 0.730338 0.998178 -0.353674
H1    H     H_    0.277347 0.761142 0.994521 0.145700
C6    C     C_2   0.972826 0.769935 0.002622 -0.328852
H2    H     H_    0.838363 0.739156 0.006348 0.141586
C7    C     C_R   0.110781 0.254346 0.624649 0.613109
N1    N     N_R   0.091599 0.335001 0.647641 -0.545469
C8    C     C_R   0.059783 0.386281 0.613228 0.560964
C9    C     C_R   0.045014 0.356863 0.553377 -0.027914
C10   C     C_R   0.062073 0.274087 0.529393 -0.008552
C11   C     C_R   0.093446 0.222223 0.565276 -0.026195
C12   C     C_R   0.012033 0.407863 0.517027 -0.186442
C13   C     C_R   0.998927 0.377279 0.457791 -0.087285
C14   C     C_R   0.017384 0.294784 0.433370 -0.024483
C15   C     C_R   0.047475 0.243015 0.469386 -0.021483
C16   C     C_R   0.063226 0.160208 0.445545 -0.016148
C17   C     C_R   0.091193 0.108926 0.481937 -0.162633
C18   C     C_R   0.105769 0.139578 0.541060 -0.169419
C19   C     C_R   0.006856 0.262651 0.373738 0.595013
N2    N     N_R   0.021908 0.181640 0.350913 -0.553069
C20   C     C_R   0.049426 0.130605 0.385814 0.590665
O11   O     O_2   0.146810 0.205301 0.659175 -0.503554
O12   O     O_2   0.040939 0.465287 0.636787 -0.522686
H3    H     H_    0.996251 0.471631 0.534166 0.150540
H4    H     H_    0.974365 0.418566 0.431234 0.174687
O13   O     O_2   0.984302 0.312259 0.338925 -0.509765
O14   O     O_2   0.062040 0.051203 0.362903 -0.508212
H5    H     H_    0.102178 0.044900 0.464899 0.165011
H6    H     H_    0.125926 0.098250 0.567763 0.171925
C21   C     C_R   0.156065 0.101930 0.259860 -0.147026
H7    H     H_    0.283490 0.090575 0.283091 0.139265
C22   C     C_R   0.140736 0.067406 0.200804 0.261989
C23   C     C_R   0.976587 0.083499 0.169514 -0.126622
C24   C     C_R   0.828688 0.133233 0.199744 -0.154274
C25   C     C_R   0.844033 0.164184 0.259078 -0.127942
H8    H     H_    0.728568 0.200790 0.281809 0.152361
C26   C     C_R   0.007662 0.149416 0.289552 0.327741
C27   C     C_R   0.261833 0.410928 0.734242 -0.138470
H9    H     H_    0.373833 0.424486 0.707018 0.138040
C28   C     C_R   0.278511 0.439917 0.793846 0.180733
C29   C     C_R   0.135062 0.420704 0.829995 -0.124021
C30   C     C_R   0.972915 0.373868 0.804449 0.154649
C31   C     C_R   0.954546 0.348753 0.744213 -0.089547
C32   C     C_R   0.101590 0.365728 0.709107 0.280439
C33   C     C_R   0.573560 0.869250 0.615624 0.629837
N3    N     N_R   0.505728 0.820910 0.648033 -0.577782
C34   C     C_R   0.459138 0.742894 0.624147 0.622269
C35   C     C_R   0.489023 0.708572 0.565075 -0.052090
C36   C     C_R   0.549832 0.758790 0.530146 -0.113088
C37   C     C_R   0.589991 0.840579 0.555446 -0.055635
C38   C     C_R   0.460894 0.625809 0.540446 0.231488
C39   C     C_R   0.483527 0.594294 0.481073 -0.133788
C40   C     C_R   0.534387 0.644971 0.445124 -0.106528
C41   C     C_R   0.571058 0.727254 0.470152 -0.019630
C42   C     C_R   0.628830 0.778027 0.435160 -0.089748
C43   C     C_R   0.663332 0.860426 0.460757 -0.134021
C44   C     C_R   0.646470 0.891202 0.520331 0.237227
C45   C     C_R   0.550644 0.616285 0.384787 0.614709
N4    N     N_R   0.608285 0.665764 0.351843 -0.529383
C46   C     C_R   0.650027 0.744370 0.375524 0.570548
O15   O     O_2   0.625808 0.944671 0.642104 -0.473801
O16   O     O_2   0.383672 0.699194 0.657867 -0.480223
O17   O     O_2   0.506959 0.539793 0.358660 -0.509912
O18   O     O_2   0.714764 0.789110 0.341038 -0.518809
C47   C     C_R   0.498174 0.663365 0.254223 -0.248939
H10   H     H_    0.390750 0.707632 0.272765 0.147553
C48   C     C_R   0.510170 0.636509 0.194632 0.265234
C49   C     C_R   0.650448 0.578799 0.169772 -0.157550
C50   C     C_R   0.777996 0.549473 0.206411 -0.212258
C51   C     C_R   0.764495 0.577694 0.266646 0.289278
C52   C     C_R   0.623690 0.634981 0.290440 0.318914
C53   C     C_R   0.633684 0.833781 0.745779 -0.055821
C54   C     C_R   0.621270 0.863754 0.805566 -0.113274
C55   C     C_R   0.466269 0.915013 0.829991 -0.137062
C56   C     C_R   0.322540 0.933401 0.792565 -0.123268
C57   C     C_R   0.334877 0.901533 0.732774 -0.051690
C58   C     C_R   0.490625 0.852161 0.709387 0.291125
C59   C     C_2   0.642928 0.269807 0.002229 -0.341463
H11   H     H_    0.777700 0.238977 0.005797 0.151796
C60   C     C_2   0.472504 0.230275 0.997984 -0.324775
H12   H     H_    0.337751 0.261092 0.994357 0.146509
O19   O     O_R   0.618210 0.960470 0.922400 -0.531771
O20   O     O_R   0.291310 0.111960 0.995450 -0.546964
O21   O     O_R   0.124210 0.039530 0.077580 -0.510041
C61   C     C_R   0.460968 0.145110 0.998393 0.801322
O22   O     O_R   0.288310 0.965490 0.917650 -0.533329
O23   O     O_R   0.121180 0.892010 0.999220 -0.537158
C62   C     C_R   0.456467 0.948719 0.893817 0.703878
O24   O     O_R   0.621230 0.107990 0.000760 -0.536552
O25   O     O_3   0.455770 0.976060 0.026840 -0.367667
V3    V     V_3+5 0.179680 0.004440 0.995020 1.502347
O26   O     O_R   0.791670 0.888040 0.004570 -0.551104
C63   C     C_R   0.961234 0.855067 0.002119 0.795512
O27   O     O_R   0.794680 0.034510 0.082370 -0.547724
C64   C     C_R   0.964256 0.051173 0.105991 0.721595
V4    V     V_3+5 0.680070 0.995560 0.005010 1.472331
O28   O     O_3   0.953840 0.023940 0.973160 -0.364358
N5    N     N_2   0.439724 0.489151 0.816862 -0.504994
H13   H     H_    0.564242 0.475001 0.793353 0.252500
C65   C     C_3   0.399741 0.573947 0.829968 -0.454932
H14   H     H_    0.365378 0.592605 0.790112 0.210118
H15   H     H_    0.528856 0.607659 0.850717 0.187756
H16   H     H_    0.276552 0.589112 0.859843 0.176978
N6    N     N_2   0.831399 0.349887 0.839479 -0.500756
H17   H     H_    0.690651 0.350941 0.825167 0.262366
C66   C     C_3   0.877800 0.276535 0.855315 -0.462504
H18   H     H_    0.885459 0.225965 0.816618 0.216049
H19   H     H_    0.763711 0.263215 0.883589 0.177716
H20   H     H_    0.018197 0.282470 0.878810 0.178981
C67   C     C_1   0.785348 0.304445 0.718139 0.336154
N7    N     N_1   0.650089 0.269075 0.697263 -0.317125
N8    N     N_2   0.413264 0.573502 0.575767 -0.465508
H21   H     H_    0.307723 0.531880 0.559228 0.262325
C68   C     C_3   0.578140 0.539183 0.598280 -0.380762
H22   H     H_    0.654297 0.496835 0.563229 0.163225
H23   H     H_    0.528107 0.506121 0.629491 0.201705
H24   H     H_    0.680114 0.586792 0.620533 0.223036
C69   C     C_1   0.462473 0.508527 0.458901 0.384192
N9    N     N_1   0.446285 0.440059 0.441527 -0.311426
C70   C     C_1   0.707182 0.916527 0.426767 0.398716
N10   N     N_1   0.741001 0.961684 0.399886 -0.273799
N11   N     N_2   0.685278 0.973904 0.544878 -0.460725
H25   H     H_    0.807250 0.995703 0.529649 0.251025
C71   C     C_3   0.519416 0.025631 0.547283 -0.418290
H26   H     H_    0.471814 0.027147 0.503509 0.161891
H27   H     H_    0.558639 0.087226 0.571329 0.222637
H28   H     H_    0.398012 0.004468 0.569542 0.209579
N12   N     N_2   0.381284 0.668943 0.159928 -0.494060
H29   H     H_    0.248475 0.685097 0.178289 0.253051
C72   C     C_3   0.464979 0.731418 0.137443 -0.535398
H30   H     H_    0.504777 0.783569 0.172977 0.199042
H31   H     H_    0.357982 0.750682 0.109051 0.181402
H32   H     H_    0.595532 0.709574 0.111944 0.183639
C73   C     C_1   0.921694 0.489712 0.182824 0.346282
N13   N     N_1   0.036722 0.442000 0.164059 -0.325437
N14   N     N_2   0.888691 0.547759 0.303969 -0.485791
H33   H     H_    0.921739 0.487885 0.290286 0.295657
C74   C     C_3   0.056240 0.596906 0.324456 -0.488861
H34   H     H_    0.129859 0.574335 0.358338 0.226036
H35   H     H_    0.013749 0.659882 0.343143 0.202777
H36   H     H_    0.158165 0.594373 0.288857 0.196541
C75   C     C_1   0.795076 0.783873 0.720967 0.331058
N15   N     N_1   0.923715 0.744063 0.701119 -0.295688
C76   C     C_1   0.767163 0.838891 0.841119 0.331436
N16   N     N_1   0.884579 0.818592 0.868927 -0.367548
C77   C     C_1   0.164039 0.986827 0.814610 0.346834
N17   N     N_1   0.037288 0.029396 0.832010 -0.341313
C78   C     C_1   0.188016 0.919571 0.694616 0.363270
N18   N     N_1   0.071108 0.933920 0.664027 -0.288249
N19   N     N_2   0.292238 0.016806 0.173330 -0.486685
H37   H     H_    0.425929 0.029948 0.192752 0.252765
C79   C     C_3   0.249408 0.932276 0.161156 -0.498424
H38   H     H_    0.238316 0.912975 0.201619 0.201079
H39   H     H_    0.367580 0.898616 0.135132 0.183807
H40   H     H_    0.112216 0.917945 0.136417 0.173569
C80   C     C_1   0.662946 0.156960 0.170976 0.340625
N20   N     N_1   0.530164 0.176158 0.148057 -0.338240

loop_
_geom_bond_atom_site_label_1
_geom_bond_atom_site_label_2
_ccdc_geom_bond_type
C23   C64   S    
C80   N20   T    
C59   H11   S    
C45   N4    A    
C34   O16   S    
C20   O14   S    
C60   H12   S    
C9    C12   A    
C1    O6    A    
C51   N14   S    
C77   N17   T    
C27   C32   A    
C70   N10   T    
C79   H39   S    
V3    O28   S    
C27   H9    S    
C38   N8    S    
N11   C71   S    
N19   H37   S    
N2    C26   S    
C13   C14   A    
C39   C69   S    
N5    H13   S    
O27   V4    S    
C43   C70   S    
C15   C16   A    
O19   V4    S    
C71   H28   S    
C13   H4    S    
C65   H14   S    
C61   O24   A    
C29   C30   A    
C19   N2    A    
C54   C76   S    
C66   H20   S    
C47   C52   A    
O8    V2    S    
C50   C51   A    
C75   N15   T    
C49   C50   A    
C12   H3    S    
C40   C41   A    
C65   H15   S    
C25   C26   A    
C8    C9    A    
O23   C63   A    
C42   C43   A    
O1    V2    S    
O9    C4    A    
C74   H35   S    
C14   C15   A    
O7    V1    S    
C57   C58   A    
N3    C58   S    
C30   N6    S    
C68   H24   S    
C50   C73   S    
N6    C66   S    
C38   C39   A    
O25   V4    S    
C35   C38   A    
N19   C79   S    
C53   C58   A    
C55   C62   S    
C4    C5    S    
C57   C78   S    
C41   C42   A    
C19   O13   S    
C45   O17   S    
N1    C8    A    
C72   H31   S    
C7    C11   A    
C72   H30   S    
C79   H40   S    
C21   C22   A    
C2    C59   S    
N4    C46   A    
C56   C77   S    
C39   C40   A    
C22   C23   A    
O22   V3    S    
C9    C10   A    
C47   C48   A    
C55   C56   A    
N1    C32   S    
C24   C80   S    
C60   C61   S    
C48   N12   S    
C28   N5    S    
C21   C26   A    
C25   H8    S    
C40   C45   A    
C51   C52   A    
O21   C64   A    
C14   C19   A    
C33   O15   S    
C53   C75   S    
C33   N3    A    
N2    C20   A    
O2    C1    A    
N8    C68   S    
C34   C35   A    
C11   C18   A    
C76   N16   T    
N6    H17   S    
C65   H16   S    
C28   C29   A    
C5    H1    S    
C10   C11   A    
O19   C62   A    
C36   C41   A    
N4    C52   S    
C74   H36   S    
C66   H18   S    
C3    C29   S    
O3    C4    A    
C31   C67   S    
C23   C24   A    
C33   C37   A    
C48   C49   A    
O6    V2    S    
O20   C61   A    
O9    V2    S    
C69   N9    T    
O26   C63   A    
C27   C28   A    
C56   C57   A    
N8    H21   S    
C37   C44   A    
C79   H38   S    
C72   H32   S    
O4    C2    A    
C68   H22   S    
N11   H25   S    
C10   C15   A    
N12   C72   S    
O21   V3    S    
C44   N11   S    
V4    O28   S    
O1    C2    A    
C18   H6    S    
O26   V4    S    
C16   C17   A    
C47   H10   S    
O5    V1    S    
O24   V4    S    
C71   H26   S    
C8    O12   S    
O25   V3    S    
O20   V3    S    
O22   C62   A    
C17   C18   A    
C6    H2    S    
N12   H29   S    
C31   C32   A    
O4    V1    S    
O3    V1    S    
V1    O10   S    
C73   N13   T    
C6    C63   S    
O5    C3    A    
C71   H27   S    
C30   C31   A    
C67   N7    T    
C1    C49   S    
C22   N19   S    
C36   C37   A    
C5    C6    D    
C17   H5    S    
O23   V3    S    
N14   C74   S    
O7    V2    S    
N3    C34   A    
C66   H19   S    
C78   N18   T    
C35   C36   A    
C21   H7    S    
C43   C44   A    
C7    O11   S    
C54   C55   A    
C42   C46   A    
C53   C54   A    
C59   C60   D    
C24   C25   A    
O27   C64   A    
C12   C13   A    
C16   C20   A    
N5    C65   S    
C74   H34   S    
C7    N1    A    
C46   O18   S    
N14   H33   S    
V2    O10   S    
O8    C3    A    
C68   H23   S    
O2    V1    S    
