data_mof_unit_68319.cif
_audit_creation_date              2013-03-05T15:59:20-0500
_audit_creation_method            fapswitch 2.2
_symmetry_space_group_name_H-M    P1
_symmetry_Int_Tables_number       1
_space_group_crystal_system       triclinic
_cell_length_a                    8.356441
_cell_length_b                    12.962902
_cell_length_c                    16.682854
_cell_angle_alpha                 110.278135
_cell_angle_beta                  99.362775
_cell_angle_gamma                 80.448403
_cell_volume                      1660.80300497

loop_
_atom_site_label
_atom_site_type_symbol
_atom_site_description
_atom_site_fract_x
_atom_site_fract_y
_atom_site_fract_z
_atom_type_partial_charge
P1    P     P_3+3 0.593410 0.640600 0.698510 0.471747
O1    O     O_2   0.429050 0.611890 0.712090 -0.365748
O2    O     O_3   0.649820 0.584130 0.603850 -0.381611
O3    O     O_3   0.201480 0.401240 0.659120 -0.364877
O4    O     O_2   0.358221 0.525238 0.808796 -0.315679
O5    O     O_3   0.560640 0.785791 0.732160 -0.619820
O6    O     O_3   0.277631 0.340848 0.806923 -0.485366
H1    H     H_    0.231094 0.217775 0.691932 0.076186
C1    C     C_3   0.187793 0.173749 0.799342 -0.667148
H2    H     H_    0.315970 0.141738 0.816038 0.220850
H3    H     H_    0.130824 0.214841 0.860016 0.267387
P2    P     P_3+3 0.154920 0.233850 0.431950 0.554296
P3    P     P_3+3 0.666796 0.197764 0.614299 0.537362
O7    O     O_2   0.337150 0.224350 0.458110 -0.356089
O8    O     O_3   0.611620 0.334620 0.615460 -0.239458
O9    O     O_2   0.536977 0.135949 0.546310 -0.347699
O10   O     O_3   0.141540 0.173972 0.319264 -0.559274
O11   O     O_3   0.619856 0.179448 0.707864 -0.617247
C2    C     C_3   0.724217 0.227504 0.782614 0.668254
H4    H     H_    0.848001 0.224548 0.766996 -0.082442
C3    C     C_3   0.735537 0.160430 0.844581 -0.190043
H5    H     H_    0.767565 0.071749 0.808945 0.083327
C4    C     C_3   0.568209 0.153518 0.293542 0.665643
H6    H     H_    0.468783 0.204850 0.330745 0.003632
C5    C     C_3   0.497669 0.073127 0.206981 -0.248568
H7    H     H_    0.570069 0.989934 0.192697 0.151676
H8    H     H_    0.372113 0.060852 0.212549 0.116525
Ba1   Ba    Ba6+2 0.363950 0.459210 0.542370 1.669962
C6    C     C_3   0.512187 0.822322 0.662456 0.253381
H9    H     H_    0.380982 0.814379 0.644482 0.108587
H10   H     H_    0.591923 0.779117 0.611437 0.119304
C7    C     C_3   0.532219 0.943265 0.686992 -0.671807
H11   H     H_    0.491085 0.990254 0.750919 0.219227
H12   H     H_    0.662684 0.952489 0.689221 0.213233
C8    C     C_3   0.122850 0.253925 0.277895 0.339007
H13   H     H_    0.243962 0.272088 0.272489 0.002413
H14   H     H_    0.051232 0.332718 0.310712 0.153786
C9    C     C_3   0.037033 0.207168 0.187405 -0.668986
H15   H     H_    0.100366 0.125156 0.152958 0.254692
H16   H     H_    0.035425 0.264539 0.150863 0.232575
H17   H     H_    0.909698 0.196294 0.190271 0.283565
P4    P     P_3+3 0.596300 0.359310 0.301480 0.537316
O12   O     O_2   0.760640 0.388070 0.287860 -0.345751
O13   O     O_3   0.539890 0.415780 0.396140 -0.354036
O14   O     O_3   0.988230 0.598670 0.340870 -0.379178
O15   O     O_3   0.672783 0.218753 0.280605 -0.535307
P5    P     P_3+3 0.530524 0.803062 0.384652 0.488167
O16   O     O_3   0.122980 0.641570 0.544110 -0.393684
O17   O     O_3   0.578090 0.665290 0.384530 -0.413135
O18   O     O_2   0.672187 0.865973 0.441715 -0.323016
O19   O     O_3   0.538977 0.811840 0.283155 -0.509026
Ba2   Ba    Ba6+2 0.825880 0.540700 0.457630 1.610002
P6    P     P_3+3 0.215624 0.454277 0.772100 0.521825
C10   C     C_3   0.182674 0.257839 0.754909 0.427974
H18   H     H_    0.052480 0.290546 0.742854 0.031639
O20   O     O_3   0.066730 0.358340 0.455880 -0.348338
C11   C     C_3   0.067797 0.780577 0.731728 0.342221
H19   H     H_    0.115291 0.693308 0.698184 0.114877
C12   C     C_3   0.174730 0.817332 0.821702 -0.305664
H20   H     H_    0.284029 0.755679 0.819149 0.195114
P7    P     P_3+3 0.041963 0.782966 0.570507 0.400245
O21   O     O_2   0.852540 0.775600 0.541830 -0.383493
O22   O     O_3   0.074235 0.849761 0.683064 -0.626694
H21   H     H_    0.615063 0.168411 0.867557 0.157130
C13   C     C_3   0.515798 0.709141 0.220085 0.400693
H22   H     H_    0.615555 0.645473 0.230122 0.165900
H23   H     H_    0.396662 0.683184 0.222114 0.008368
C14   C     C_3   0.518054 0.720174 0.131736 -0.649371
H24   H     H_    0.399234 0.763584 0.113028 0.209923
H25   H     H_    0.615286 0.771027 0.134979 0.249637
P8    P     P_3+3 0.975594 0.558067 0.228801 0.420746
C15   C     C_3   0.003319 0.761191 0.251331 0.439376
H26   H     H_    0.132707 0.729984 0.267243 0.017094
O23   O     O_2   0.836736 0.483401 0.190587 -0.408135
O24   O     O_3   0.909418 0.676369 0.199192 -0.551488
H27   H     H_    0.947747 0.805806 0.312129 0.148446
H28   H     H_    0.076049 0.910668 0.244887 0.248320
C16   C     C_3   0.004762 0.842147 0.203856 -0.881293
H29   H     H_    0.878033 0.877128 0.187609 0.278369
H30   H     H_    0.062285 0.798915 0.143553 0.233093
C17   C     C_2   0.285885 0.455798 0.244433 -0.495185
C18   C     C_R   0.902379 0.557777 0.757363 -0.454582
C19   C     C_2   0.475971 0.364865 0.136455 -0.207013
C20   C     C_2   0.446660 0.397272 0.219082 0.206721
C21   C     C_2   0.170786 0.486702 0.188377 0.245380
C22   C     C_3   0.219699 0.481697 0.102939 -0.171755
C23   C     C_3   0.341629 0.379173 0.067312 0.222741
C24   C     C_2   0.084601 0.499981 0.035285 -0.052062
C25   C     C_2   0.119844 0.518844 0.965798 -0.174646
C26   C     C_R   0.842383 0.605993 0.926236 0.026077
C27   C     C_R   0.993073 0.547808 0.900825 -0.015478
C28   C     C_R   0.720989 0.637774 0.867554 -0.026556
C29   C     C_R   0.748000 0.605759 0.780518 0.379877
C30   C     C_R   0.024039 0.527192 0.815266 0.125533
H31   H     H_    0.592343 0.319182 0.117396 0.209854
H32   H     H_    0.259838 0.470052 0.309319 0.161063
H33   H     H_    0.931405 0.550252 0.694940 0.196681
H34   H     H_    0.958500 0.500112 0.043549 0.196346
H35   H     H_    0.246999 0.514255 0.957169 0.189900
C31   C     C_R   0.262740 0.811240 0.470164 -0.307767
C32   C     C_R   0.938167 0.193630 0.530733 0.049246
C33   C     C_R   0.924479 0.026969 0.562338 -0.214992
C34   C     C_R   0.863523 0.135748 0.568952 0.090769
C35   C     C_R   0.074654 0.145830 0.485539 0.168381
C36   C     C_R   0.134898 0.031963 0.477319 -0.074019
C37   C     C_R   0.060042 0.972819 0.517515 -0.034162
C38   C     C_R   0.122684 0.861006 0.512258 0.228655
C39   C     C_R   0.334333 0.867939 0.429557 0.165649
C40   C     C_R   0.267246 0.975242 0.430642 -0.204847
H36   H     H_    0.862331 0.985364 0.591918 0.174733
H37   H     H_    0.321448 0.014829 0.396600 0.217022
N1    N     N_R   0.496531 0.111699 0.134375 0.251547
O25   O     O_R   0.358867 0.132871 0.090718 -0.417998
O26   O     O_R   0.632376 0.103088 0.102688 -0.381503
N2    N     N_3   0.435806 0.984605 0.621645 -0.218782
H38   H     H_    0.510445 0.971253 0.573871 0.207337
H39   H     H_    0.402732 0.069144 0.647952 0.197576
N3    N     N_3   0.097161 0.084693 0.742059 -0.233718
H40   H     H_    0.044468 0.051386 0.778514 0.212818
H41   H     H_    0.178932 0.023438 0.705723 0.173175
N4    N     N_3   0.899023 0.783816 0.743418 -0.242353
H42   H     H_    0.849657 0.866562 0.767500 0.136701
H43   H     H_    0.839454 0.749538 0.682337 0.144072
N5    N     N_3   0.092362 0.819418 0.893605 -0.196387
H44   H     H_    0.993527 0.881803 0.903122 0.186237
H45   H     H_    0.048902 0.743691 0.879844 0.097246
N6    N     N_3   0.231009 0.925094 0.841539 -0.153839
H46   H     H_    0.297475 0.945483 0.902628 0.185055
H47   H     H_    0.314354 0.916758 0.799047 0.161153
N7    N     N_3   0.547537 0.612449 0.065711 -0.179460
H48   H     H_    0.468554 0.560256 0.069023 0.147281
H49   H     H_    0.666632 0.577381 0.078522 0.213263
N8    N     N_R   0.659315 0.342758 0.822711 0.253932
O27   O     O_R   0.661920 0.412659 0.783600 -0.386692
O28   O     O_R   0.585591 0.375181 0.891838 -0.362887
N9    N     N_3   0.572775 0.703534 0.896517 -0.163527
H50   H     H_    0.572915 0.781251 0.890729 0.117759
H51   H     H_    0.573568 0.717982 0.962120 0.138324
N10   N     N_3   0.342286 0.704842 0.472261 -0.136512
H52   H     H_    0.336333 0.690742 0.527864 0.128675
H53   H     H_    0.460488 0.718240 0.496267 0.130453
N11   N     N_R   0.857558 0.296078 0.525436 0.253541
O29   O     O_R   0.889018 0.387489 0.585430 -0.396086
O30   O     O_R   0.736735 0.296504 0.466390 -0.317578
N12   N     N_R   0.859394 0.193902 0.918610 0.250247
O31   O     O_R   0.969998 0.119352 0.936590 -0.399731
O32   O     O_R   0.845887 0.293292 0.974204 -0.375823
N13   N     N_R   0.665003 0.087252 0.343231 0.228661
O33   O     O_R   0.592036 0.041378 0.382447 -0.380964
O34   O     O_R   0.818541 0.054561 0.333454 -0.416395

loop_
_geom_bond_atom_site_label_1
_geom_bond_atom_site_label_2
_geom_bond_distance
_ccdc_geom_bond_type
C19   C23   1.510991 S    
C18   C30   1.391428 A    
O3    P6    1.759393 S    
O14   P8    1.748083 S    
Ba1   Ba2   4.709423 S    
C2    H4    1.098614 S    
C15   H27   1.111942 S    
N1    O26   1.301091 A    
N12   O31   1.300924 A    
Ba1   O20   2.926507 S    
P5    O17   1.763428 S    
H28   C16   1.110797 S    
P3    O11   1.770244 S    
P2    Ba1   3.448914 S    
O4    P6    1.541728 D    
O2    Ba1   2.952316 S    
C2    C3    1.548411 S    
N13   O34   1.300806 A    
P2    C35   1.925406 S    
C6    C7    1.507801 S    
C18   C29   1.389123 A    
C40   H37   1.074186 S    
O19   C13   1.401864 S    
C9    H15   1.108737 S    
C16   H30   1.111024 S    
O12   Ba2   2.864399 S    
C11   C12   1.577250 S    
C37   C38   1.434422 A    
C12   N6    1.459114 S    
N2    H38   1.041393 S    
C39   C40   1.405860 A    
O11   C2    1.411276 S    
P4    O15   1.759455 S    
P7    O22   1.770368 S    
N3    H40   1.040390 S    
N1    O25   1.300119 A    
C3    H21   1.111144 S    
C15   C16   1.520584 S    
C5    N1    1.460056 S    
O3    Ba1   2.900878 S    
P8    C21   1.842780 S    
C8    H13   1.100616 S    
C14   H24   1.111492 S    
C13   H23   1.111541 S    
P2    O10   1.760126 S    
P1    Ba1   3.408287 S    
C4    H6    1.102874 S    
P3    C34   1.861618 S    
C1    H2    1.110213 S    
P7    O21   1.586086 D    
C17   C21   1.341370 D    
C13   C14   1.532738 S    
C12   H20   1.105237 S    
C32   C34   1.405310 A    
C4    O15   1.399433 S    
C3    H5    1.105663 S    
C1    N3    1.452410 S    
C28   N9    1.432809 S    
P4    O13   1.605717 S    
C15   O24   1.408060 S    
C35   C36   1.444475 A    
N12   O32   1.300147 A    
C11   O22   1.414639 S    
P5    O18   1.545408 D    
C11   H19   1.111246 S    
C31   C39   1.407111 A    
P1    O5    1.754712 S    
C8    C9    1.522629 S    
P4    C20   1.844125 S    
N13   O33   1.293525 A    
C9    H17   1.106973 S    
N9    H51   1.043514 S    
H1    C10   1.107982 S    
C17   H32   1.085346 S    
C16   H29   1.110409 S    
N9    H50   1.045042 S    
P5    O19   1.749339 S    
O14   Ba2   2.900397 S    
N2    H39   1.037072 S    
C5    H7    1.112681 S    
C21   C22   1.522997 S    
Ba1   O13   2.893126 S    
P1    O2    1.605717 S    
C7    H12   1.109622 S    
N7    H49   1.044393 S    
N6    H47   1.040116 S    
C6    H9    1.100776 S    
C31   N10   1.437697 S    
C32   N11   1.410775 S    
C26   C28   1.405328 A    
C19   C20   1.345703 D    
N10   H52   1.015834 S    
O17   Ba2   2.795877 S    
C19   H31   1.084633 S    
C14   N7    1.460115 S    
C1    H3    1.110795 S    
N4    H42   1.044257 S    
P2    O20   1.600363 S    
P1    C29   1.845043 S    
P2    O7    1.511064 D    
C13   H22   1.107321 S    
C32   C35   1.405231 A    
P3    O8    1.751528 S    
N8    O27   1.291606 A    
C18   H33   1.075529 S    
N11   O30   1.291549 A    
C33   H36   1.079310 S    
C25   C27   1.488154 S    
P4    O12   1.551363 D    
O6    P6    1.734730 S    
O8    Ba1   2.795215 S    
N6    H46   1.046340 S    
C17   C20   1.477722 S    
N5    H45   1.040771 S    
C36   C37   1.442485 A    
C12   N5    1.467436 S    
C36   C40   1.408410 A    
C10   H18   1.112966 S    
Ba1   O16   2.834686 S    
C31   C38   1.407805 A    
P4    Ba2   3.408914 S    
C8    H14   1.103298 S    
P6    C30   1.837442 S    
C22   C23   1.535516 S    
C15   H26   1.113124 S    
C25   H35   1.084508 S    
P8    O23   1.547244 D    
O2    Ba2   2.893597 S    
C2    N8    1.459494 S    
C4    N13   1.457435 S    
C7    H11   1.107287 S    
N7    H48   1.040392 S    
C6    H10   1.101066 S    
Ba2   O21   2.907444 S    
C27   C30   1.417241 A    
P8    O24   1.748227 S    
N10   H53   1.022845 S    
O13   Ba2   2.953165 S    
C26   C27   1.403967 A    
C9    H16   1.110500 S    
P1    O1    1.550987 D    
C28   C29   1.410439 A    
C33   C37   1.408219 A    
C22   C24   1.512147 S    
C4    C5    1.550033 S    
C7    N2    1.449360 S    
C33   C34   1.389986 A    
P7    C38   1.882516 S    
N3    H41   1.042091 S    
N4    H43   1.038319 S    
C11   N4    1.446732 S    
O16   Ba2   2.925630 S    
O5    C6    1.380327 S    
C24   C25   1.349765 D    
C14   H25   1.111934 S    
P5    C39   1.860552 S    
P3    O9    1.537394 D    
O16   P7    1.771301 S    
N8    O28   1.302076 A    
N11   O29   1.292548 A    
O1    Ba1   2.863876 S    
C1    C10   1.507921 S    
O10   C8    1.407797 S    
O6    C10   1.397352 S    
O7    Ba1   2.907289 S    
C24   H34   1.084392 S    
Ba2   O20   2.834082 S    
C3    N12   1.465073 S    
N5    H44   1.045617 S    
C5    H8    1.110019 S    
