data_mof_unit_31384.cif
_audit_creation_date              2013-03-05T15:55:34-0500
_audit_creation_method            fapswitch 2.2
_symmetry_space_group_name_H-M    P1
_symmetry_Int_Tables_number       1
_space_group_crystal_system       triclinic
_cell_length_a                    14.020127
_cell_length_b                    14.020403
_cell_length_c                    31.852808
_cell_angle_alpha                 90.002599
_cell_angle_beta                  89.985336
_cell_angle_gamma                 119.997913
_cell_volume                      5422.50444742

loop_
_atom_site_label
_atom_site_type_symbol
_atom_site_description
_atom_site_fract_x
_atom_site_fract_y
_atom_site_fract_z
_atom_type_partial_charge
O1    O     O_R   0.480350 0.140770 0.796330 -0.544503
O2    O     O_R   0.660420 0.519650 0.703670 -0.544482
O3    O     O_R   0.859230 0.339580 0.796330 -0.544465
O4    O     O_R   0.480350 0.140770 0.703670 -0.544382
O5    O     O_R   0.660420 0.519650 0.796330 -0.544439
O6    O     O_R   0.859230 0.339580 0.703670 -0.544507
O7    O     O_R   0.140770 0.480350 0.296330 -0.544552
O8    O     O_R   0.519650 0.660420 0.203670 -0.544646
O9    O     O_R   0.339580 0.859230 0.296330 -0.544658
O10   O     O_R   0.140770 0.480350 0.203670 -0.544398
O11   O     O_R   0.519650 0.660420 0.296330 -0.544365
O12   O     O_R   0.339580 0.859230 0.203670 -0.544493
O13   O     O_R   0.514930 0.348530 0.793250 -0.536150
O14   O     O_R   0.833600 0.485070 0.706750 -0.536105
O15   O     O_R   0.651470 0.166400 0.793250 -0.536118
O16   O     O_R   0.514930 0.348530 0.706750 -0.536107
O17   O     O_R   0.833600 0.485070 0.793250 -0.536125
O18   O     O_R   0.651470 0.166400 0.706750 -0.536163
O19   O     O_R   0.348530 0.514930 0.293250 -0.536218
O20   O     O_R   0.485070 0.833600 0.206750 -0.536184
O21   O     O_R   0.166400 0.651470 0.293250 -0.536174
O22   O     O_R   0.348530 0.514930 0.206750 -0.536094
O23   O     O_R   0.485070 0.833600 0.293250 -0.536080
O24   O     O_R   0.166400 0.651470 0.206750 -0.536179
C1    C     C_R   0.567868 0.443902 0.810594 0.801482
C2    C     C_R   0.876045 0.432122 0.689409 0.801523
C3    C     C_R   0.556080 0.123978 0.810596 0.801492
C4    C     C_R   0.567895 0.443924 0.689408 0.801469
C5    C     C_R   0.876012 0.432105 0.810595 0.801470
C6    C     C_R   0.556100 0.123952 0.689413 0.801538
C7    C     C_R   0.443885 0.567911 0.310607 0.801528
C8    C     C_R   0.432104 0.875997 0.189397 0.801515
C9    C     C_R   0.124014 0.556103 0.310608 0.801468
C10   C     C_R   0.443924 0.567928 0.189393 0.801428
C11   C     C_R   0.432047 0.875964 0.310615 0.801450
C12   C     C_R   0.124017 0.556104 0.189397 0.801556
C13   C     C_1   0.002331 0.522090 0.018770 0.130425
C14   C     C_1   0.519332 0.996175 0.481406 0.129877
C15   C     C_1   0.477213 0.480044 0.018710 0.130293
C16   C     C_1   0.002862 0.522531 0.481297 0.131014
C17   C     C_1   0.519904 0.997746 0.018776 0.131135
C18   C     C_1   0.477662 0.480335 0.481273 0.130165
C19   C     C_1   0.521395 0.999983 0.519050 0.131469
C20   C     C_1   0.998493 0.520187 0.981128 0.130939
C21   C     C_1   0.479565 0.478410 0.518916 0.130930
C22   C     C_1   0.521798 0.001544 0.981134 0.131292
C23   C     C_1   0.999080 0.520683 0.518939 0.131751
C24   C     C_1   0.479013 0.478061 0.981067 0.131212
H1    H     H_    0.893088 0.602159 0.857724 0.166401
H2    H     H_    0.709310 0.107338 0.642268 0.166459
H3    H     H_    0.397549 0.290915 0.857623 0.166448
H4    H     H_    0.893597 0.602512 0.642373 0.166457
H5    H     H_    0.708896 0.106403 0.857629 0.166416
H6    H     H_    0.397449 0.291177 0.642377 0.166347
H7    H     H_    0.604288 0.896306 0.357263 0.166215
H8    H     H_    0.106984 0.709117 0.142276 0.166341
H9    H     H_    0.290812 0.397892 0.357735 0.166349
H10   H     H_    0.602205 0.893059 0.142281 0.166499
H11   H     H_    0.106320 0.708934 0.357618 0.166499
H12   H     H_    0.291928 0.395827 0.142727 0.166257
H13   H     H_    0.055995 0.693056 0.068435 0.186949
H14   H     H_    0.639002 0.946523 0.431214 0.187303
H15   H     H_    0.307613 0.360776 0.068831 0.187334
H16   H     H_    0.055595 0.693086 0.431497 0.188247
H17   H     H_    0.637209 0.944099 0.068439 0.188011
H18   H     H_    0.306762 0.363023 0.431595 0.187114
H19   H     H_    0.692905 0.055150 0.568562 0.187061
H20   H     H_    0.944504 0.637320 0.931521 0.186982
H21   H     H_    0.362153 0.307468 0.568593 0.186726
H22   H     H_    0.692704 0.055012 0.931435 0.187149
H23   H     H_    0.945308 0.637933 0.568599 0.187337
H24   H     H_    0.361994 0.307053 0.931391 0.187229
Cr1   Cr    Cr6+3 0.504240 0.249200 0.750000 0.959003
Cr2   Cr    Cr6+3 0.744960 0.495760 0.750000 0.959028
Cr3   Cr    Cr6+3 0.750800 0.255040 0.750000 0.958986
Cr4   Cr    Cr6+3 0.249200 0.504240 0.250000 0.958686
Cr5   Cr    Cr6+3 0.495760 0.744960 0.250000 0.958725
Cr6   Cr    Cr6+3 0.255040 0.750800 0.250000 0.958663
O25   O     O_3   0.666667 0.333333 0.750000 -0.335915
O26   O     O_3   0.333333 0.666667 0.250000 -0.335797
H25   H     H_    0.019902 0.367316 0.144114 0.185293
H26   H     H_    0.344448 0.976262 0.356537 0.185219
H27   H     H_    0.632015 0.654968 0.143586 0.185210
H28   H     H_    0.020722 0.367536 0.356059 0.185246
H29   H     H_    0.347493 0.980176 0.144117 0.185253
H30   H     H_    0.632611 0.652616 0.355919 0.185280
H31   H     H_    0.366945 0.018206 0.644399 0.185377
H32   H     H_    0.980555 0.347716 0.855775 0.185407
H33   H     H_    0.652601 0.632801 0.644168 0.185421
H34   H     H_    0.367241 0.019884 0.855879 0.185373
H35   H     H_    0.980515 0.347665 0.644196 0.185384
H36   H     H_    0.652123 0.632770 0.855827 0.185342
C25   C     C_R   0.931109 0.470520 0.851543 -0.121899
C26   C     C_R   0.539423 0.068566 0.648524 -0.121982
C27   C     C_R   0.529294 0.460554 0.851522 -0.121956
C28   C     C_R   0.931303 0.470641 0.648485 -0.122072
C29   C     C_R   0.539368 0.068860 0.851546 -0.121927
C30   C     C_R   0.529454 0.460678 0.648477 -0.121882
C31   C     C_R   0.470062 0.930673 0.351657 -0.121670
C32   C     C_R   0.069103 0.539494 0.148412 -0.121714
C33   C     C_R   0.460445 0.529626 0.351607 -0.121691
C34   C     C_R   0.470457 0.930949 0.148414 -0.122059
C35   C     C_R   0.069161 0.539509 0.351616 -0.122026
C36   C     C_R   0.460660 0.529746 0.148390 -0.121759
C37   C     C_R   0.926275 0.555754 0.872797 -0.139763
C38   C     C_R   0.629591 0.073615 0.627259 -0.139880
C39   C     C_R   0.443899 0.370475 0.872721 -0.139840
C40   C     C_R   0.926727 0.556070 0.627279 -0.139796
C41   C     C_R   0.629368 0.073430 0.872746 -0.139877
C42   C     C_R   0.443990 0.370717 0.627273 -0.139827
C43   C     C_R   0.556542 0.927560 0.372640 -0.139982
C44   C     C_R   0.073968 0.629586 0.127168 -0.140100
C45   C     C_R   0.370321 0.444417 0.372852 -0.140097
C46   C     C_R   0.555711 0.926098 0.127173 -0.139713
C47   C     C_R   0.073685 0.629528 0.372796 -0.139723
C48   C     C_R   0.371028 0.443338 0.127394 -0.139992
C49   C     C_R   0.955538 0.575978 0.914949 -0.130403
C50   C     C_R   0.620462 0.043877 0.585159 -0.130255
C51   C     C_R   0.423430 0.379447 0.914856 -0.129836
C52   C     C_R   0.956173 0.576455 0.585142 -0.129065
C53   C     C_R   0.620366 0.044178 0.914903 -0.129789
C54   C     C_R   0.423684 0.379779 0.585130 -0.130368
C55   C     C_R   0.576489 0.956112 0.414875 -0.129901
C56   C     C_R   0.044960 0.620662 0.084990 -0.131560
C57   C     C_R   0.379179 0.424371 0.415042 -0.131804
C58   C     C_R   0.575840 0.955136 0.084994 -0.129492
C59   C     C_R   0.044833 0.620726 0.414996 -0.129274
C60   C     C_R   0.379741 0.423186 0.085191 -0.129466
C61   C     C_R   0.991251 0.512437 0.936290 -0.028763
C62   C     C_R   0.521008 0.007416 0.563886 -0.028558
C63   C     C_R   0.486869 0.478653 0.936230 -0.028790
C64   C     C_R   0.991816 0.512882 0.563774 -0.028722
C65   C     C_R   0.521214 0.008744 0.936297 -0.028840
C66   C     C_R   0.487380 0.478951 0.563752 -0.028560
C67   C     C_R   0.511323 0.989293 0.436567 -0.029598
C68   C     C_R   0.009473 0.521498 0.063611 -0.029135
C69   C     C_R   0.478309 0.488066 0.436432 -0.029355
C70   C     C_R   0.512182 0.990640 0.063616 -0.029424
C71   C     C_R   0.009865 0.521760 0.436457 -0.029717
C72   C     C_R   0.478233 0.488058 0.063546 -0.029354
C73   C     C_R   0.005717 0.432647 0.914581 0.407273
C74   C     C_R   0.426671 0.992668 0.585630 0.407432
C75   C     C_R   0.566804 0.572926 0.914569 0.407085
C76   C     C_R   0.006049 0.432907 0.585443 0.407185
C77   C     C_R   0.427009 0.994543 0.914642 0.407130
C78   C     C_R   0.567416 0.573120 0.585415 0.407218
C79   C     C_R   0.430026 0.001883 0.415165 0.406178
C80   C     C_R   0.995011 0.427222 0.085297 0.407236
C81   C     C_R   0.572618 0.567868 0.414748 0.407159
C82   C     C_R   0.432355 0.005105 0.085302 0.407172
C83   C     C_R   0.995755 0.427527 0.414842 0.406886
C84   C     C_R   0.572143 0.569237 0.084973 0.406339
C85   C     C_R   0.974591 0.412160 0.872208 -0.230428
C86   C     C_R   0.437418 0.024364 0.627944 -0.230520
C87   C     C_R   0.587561 0.562352 0.872217 -0.230620
C88   C     C_R   0.974738 0.412255 0.627798 -0.230597
C89   C     C_R   0.437606 0.025643 0.872267 -0.230470
C90   C     C_R   0.587973 0.562463 0.627776 -0.230484
C91   C     C_R   0.409981 0.971684 0.372711 -0.230592
C92   C     C_R   0.025868 0.437741 0.127697 -0.230138
C93   C     C_R   0.562164 0.588166 0.372336 -0.230123
C94   C     C_R   0.411968 0.974215 0.127701 -0.230579
C95   C     C_R   0.026415 0.437916 0.372420 -0.230612
C96   C     C_R   0.561878 0.589516 0.127394 -0.230714
N1    N     N_R   0.954119 0.322501 0.064547 0.120369
O27   O     O_R   0.885208 0.294808 0.033402 -0.349457
O28   O     O_R   0.977434 0.249896 0.079209 -0.341240
N2    N     N_R   0.364335 0.040033 0.436279 0.120801
O29   O     O_R   0.404810 0.109475 0.467295 -0.348484
O30   O     O_R   0.267057 0.013434 0.422122 -0.340991
N3    N     N_R   0.676133 0.634568 0.063910 0.120950
O31   O     O_R   0.705027 0.593765 0.032977 -0.348516
O32   O     O_R   0.747001 0.731793 0.078054 -0.340892
N4    N     N_R   0.955461 0.323012 0.435690 0.120289
O33   O     O_R   0.886543 0.295125 0.466853 -0.349328
O34   O     O_R   0.979367 0.250742 0.421107 -0.341612
N5    N     N_R   0.368561 0.046028 0.064549 0.120194
O35   O     O_R   0.409835 0.114991 0.033413 -0.349530
O36   O     O_R   0.272610 0.022690 0.079203 -0.341642
N6    N     N_R   0.677305 0.631726 0.435512 0.120436
O37   O     O_R   0.704950 0.590563 0.466692 -0.349369
O38   O     O_R   0.749933 0.727623 0.420830 -0.341239
N7    N     N_R   0.321630 0.950578 0.565013 0.121006
O39   O     O_R   0.294255 0.881331 0.533995 -0.348873
O40   O     O_R   0.248447 0.973042 0.579721 -0.341123
N8    N     N_R   0.046886 0.368995 0.935282 0.120365
O41   O     O_R   0.115799 0.410283 0.966423 -0.349251
O42   O     O_R   0.023825 0.273183 0.920578 -0.341417
N9    N     N_R   0.631258 0.677853 0.564670 0.120530
O43   O     O_R   0.589970 0.705681 0.533586 -0.349093
O44   O     O_R   0.727288 0.750340 0.579277 -0.341257
N10   N     N_R   0.322298 0.953689 0.935409 0.120418
O45   O     O_R   0.294476 0.884565 0.966494 -0.349286
O46   O     O_R   0.249819 0.977268 0.920814 -0.341328
N11   N     N_R   0.047152 0.369229 0.564709 0.120535
O47   O     O_R   0.116359 0.410667 0.533649 -0.349211
O48   O     O_R   0.023734 0.273223 0.579315 -0.341374
N12   N     N_R   0.630333 0.677698 0.935310 0.121027
O49   O     O_R   0.588738 0.705375 0.966343 -0.348668
O50   O     O_R   0.726351 0.750364 0.920733 -0.341046

loop_
_geom_bond_atom_site_label_1
_geom_bond_atom_site_label_2
_geom_bond_distance
_ccdc_geom_bond_type
O16   C4    1.285335 A    
C16   C23   1.199867 T    
O15   Cr3   1.910581 S    
N3    O31   1.301398 A    
C64   C76   1.413283 A    
O18   Cr3   1.911015 S    
C30   C42   1.404224 A    
C31   C91   1.404936 A    
C83   N4    1.442044 S    
C40   C52   1.391169 A    
O22   Cr4   1.910514 S    
H27   C96   1.083022 S    
O19   C7    1.285320 A    
C68   C80   1.413309 A    
O4    C6    1.280571 A    
O6    Cr3   2.022616 S    
C76   N11   1.442072 S    
C28   C88   1.404770 A    
C70   C82   1.413299 A    
N3    O32   1.301615 A    
C21   C66   1.432101 S    
N1    O27   1.301421 A    
O20   Cr5   1.910844 S    
H13   C56   1.084056 S    
C50   C62   1.397281 A    
O14   Cr2   1.910528 S    
O19   Cr4   1.911016 S    
C44   C56   1.391209 A    
N7    O40   1.301639 A    
C46   C58   1.391184 A    
Cr6   O26   1.972574 S    
O21   C9    1.285307 A    
C4    C30   1.473942 S    
C16   C71   1.432036 S    
C47   C59   1.391231 A    
H6    C42   1.083102 S    
N9    O44   1.301565 A    
C80   C92   1.403350 A    
O5    Cr2   2.022589 S    
O3    C5    1.280409 A    
N4    O33   1.301373 A    
C54   C66   1.397381 A    
O11   Cr5   2.022938 S    
C25   C37   1.404228 A    
C36   C48   1.404329 A    
O10   Cr4   2.023106 S    
C3    C29   1.473891 S    
C30   C90   1.404810 A    
N5    O36   1.301590 A    
O12   Cr6   2.022700 S    
O21   Cr6   1.910617 S    
C37   C49   1.391192 A    
C17   C22   1.199886 T    
C78   N9    1.442064 S    
N12   O49   1.301423 A    
O18   C6    1.285154 A    
N10   O45   1.301413 A    
C49   C61   1.397377 A    
C72   C84   1.413033 A    
H15   C60   1.084080 S    
O2    Cr2   2.023057 S    
C34   C94   1.404784 A    
O1    C3    1.280389 A    
N2    O30   1.301617 A    
C74   N7    1.442138 S    
C28   C40   1.404257 A    
O11   C7    1.280447 A    
C33   C93   1.404788 A    
N1    O28   1.301569 A    
H25   C92   1.082972 S    
C52   C64   1.397346 A    
C38   C50   1.391104 A    
C18   C69   1.432116 S    
C80   N1    1.442090 S    
O7    C9    1.280403 A    
O13   C1    1.285226 A    
O23   C11   1.285539 A    
C59   C71   1.397375 A    
H3    C39   1.083111 S    
C11   C31   1.474105 S    
C39   C51   1.391160 A    
H14   C55   1.084038 S    
N6    O38   1.301584 A    
N4    O34   1.301635 A    
C2    C28   1.473859 S    
O15   C3    1.285255 A    
O22   C10   1.285486 A    
H32   C85   1.082980 S    
C13   C68   1.432126 S    
C56   C68   1.397380 A    
C43   C55   1.391577 A    
O16   Cr1   1.910802 S    
C41   C53   1.391198 A    
H33   C90   1.082976 S    
C12   C32   1.473938 S    
C84   N3    1.441862 S    
O9    C11   1.280195 A    
H9    C45   1.083115 S    
C57   C69   1.397371 A    
C20   C61   1.432119 S    
H29   C94   1.082982 S    
C51   C63   1.397295 A    
C81   N6    1.442099 S    
C74   C86   1.403519 A    
C82   C94   1.403315 A    
C55   C67   1.397567 A    
C18   C21   1.199928 T    
N10   O46   1.301589 A    
C76   C88   1.403317 A    
C35   C47   1.404273 A    
N7    O39   1.301379 A    
C34   C46   1.404263 A    
H20   C49   1.084067 S    
C29   C41   1.404249 A    
C32   C92   1.404799 A    
C65   C77   1.413266 A    
C75   C87   1.403378 A    
C26   C86   1.404722 A    
H16   C59   1.084064 S    
C31   C43   1.404283 A    
O14   C2    1.285238 A    
C17   C70   1.432057 S    
H31   C86   1.082983 S    
C24   C63   1.432087 S    
H30   C93   1.082969 S    
O8    C10   1.280286 A    
C14   C67   1.432148 S    
O23   Cr5   1.910705 S    
O4    Cr1   2.022868 S    
C84   C96   1.402919 A    
H28   C95   1.082985 S    
C27   C39   1.404306 A    
C82   N5    1.442071 S    
O5    C1    1.280550 A    
H23   C52   1.084062 S    
C67   C79   1.413018 A    
O24   Cr6   1.910987 S    
N2    O29   1.301426 A    
C69   C81   1.413329 A    
O13   Cr1   1.910764 S    
C1    C27   1.473922 S    
C83   C95   1.403238 A    
Cr2   O25   1.972654 S    
C77   N10   1.442063 S    
O8    Cr5   2.022737 S    
C8    C34   1.473878 S    
H12   C48   1.083134 S    
C81   C93   1.403344 A    
N8    O42   1.301594 A    
C7    C33   1.473921 S    
C63   C75   1.413338 A    
O3    Cr3   2.023103 S    
H10   C46   1.083126 S    
C79   C91   1.402899 A    
O20   C8    1.285271 A    
Cr5   O26   1.972613 S    
H5    C41   1.083115 S    
C75   N12   1.442054 S    
C15   C72   1.432087 S    
C26   C38   1.404301 A    
H7    C43   1.083117 S    
O17   Cr2   1.910994 S    
C9    C35   1.473891 S    
C62   C74   1.413448 A    
C19   C62   1.432148 S    
Cr4   O26   1.972656 S    
Cr1   O25   1.972619 S    
C36   C96   1.404907 A    
H1    C37   1.083120 S    
C32   C44   1.404252 A    
O7    Cr4   2.022558 S    
C78   C90   1.403331 A    
C77   C89   1.403308 A    
C35   C95   1.404786 A    
O24   C12   1.285305 A    
H18   C57   1.084054 S    
C23   C64   1.432024 S    
C66   C78   1.413274 A    
O1    Cr1   2.022842 S    
H17   C58   1.084065 S    
C45   C57   1.391197 A    
C13   C20   1.199931 T    
C25   C85   1.404796 A    
C60   C72   1.397530 A    
C14   C19   1.199966 T    
C6    C26   1.473939 S    
O17   C5    1.285302 A    
C42   C54   1.391229 A    
C22   C65   1.432053 S    
C5    C25   1.473927 S    
H26   C91   1.083012 S    
H22   C53   1.084057 S    
C73   C85   1.403386 A    
O6    C2    1.280425 A    
H21   C54   1.084050 S    
H34   C89   1.082978 S    
H24   C51   1.084051 S    
C71   C83   1.413266 A    
C58   C70   1.397364 A    
O10   C12   1.280424 A    
H36   C87   1.082972 S    
C27   C87   1.404732 A    
O9    Cr6   2.023039 S    
N9    O43   1.301456 A    
C33   C45   1.404260 A    
H19   C50   1.084077 S    
C10   C36   1.474038 S    
O2    C4    1.280402 A    
C79   N2    1.441832 S    
N11   O47   1.301421 A    
H35   C88   1.082974 S    
C61   C73   1.413340 A    
H4    C40   1.083124 S    
H11   C47   1.083114 S    
N5    O35   1.301415 A    
C48   C60   1.391504 A    
H2    C38   1.083125 S    
N12   O50   1.301577 A    
C73   N8    1.442118 S    
C53   C65   1.397362 A    
N8    O41   1.301413 A    
Cr3   O25   1.972571 S    
H8    C44   1.083118 S    
O12   C8    1.280411 A    
N6    O37   1.301396 A    
C29   C89   1.404791 A    
C15   C24   1.199911 T    
N11   O48   1.301587 A    
