data_mof_unit_14134.cif
_audit_creation_date              2012-10-26T18:50:27-0400
_audit_creation_method            fapswitch 2.2
_symmetry_space_group_name_H-M    P1
_symmetry_Int_Tables_number       1
_space_group_crystal_system       triclinic
_cell_length_a                    9.603281
_cell_length_b                    10.837935
_cell_length_c                    15.450895
_cell_angle_alpha                 83.967846
_cell_angle_beta                  74.357914
_cell_angle_gamma                 89.224261
_cell_volume                      1539.8096778

loop_
_atom_site_label
_atom_site_type_symbol
_atom_type_description
_atom_site_fract_x
_atom_site_fract_y
_atom_site_fract_z
_atom_type_partial_charge
C1    C     C_R   0.997181 0.261970 0.508322 0.586278
C2    C     C_R   0.240467 0.422904 0.054141 0.082543
C3    C     C_R   0.332472 0.478990 0.097446 -0.015635
C4    C     C_R   0.917999 0.506498 0.672189 0.524268
C5    C     C_R   0.093974 0.398600 0.100189 -0.080533
C6    C     C_R   0.038716 0.427585 0.188545 -0.164864
C7    C     C_R   0.272260 0.512033 0.184969 -0.129435
C8    C     C_R   0.143473 0.105717 0.630902 0.259508
C9    C     C_R   0.244107 0.035479 0.666018 0.029100
C10   C     C_R   0.255028 0.908973 0.656390 -0.147142
C11   C     C_R   0.167369 0.852858 0.613101 -0.155253
C12   C     C_R   0.676549 0.516966 0.910871 0.005320
C13   C     C_R   0.078319 0.923807 0.567673 -0.076328
C14   C     C_R   0.073132 0.054082 0.572427 0.006810
C15   C     C_R   0.990092 0.126550 0.523049 -0.047576
C16   C     C_R   0.995983 0.736462 0.507460 0.567290
C17   C     C_R   0.892355 0.068912 0.487681 -0.155872
C18   C     C_R   0.882134 0.941462 0.493655 0.240387
C19   C     C_R   0.987010 0.868467 0.522697 -0.007588
C20   C     C_R   0.686822 0.684138 0.374265 0.285244
C21   C     C_R   0.619445 0.779140 0.330757 -0.093270
C22   C     C_R   0.476171 0.775286 0.335342 0.173773
C23   C     C_R   0.777432 0.541413 0.958827 0.021365
C24   C     C_R   0.394862 0.675277 0.384706 -0.111154
C25   C     C_R   0.446857 0.587173 0.442060 0.060847
C26   C     C_R   0.598017 0.588982 0.439959 0.134148
C27   C     C_R   0.551152 0.417997 0.555559 -0.023807
C28   C     C_R   0.081849 0.496152 0.328446 0.546262
C29   C     C_R   0.403740 0.418112 0.555402 -0.000880
C30   C     C_R   0.872197 0.521882 0.770954 -0.120391
C31   C     C_R   0.128844 0.481990 0.231738 -0.016457
C32   C     C_R   0.925122 0.558394 0.912825 0.285237
C33   C     C_R   0.974453 0.533963 0.821735 -0.002517
C34   C     C_R   0.531537 0.482510 0.959460 0.012272
C35   C     C_R   0.722670 0.531110 0.815620 -0.042270
C36   C     C_3   0.979940 0.195274 0.739774 -0.124919
C37   C     C_2   0.330674 0.093220 0.717735 0.187581
C38   C     C_3   0.643569 0.891101 0.534449 -0.079082
C39   C     C_3   0.911119 0.745894 0.269812 -0.106475
C40   C     C_3   0.301551 0.922406 0.334417 -0.111413
C41   C     C_3   0.231734 0.201393 0.937086 -0.150949
C42   C     C_3   0.032856 0.713592 0.960160 -0.080039
C43   C     C_2   0.132459 0.520590 0.782415 0.318756
C44   C     C_2   0.618191 0.583309 0.766157 0.267799
C45   C     C_R   0.481539 0.499869 0.052247 0.020205
C46   C     C_R   0.583724 0.531380 0.097569 -0.128781
C47   C     C_R   0.729329 0.547423 0.052202 -0.125669
C48   C     C_R   0.439562 0.421461 0.919451 -0.070664
C49   C     C_R   0.297104 0.389182 0.966477 0.313852
Cu1   Cu    Cu3+1 0.140660 0.499990 0.500010 0.949823
Cu2   Cu    Cu3+1 0.859340 0.500010 0.499990 1.000836
H1    H     H_    0.804135 0.564905 0.091095 0.141283
H2    H     H_    0.330285 0.350986 0.600965 0.144427
H3    H     H_    0.927213 0.403941 0.223904 0.126185
H4    H     H_    0.556241 0.536485 0.169514 0.109652
H5    H     H_    0.479038 0.391907 0.852608 0.101467
H6    H     H_    0.998559 0.118772 0.789354 0.107972
H7    H     H_    0.881704 0.174936 0.718394 0.135141
H8    H     H_    0.959518 0.279280 0.775848 0.128519
H9    H     H_    0.318347 0.190610 0.728242 0.129155
H10   H     H_    0.608529 0.987518 0.546655 0.126642
H11   H     H_    0.653400 0.838043 0.598240 0.171743
H12   H     H_    0.022136 0.355328 0.068563 0.167297
H13   H     H_    0.556847 0.845657 0.513630 0.126639
H14   H     H_    0.910790 0.848712 0.266568 0.119452
H15   H     H_    0.869279 0.711651 0.215983 0.089574
H16   H     H_    0.026562 0.721177 0.256395 0.125666
H17   H     H_    0.317103 0.943453 0.400318 0.128828
H18   H     H_    0.201860 0.865708 0.344889 0.119287
H19   H     H_    0.285874 0.012181 0.296876 0.142960
H20   H     H_    0.201430 0.166497 0.010205 0.110056
H21   H     H_    0.345234 0.176562 0.904502 0.152956
H22   H     H_    0.160241 0.153720 0.905038 0.144121
H23   H     H_    0.821332 0.122876 0.454959 0.149443
H24   H     H_    0.928853 0.751192 0.998653 0.086426
H25   H     H_    0.065914 0.762217 0.890437 0.164001
H26   H     H_    0.116420 0.734132 0.994351 0.154149
H27   H     H_    0.173095 0.441710 0.745913 0.137402
H28   H     H_    0.583863 0.531432 0.719092 0.128654
H29   H     H_    0.325343 0.851377 0.687334 0.205623
H30   H     H_    0.168516 0.753084 0.619623 0.187834
H31   H     H_    0.587337 0.350605 0.601292 0.109858
H32   H     H_    0.678767 0.858657 0.290354 0.151761
H33   H     H_    0.335009 0.562023 0.218513 0.130308
H34   H     H_    0.290808 0.672449 0.375040 0.206293
N1    N     N_R   0.648320 0.501210 0.499140 -0.231567
N2    N     N_R   0.352470 0.501290 0.499110 -0.237623
O1    O     O_R   0.118810 0.319640 0.500010 -0.450380
O2    O     O_2   0.417730 0.032997 0.748833 -0.527040
O3    O     O_3   0.773936 0.889820 0.464963 -0.547391
O4    O     O_3   0.835601 0.691746 0.357408 -0.474980
O5    O     O_3   0.422317 0.863751 0.281620 -0.568866
O6    O     O_3   0.211216 0.330300 0.924050 -0.575376
O7    O     O_3   0.024010 0.583853 0.959452 -0.536649
O8    O     O_2   0.219027 0.596168 0.791680 -0.481622
O9    O     O_2   0.564692 0.684302 0.781272 -0.466240
O10   O     O_R   0.881240 0.319660 0.500000 -0.524088
O11   O     O_R   0.055570 0.499980 0.629840 -0.496750
O12   O     O_R   0.818000 0.500010 0.629830 -0.526900
O13   O     O_R   0.118760 0.680340 0.500000 -0.564193
O14   O     O_R   0.881190 0.680360 0.499990 -0.388992
O15   O     O_R   0.182000 0.499990 0.370170 -0.536562
O16   O     O_R   0.944430 0.500020 0.370160 -0.442933
O17   O     O_3   0.100760 0.217949 0.663837 -0.593159

loop_
_geom_bond_atom_site_label_1
_geom_bond_atom_site_label_2
_ccdc_geom_bond_type
Cu2   O10   S    
C32   O7    S    
C4    O11   A    
C27   C29   A    
C36   H8    S    
C42   H25   S    
C45   C46   A    
C11   H30   S    
C43   H27   S    
C12   C23   A    
C42   H24   S    
C40   H19   S    
C30   C35   A    
C3    C7    A    
C5    C6    A    
Cu2   O16   S    
C25   N2    A    
C5    H12   S    
C48   H5    S    
C18   C19   A    
C41   O6    S    
C21   H32   S    
C8    C9    A    
C46   H4    S    
C43   O8    D    
C1    C15   S    
C9    C10   A    
Cu1   O1    S    
C41   H20   S    
C38   H10   S    
C1    O1    A    
C6    C31   A    
C13   C14   A    
C39   H14   S    
C6    H3    S    
Cu2   N1    S    
C39   O4    S    
Cu1   Cu2   S    
C38   H13   S    
C44   H28   S    
Cu2   O12   S    
C20   O4    S    
Cu1   O11   S    
C7    C31   A    
C40   H18   S    
C13   C19   A    
C36   H7    S    
C33   C43   S    
C23   C47   A    
C24   C25   A    
C36   H6    S    
C1    O10   A    
C10   H29   S    
C16   O13   A    
C25   C26   A    
C3    C45   A    
C29   H2    S    
C18   O3    S    
C27   N1    A    
C44   O9    D    
C2    C49   A    
C26   N1    A    
C9    C37   S    
C17   C18   A    
C34   C45   A    
C40   O5    S    
C12   C35   A    
C35   C44   S    
C8    O17   S    
Cu1   N2    S    
C41   H21   S    
C48   C49   A    
Cu1   O15   S    
C17   H23   S    
C39   H15   S    
C22   C24   A    
C2    C5    A    
C34   C48   A    
C12   C34   A    
C24   H34   S    
C15   C17   A    
C46   C47   A    
C8    C14   A    
C30   C33   A    
C42   O7    S    
C39   H16   S    
C27   H31   S    
C28   C31   S    
C47   H1    S    
Cu2   O14   S    
C38   O3    S    
Cu1   O13   S    
C37   O2    D    
C36   O17   S    
C23   C32   A    
C2    C3    A    
C32   C33   A    
C11   C13   A    
C28   O16   A    
C20   C26   A    
C16   C19   S    
C7    H33   S    
C29   N2    A    
C37   H9    S    
C10   C11   A    
C41   H22   S    
C28   O15   A    
C16   O14   A    
C20   C21   A    
C42   H26   S    
C40   H17   S    
C4    O12   A    
C22   O5    S    
C14   C15   A    
C49   O6    S    
C21   C22   A    
C4    C30   S    
C38   H11   S    
