data_mof_unit_40001.cif
_audit_creation_date              2012-12-11T14:12:38-0500
_audit_creation_method            fapswitch 2.2
_symmetry_space_group_name_H-M    P1
_symmetry_Int_Tables_number       1
_space_group_crystal_system       triclinic
_cell_length_a                    30.775729
_cell_length_b                    30.796062
_cell_length_c                    30.778852
_cell_angle_alpha                 90.093145
_cell_angle_beta                  89.916513
_cell_angle_gamma                 90.004375
_cell_volume                      29171.2416955

loop_
_atom_site_label
_atom_site_type_symbol
_atom_type_description
_atom_site_fract_x
_atom_site_fract_y
_atom_site_fract_z
_atom_type_partial_charge
C1    C     C_R   0.331913 0.448723 0.000764 -0.159357
C2    C     C_R   0.351345 0.173523 0.994940 -0.317120
C3    C     C_R   0.903822 0.568685 0.067329 0.141427
C4    C     C_R   0.430254 0.570693 0.013640 0.144812
C5    C     C_R   0.958462 0.514918 0.068472 0.138139
C6    C     C_R   0.010770 0.512341 0.012539 0.038802
C7    C     C_R   0.900334 0.511870 0.118198 0.046358
C8    C     C_R   0.052680 0.168911 0.000580 -0.163532
C9    C     C_R   0.075790 0.196100 0.972682 -0.174542
C10   C     C_R   0.089561 0.181163 0.931705 0.145759
C11   C     C_R   0.081499 0.137756 0.920200 -0.181129
C12   C     C_R   0.058397 0.110594 0.948084 -0.162121
C13   C     C_R   0.352660 0.128649 0.987366 0.099918
C14   C     C_R   0.042563 0.126272 0.987995 0.153131
C15   C     C_R   0.878327 0.970332 0.934607 -0.336590
C16   C     C_R   0.309072 0.420656 0.973549 -0.182140
C17   C     C_R   0.378270 0.514533 0.010886 0.036667
C18   C     C_R   0.850713 0.946911 0.906928 0.554190
C19   C     C_R   0.819313 0.918990 0.925345 -0.010954
C20   C     C_R   0.817276 0.913826 0.970650 -0.253506
C21   C     C_R   0.845170 0.937059 0.997710 -0.153750
C22   C     C_R   0.875729 0.965583 0.979866 0.114735
C23   C     C_R   0.890537 0.163496 0.166919 -0.162347
C24   C     C_R   0.560836 0.113811 0.154342 -0.321552
C25   C     C_R   0.863292 0.190765 0.190712 -0.178083
C26   C     C_R   0.820544 0.178074 0.200692 0.147353
C27   C     C_R   0.806470 0.136515 0.188058 -0.178803
C28   C     C_R   0.833706 0.109283 0.164032 -0.161348
C29   C     C_R   0.431119 0.514899 0.066005 0.139554
C30   C     C_R   0.875598 0.123039 0.152079 0.151521
C31   C     C_R   0.959030 0.044298 0.013365 0.137918
C32   C     C_R   0.010822 0.100474 0.013091 0.038948
C33   C     C_R   0.958768 0.096729 0.069214 0.144761
C34   C     C_R   0.903950 0.043127 0.066722 0.139509
C35   C     C_R   0.554720 0.666042 0.000198 -0.162812
C36   C     C_R   0.901485 0.994473 0.007759 0.069675
C37   C     C_R   0.901275 0.098195 0.119885 0.038814
C38   C     C_R   0.836527 0.942677 0.608411 -0.161598
C39   C     C_R   0.809014 0.919761 0.636198 -0.166308
C40   C     C_R   0.821768 0.910444 0.679057 0.145080
C41   C     C_R   0.486141 0.568096 0.065999 0.128756
C42   C     C_R   0.863528 0.922733 0.692726 -0.171293
C43   C     C_R   0.891054 0.945509 0.664921 -0.167063
C44   C     C_R   0.877346 0.956905 0.622890 0.154206
C45   C     C_R   0.020033 0.130216 0.676619 0.504529
C46   C     C_R   0.588396 0.143333 0.175040 0.501911
C47   C     C_R   0.043715 0.157537 0.704914 0.053794
C48   C     C_R   0.078257 0.183032 0.687696 0.007326
C49   C     C_R   0.088294 0.180430 0.643254 -0.206869
C50   C     C_R   0.065431 0.152725 0.615883 -0.227040
C51   C     C_R   0.032003 0.126865 0.632277 -0.042710
C52   C     C_R   0.834284 0.111266 0.447520 -0.163504
C53   C     C_R   0.487868 0.621079 0.010914 0.041319
C54   C     C_R   0.807140 0.138531 0.423632 -0.176451
C55   C     C_R   0.820465 0.180815 0.412726 0.143352
C56   C     C_R   0.862350 0.194449 0.424767 -0.174422
C57   C     C_R   0.570936 0.179481 0.197756 -0.200315
C58   C     C_R   0.889482 0.167185 0.448665 -0.164301
C59   C     C_R   0.875323 0.125695 0.461299 0.151265
C60   C     C_R   0.958772 0.040395 0.595857 0.140675
C61   C     C_R   0.902730 0.988456 0.597120 0.036453
C62   C     C_R   0.904521 0.041357 0.541856 0.144626
C63   C     C_R   0.957333 0.096937 0.544283 0.120495
C64   C     C_R   0.006673 0.099418 0.602540 0.087173
C65   C     C_R   0.490164 0.508769 0.114092 0.094248
C66   C     C_R   0.900925 0.099847 0.492654 0.040815
C67   C     C_R   0.342667 0.169866 0.612170 -0.161757
C68   C     C_R   0.525113 0.185231 0.198057 0.505822
C69   C     C_R   0.318696 0.196727 0.639707 -0.176247
C70   C     C_R   0.303698 0.181355 0.680030 0.142302
C71   C     C_R   0.311769 0.137920 0.691333 -0.175552
C72   C     C_R   0.335851 0.111070 0.663813 -0.163237
C73   C     C_R   0.352523 0.127090 0.624443 0.151604
C74   C     C_R   0.515614 0.969118 0.672145 -0.160146
C75   C     C_R   0.544830 0.947442 0.698699 -0.207789
C76   C     C_R   0.574804 0.918055 0.680957 0.148790
C77   C     C_R   0.748332 0.408922 0.233866 -0.188882
C78   C     C_R   0.576382 0.912124 0.635736 -0.161902
C79   C     C_R   0.498449 0.156553 0.174888 -0.316502
C80   C     C_R   0.547736 0.934902 0.608822 -0.169176
C81   C     C_R   0.516859 0.963271 0.626957 0.158860
C82   C     C_R   0.506387 0.144221 0.425789 0.200967
C83   C     C_R   0.532934 0.173156 0.402688 -0.265117
C84   C     C_R   0.574810 0.182672 0.417071 0.088715
C85   C     C_R   0.591007 0.163115 0.454379 -0.255714
C86   C     C_R   0.565167 0.135318 0.479254 0.189727
C87   C     C_R   0.522228 0.125450 0.464839 0.043203
C88   C     C_R   0.433622 0.043046 0.596159 0.143906
C89   C     C_R   0.641925 0.201935 0.235819 -0.113004
C90   C     C_R   0.516014 0.121031 0.152589 0.040025
C91   C     C_R   0.384048 0.101233 0.599001 0.040076
C92   C     C_R   0.435799 0.097673 0.542618 0.130242
C93   C     C_R   0.487349 0.040903 0.541464 0.137518
C94   C     C_R   0.489876 0.991394 0.599451 0.035503
C95   C     C_R   0.493454 0.098994 0.492422 0.072554
C96   C     C_R   0.799644 0.250048 0.237266 -0.140249
C97   C     C_R   0.593153 0.356253 0.232413 -0.191114
C98   C     C_R   0.748383 0.201534 0.235697 -0.136497
C99   C     C_R   0.300078 0.432490 0.930451 0.145827
C100  C     C_R   0.641374 0.408187 0.232479 0.253454
C101  C     C_R   0.431395 0.042678 0.015219 0.134091
C102  C     C_R   0.592259 0.252580 0.234476 -0.133023
C103  C     C_R   0.799360 0.359912 0.234492 0.248090
C104  C     C_R   0.788552 0.399880 0.217226 -0.034226
C105  C     C_R   0.600812 0.210802 0.219685 0.118193
C106  C     C_R   0.790171 0.209090 0.221574 0.033069
C107  C     C_R   0.602756 0.394759 0.211782 -0.005638
C108  C     C_R   0.642767 0.408730 0.376740 -0.130191
C109  C     C_R   0.748950 0.202131 0.375190 -0.120103
C110  C     C_R   0.798366 0.358555 0.377110 -0.126634
C111  C     C_R   0.312510 0.473973 0.915960 -0.174576
C112  C     C_R   0.582438 0.689392 0.972990 -0.177264
C113  C     C_R   0.487694 0.991030 0.010925 0.074967
C114  C     C_R   0.592358 0.252767 0.376380 -0.132236
C115  C     C_R   0.643533 0.203083 0.377315 -0.137557
C116  C     C_R   0.748402 0.409174 0.375907 -0.126896
C117  C     C_R   0.591740 0.359200 0.374906 -0.114233
C118  C     C_R   0.799214 0.252413 0.375273 -0.129727
C119  C     C_R   0.600735 0.400407 0.390540 0.034404
C120  C     C_R   0.790294 0.211045 0.390539 0.038762
C121  C     C_R   0.789185 0.400014 0.392266 0.039238
C122  C     C_R   0.602768 0.212521 0.393076 0.072389
C123  C     C_R   0.266382 0.253433 0.908657 -0.096690
C124  C     C_R   0.485363 0.040097 0.069542 0.127808
C125  C     C_R   0.335302 0.502063 0.943203 -0.163680
C126  C     C_R   0.269491 0.356689 0.703424 -0.137693
C127  C     C_R   0.265971 0.202005 0.752011 -0.117497
C128  C     C_R   0.264935 0.409608 0.858613 -0.113352
C129  C     C_R   0.265769 0.252191 0.701713 -0.133961
C130  C     C_R   0.264702 0.359706 0.909167 -0.144715
C131  C     C_R   0.268124 0.408070 0.752860 -0.126229
C132  C     C_R   0.267080 0.202758 0.858667 -0.137402
C133  C     C_R   0.283141 0.212755 0.899748 0.071416
C134  C     C_R   0.285692 0.397455 0.712775 0.078135
C135  C     C_R   0.432411 0.095558 0.070683 0.129574
C136  C     C_R   0.281308 0.211037 0.710611 0.038739
C137  C     C_R   0.346484 0.489174 0.985436 0.151527
C138  C     C_R   0.279497 0.401278 0.900228 0.038763
C139  C     C_R   0.125822 0.359179 0.909058 -0.120593
C140  C     C_R   0.122356 0.252123 0.703561 -0.153887
C141  C     C_R   0.125744 0.201984 0.859165 -0.127343
C142  C     C_R   0.123184 0.408437 0.753906 -0.161670
C143  C     C_R   0.125157 0.360023 0.701639 0.242438
C144  C     C_R   0.125606 0.252655 0.909103 -0.121606
C145  C     C_R   0.126156 0.409581 0.859044 -0.116690
C146  C     C_R   0.382152 0.101135 0.013262 0.073717
C147  C     C_R   0.122850 0.202982 0.754433 -0.128877
C148  C     C_R   0.111111 0.400776 0.900561 0.033051
C149  C     C_R   0.499700 0.665764 0.944133 -0.163799
C150  C     C_R   0.104316 0.212569 0.715074 0.072556
C151  C     C_R   0.110677 0.211163 0.900652 0.036140
C152  C     C_R   0.106903 0.399609 0.713322 -0.054140
C153  C     C_R   0.594179 0.731476 0.753821 -0.139991
C154  C     C_R   0.799628 0.736572 0.859013 0.530160
C155  C     C_R   0.749295 0.737080 0.700943 -0.108147
C156  C     C_R   0.642008 0.736195 0.909011 -0.108158
C157  C     C_R   0.513542 0.652809 0.985589 0.151454
C158  C     C_R   0.799862 0.737220 0.750514 -0.129729
C159  C     C_R   0.591776 0.736348 0.858780 -0.137359
C160  C     C_R   0.748795 0.735196 0.908750 -0.219786
C161  C     C_R   0.527421 0.689085 0.916910 -0.174044
C162  C     C_R   0.644630 0.731964 0.703314 -0.145773
C163  C     C_R   0.604861 0.714271 0.713758 0.103224
C164  C     C_R   0.790344 0.720206 0.899970 -0.121446
C165  C     C_R   0.791139 0.722956 0.708634 0.061223
C166  C     C_R   0.600383 0.721414 0.900256 0.035824
C167  C     C_R   0.592329 0.875737 0.859097 -0.066243
C168  C     C_R   0.489206 0.095843 0.121865 0.112719
C169  C     C_R   0.799771 0.875137 0.751479 -0.097084
C170  C     C_R   0.644232 0.877634 0.702010 -0.159799
C171  C     C_R   0.748498 0.878052 0.907805 -0.142317
C172  C     C_R   0.798236 0.878316 0.856742 -0.083907
C173  C     C_R   0.569551 0.700263 0.930601 0.143139
C174  C     C_R   0.591947 0.875529 0.750236 0.260464
C175  C     C_R   0.642841 0.877211 0.908473 -0.135396
C176  C     C_R   0.749561 0.874992 0.701244 -0.109565
C177  C     C_R   0.601749 0.892955 0.899220 0.086398
C178  C     C_R   0.791121 0.889769 0.709852 0.030874
C179  C     C_R   0.570633 0.630987 0.631212 0.170658
C180  C     C_R   0.603367 0.893501 0.710492 -0.051111
C181  C     C_R   0.788856 0.895106 0.897203 0.098961
C182  C     C_R   0.546496 0.935614 0.000683 -0.155492
C183  C     C_R   0.574712 0.912951 0.973280 -0.250834
C184  C     C_R   0.570669 0.916053 0.927908 -0.008971
C185  C     C_3   0.850499 0.549043 0.195888 -0.393244
C186  C     C_3   0.894352 0.559274 0.216685 -0.868126
C187  C     C_3   0.437869 0.454160 0.195669 0.185918
C188  C     C_3   0.440941 0.425919 0.236562 -0.331733
C189  C     C_3   0.417263 0.446844 0.274810 -0.986048
C190  C     C_R   0.595950 0.656558 0.658952 -0.253118
C191  C     C_3   0.889964 0.951826 0.842227 0.144912
C192  C     C_3   0.901127 0.994023 0.818554 -0.250026
C193  C     C_3   0.943119 0.989737 0.792459 -1.024212
C194  C     C_3   0.029663 0.160365 0.752341 -0.321674
C195  C     C_3   0.042703 0.119788 0.777756 -0.851858
C196  C     C_3   0.946133 0.125535 0.684329 0.167663
C197  C     C_3   0.909675 0.096807 0.701947 -0.238663
C198  C     C_3   0.865038 0.115504 0.691363 -1.013464
C199  C     C_3   0.461954 0.133519 0.407432 -0.368473
C200  C     C_3   0.460571 0.087399 0.389220 -0.884869
C201  C     C_R   0.577186 0.688618 0.684819 0.074328
C202  C     C_3   0.584347 0.118871 0.521689 -0.364327
C203  C     C_3   0.564107 0.141291 0.561151 -0.856910
C204  C     C_3   0.650856 0.455814 0.241769 -0.406946
C205  C     C_3   0.665123 0.465522 0.288074 -0.933348
C206  C     C_3   0.846212 0.346060 0.240599 -0.390578
C207  C     C_3   0.857372 0.334759 0.287444 -0.928612
C208  C     C_3   0.133275 0.348066 0.654383 -0.394819
C209  C     C_3   0.179060 0.331951 0.644872 -0.927512
C210  C     C_3   0.861484 0.776990 0.867637 0.165109
C211  C     C_3   0.894645 0.800482 0.839151 -0.260202
C212  C     C_R   0.532534 0.696170 0.682870 -0.364899
C213  C     C_3   0.919735 0.834545 0.865053 -1.056721
C214  C     C_3   0.544914 0.867119 0.762461 -0.402869
C215  C     C_3   0.535443 0.820569 0.775966 -0.948964
C216  C     C_3   0.493204 0.950398 0.847138 0.169482
C217  C     C_3   0.465109 0.909973 0.856110 -0.369963
C218  C     C_3   0.423379 0.910851 0.829440 -0.971574
C219  C     C_3   0.370413 0.262386 0.957116 0.161998
C220  C     C_3   0.370283 0.311703 0.962641 -0.256013
C221  C     C_3   0.412178 0.332063 0.945704 -0.994700
C222  C     C_3   0.647777 0.153935 0.132351 0.185378
C223  C     C_R   0.536924 0.941566 0.909780 0.581203
C224  C     C_R   0.505699 0.670428 0.656296 0.558159
C225  C     C_3   0.697291 0.150677 0.131069 -0.270422
C226  C     C_3   0.715693 0.167800 0.088370 -0.996807
C227  C     C_3   0.490233 0.211953 0.257658 0.157311
C228  C     C_3   0.466541 0.251979 0.275196 -0.239207
C229  C     C_3   0.449499 0.244809 0.321175 -1.056240
C230  C     C_3   0.593631 0.594598 0.606885 -0.345154
C231  C     C_3   0.581793 0.549953 0.625015 -0.865658
C232  C     C_3   0.440091 0.678119 0.693950 0.202918
C233  C     C_3   0.436094 0.632082 0.712696 -0.322564
C234  C     C_3   0.414449 0.632730 0.757323 -1.007109
C235  C     C_R   0.524968 0.638732 0.628968 -0.075554
C236  C     C_3   0.356242 0.386083 0.558467 0.176185
C237  C     C_3   0.374220 0.339797 0.560703 -0.260308
C238  C     C_3   0.348357 0.308826 0.531900 -1.038499
C239  C     C_3   0.515747 0.360749 0.168659 -0.341419
C240  C     C_3   0.493162 0.349776 0.125640 -0.797133
C241  C     C_3   0.750578 0.692799 0.596324 0.136199
C242  C     C_3   0.713364 0.718329 0.575635 -0.236497
C243  C     C_3   0.677519 0.688169 0.559432 -1.042338
C244  C     C_R   0.333782 0.496789 0.659233 -0.236438
C245  C     C_R   0.310095 0.470844 0.687746 -0.167904
C246  C     C_R   0.309591 0.425667 0.682433 0.097575
C247  C     C_R   0.501085 0.440975 0.158830 0.547543
C248  C     C_R   0.332242 0.407002 0.647591 -0.352320
C249  C     C_R   0.355162 0.432785 0.617815 0.570853
C250  C     C_R   0.357090 0.478165 0.624619 -0.001478
C251  C     C_R   0.554133 0.502959 0.440143 -0.161638
C252  C     C_R   0.509325 0.964721 0.938015 -0.357630
C253  C     C_R   0.582461 0.474526 0.419103 -0.179072
C254  C     C_R   0.569579 0.431759 0.409581 0.142916
C255  C     C_R   0.526748 0.419071 0.419088 -0.174287
C256  C     C_R   0.498403 0.447532 0.440050 -0.158859
C257  C     C_R   0.512373 0.489195 0.452387 0.150968
C258  C     C_R   0.438438 0.561984 0.598056 0.114380
C259  C     C_R   0.530215 0.408036 0.171837 0.048434
C260  C     C_R   0.496542 0.611429 0.601608 0.152449
C261  C     C_R   0.487783 0.567492 0.539646 0.130556
C262  C     C_R   0.433125 0.513833 0.538683 0.155607
C263  C     C_R   0.513765 0.961866 0.983205 0.113022
C264  C     C_R   0.386808 0.505680 0.599006 0.102860
C265  C     C_R   0.487015 0.514564 0.484332 0.040500
C266  C     C_R   0.029571 0.437292 0.626962 -0.158175
C267  C     C_R   0.052131 0.410867 0.655584 -0.207781
C268  C     C_R   0.081636 0.428851 0.685214 0.149326
C269  C     C_R   0.086907 0.474102 0.687047 -0.165221
C270  C     C_R   0.063365 0.500842 0.658941 -0.170779
C271  C     C_R   0.573829 0.420020 0.181695 0.006059
C272  C     C_R   0.034831 0.482497 0.628425 0.158217
C273  C     C_R   0.887626 0.658534 0.669234 -0.155528
C274  C     C_R   0.329917 0.111501 0.951789 -0.159243
C275  C     C_R   0.859197 0.681814 0.695540 -0.250332
C276  C     C_R   0.822168 0.701970 0.678070 -0.004701
C277  C     C_R   0.815062 0.699629 0.632530 0.556461
C278  C     C_R   0.844716 0.676822 0.606252 -0.331166
C279  C     C_R   0.879883 0.654638 0.624560 0.107189
C280  C     C_R   0.889730 0.447949 0.444609 -0.161877
C281  C     C_R   0.862671 0.420050 0.421291 -0.178940
C282  C     C_R   0.818827 0.430702 0.414492 0.142777
C283  C     C_R   0.589975 0.458076 0.162494 -0.225101
C284  C     C_R   0.803225 0.470787 0.429944 -0.175415
C285  C     C_R   0.306887 0.138827 0.923905 -0.239235
C286  C     C_R   0.830329 0.498752 0.453114 -0.165350
C287  C     C_R   0.873568 0.487109 0.461705 0.153280
C288  C     C_R   0.959251 0.569377 0.596831 0.138405
C289  C     C_R   0.006720 0.509815 0.601365 0.033487
C290  C     C_R   0.956553 0.513960 0.543953 0.143308
C291  C     C_R   0.904983 0.570560 0.542681 0.137690
C292  C     C_R   0.904709 0.622862 0.598644 0.072952
C293  C     C_R   0.899847 0.512652 0.492739 0.037991
C294  C     C_R   0.841176 0.672655 0.001403 -0.172087
C295  C     C_R   0.562450 0.487509 0.142454 -0.218457
C296  C     C_R   0.306659 0.184034 0.930488 -0.019786
C297  C     C_R   0.813431 0.696374 0.974474 -0.172968
C298  C     C_R   0.820441 0.697268 0.929372 0.157284
C299  C     C_R   0.856132 0.674835 0.911915 -0.177826
C300  C     C_R   0.884215 0.651962 0.938771 -0.186606
C301  C     C_R   0.876551 0.649842 0.983665 0.163264
C302  C     C_R   0.056845 0.501395 0.946384 -0.163264
C303  C     C_R   0.080177 0.473983 0.918778 -0.175012
C304  C     C_R   0.089967 0.431235 0.931363 0.144054
C305  C     C_R   0.077713 0.417349 0.973116 -0.175033
C306  C     C_R   0.054394 0.444772 0.000723 -0.164009
C307  C     C_R   0.329855 0.201369 0.966251 0.540751
C308  C     C_R   0.517593 0.480044 0.141133 -0.065142
C309  C     C_R   0.042529 0.486646 0.987140 0.152637
C310  C     C_R   0.847813 0.502006 0.181583 0.223043
C311  C     C_R   0.819588 0.473955 0.204139 -0.247536
C312  C     C_R   0.817188 0.429769 0.193331 0.123869
C313  C     C_R   0.842831 0.413372 0.159652 -0.208560
C314  C     C_R   0.870806 0.440475 0.137091 -0.200271
C315  C     C_R   0.873467 0.484879 0.147168 0.112397
C316  C     C_R   0.959347 0.568975 0.014370 0.143307
C317  C     C_R   0.902091 0.619492 0.010343 0.036819
H1    H     H_    0.299789 0.389244 0.986129 0.112300
H2    H     H_    0.889497 0.426778 0.110540 0.139807
H3    H     H_    0.630603 0.650730 0.661449 0.128050
H4    H     H_    0.519154 0.723072 0.701108 0.135005
H5    H     H_    0.292579 0.486253 0.714076 0.118937
H6    H     H_    0.333431 0.372083 0.644186 0.133921
H7    H     H_    0.334584 0.531529 0.664776 0.150020
H8    H     H_    0.566395 0.656806 0.032040 0.125015
H9    H     H_    0.614860 0.485920 0.411799 0.110564
H10   H     H_    0.515296 0.386671 0.411914 0.111853
H11   H     H_    0.565917 0.534920 0.448917 0.125198
H12   H     H_    0.466366 0.435869 0.448771 0.126842
H13   H     H_    0.081327 0.229258 0.982833 0.110357
H14   H     H_    0.046432 0.376183 0.654595 0.118141
H15   H     H_    0.109414 0.488714 0.709770 0.111622
H16   H     H_    0.006775 0.422329 0.604729 0.126508
H17   H     H_    0.067397 0.535720 0.661016 0.124174
H18   H     H_    0.865488 0.682300 0.730111 0.146601
H19   H     H_    0.914491 0.641741 0.684460 0.136158
H20   H     H_    0.839638 0.675606 0.571464 0.145579
H21   H     H_    0.876134 0.389844 0.409443 0.110988
H22   H     H_    0.769674 0.480179 0.425498 0.111099
H23   H     H_    0.922989 0.438093 0.450425 0.125242
H24   H     H_    0.091818 0.124818 0.889194 0.111755
H25   H     H_    0.816743 0.528571 0.465946 0.124791
H26   H     H_    0.786340 0.713482 0.988973 0.112474
H27   H     H_    0.861850 0.673844 0.877241 0.160262
H28   H     H_    0.834444 0.671422 0.035925 0.124009
H29   H     H_    0.900209 0.537352 0.244704 0.258646
H30   H     H_    0.921182 0.555522 0.192865 0.259214
H31   H     H_    0.894394 0.593340 0.228558 0.248999
H32   H     H_    0.844383 0.571152 0.168195 0.197274
H33   H     H_    0.824822 0.556395 0.220267 0.187480
H34   H     H_    0.452007 0.486984 0.201832 0.079212
H35   H     H_    0.040960 0.182066 0.031066 0.125577
H36   H     H_    0.402999 0.459448 0.188041 0.139196
H37   H     H_    0.426390 0.393552 0.229907 0.212541
H38   H     H_    0.475568 0.421268 0.245581 0.187393
H39   H     H_    0.431745 0.479006 0.282421 0.267333
H40   H     H_    0.420241 0.425729 0.303866 0.269226
H41   H     H_    0.382249 0.451011 0.267163 0.265159
H42   H     H_    0.887293 0.925405 0.817755 0.120270
H43   H     H_    0.917168 0.942610 0.864305 0.090209
H44   H     H_    0.874229 0.002578 0.796058 0.214148
H45   H     H_    0.904749 0.020715 0.842612 0.194421
H46   H     H_    0.051398 0.077802 0.937439 0.126659
H47   H     H_    0.970695 0.981873 0.814319 0.271091
H48   H     H_    0.950199 0.020892 0.775755 0.277121
H49   H     H_    0.939846 0.963813 0.767535 0.264445
H50   H     H_    0.023375 0.091305 0.767041 0.287704
H51   H     H_    0.077671 0.112354 0.773127 0.238799
H52   H     H_    0.036503 0.125096 0.812922 0.235772
H53   H     H_    0.042709 0.189486 0.768870 0.183783
H54   H     H_    0.993946 0.164393 0.754580 0.188264
H55   H     H_    0.941079 0.129911 0.648832 0.105423
H56   H     H_    0.944189 0.157963 0.700205 0.079992
H57   H     H_    0.793916 0.891992 0.985269 0.137403
H58   H     H_    0.912316 0.063828 0.687426 0.211283
H59   H     H_    0.913047 0.093785 0.737773 0.198224
H60   H     H_    0.861412 0.148329 0.705935 0.267649
H61   H     H_    0.839413 0.094001 0.704863 0.275274
H62   H     H_    0.860606 0.117661 0.655613 0.270121
H63   H     H_    0.485736 0.083338 0.363617 0.257866
H64   H     H_    0.466118 0.063126 0.415228 0.261312
H65   H     H_    0.428183 0.081182 0.374631 0.250629
H66   H     H_    0.436368 0.137798 0.432463 0.197652
H67   H     H_    0.453530 0.156161 0.380631 0.190076
H68   H     H_    0.900097 0.994222 0.920730 0.144363
H69   H     H_    0.567557 0.177077 0.558257 0.257421
H70   H     H_    0.529237 0.133040 0.564570 0.259842
H71   H     H_    0.581081 0.130543 0.591071 0.247820
H72   H     H_    0.581524 0.083139 0.524373 0.195181
H73   H     H_    0.619880 0.125354 0.522807 0.183781
H74   H     H_    0.636826 0.461301 0.309920 0.263740
H75   H     H_    0.692415 0.444698 0.298520 0.263627
H76   H     H_    0.675768 0.499897 0.290394 0.248583
H77   H     H_    0.674339 0.468903 0.217882 0.171990
H78   H     H_    0.620698 0.475109 0.237684 0.208743
H79   H     H_    0.842412 0.933287 0.032588 0.130946
H80   H     H_    0.854888 0.364429 0.307794 0.262417
H81   H     H_    0.835698 0.309290 0.300532 0.259016
H82   H     H_    0.891329 0.322715 0.289074 0.249410
H83   H     H_    0.868420 0.373060 0.231868 0.205643
H84   H     H_    0.854707 0.319966 0.217425 0.168417
H85   H     H_    0.202062 0.359295 0.648984 0.261889
H86   H     H_    0.188366 0.304545 0.666045 0.262380
H87   H     H_    0.181020 0.320808 0.610601 0.248389
H88   H     H_    0.129185 0.377277 0.633682 0.204999
H89   H     H_    0.108244 0.325096 0.642706 0.170108
H90   H     H_    0.875555 0.222400 0.199714 0.109181
H91   H     H_    0.878732 0.761693 0.895370 0.128600
H92   H     H_    0.838302 0.801599 0.880776 0.089666
H93   H     H_    0.917959 0.776531 0.825420 0.208732
H94   H     H_    0.877537 0.816563 0.811767 0.182098
H95   H     H_    0.939044 0.818709 0.891044 0.278794
H96   H     H_    0.897105 0.858312 0.880080 0.258578
H97   H     H_    0.942234 0.852247 0.843103 0.270140
H98   H     H_    0.539764 0.798991 0.747436 0.265256
H99   H     H_    0.556570 0.809934 0.802917 0.259725
H100  H     H_    0.501143 0.818004 0.786902 0.252801
H101  H     H_    0.773929 0.125404 0.195233 0.111214
H102  H     H_    0.534252 0.890788 0.787092 0.192479
H103  H     H_    0.523491 0.873052 0.734126 0.205562
H104  H     H_    0.497071 0.953570 0.811408 0.129888
H105  H     H_    0.476528 0.980748 0.857075 0.100619
H106  H     H_    0.483511 0.880103 0.847822 0.207261
H107  H     H_    0.456276 0.908486 0.891067 0.201023
H108  H     H_    0.404124 0.940339 0.837346 0.264423
H109  H     H_    0.403526 0.881724 0.837049 0.269037
H110  H     H_    0.431091 0.910602 0.794164 0.263671
H111  H     H_    0.373570 0.254701 0.921813 0.103232
H112  H     H_    0.624313 0.465174 0.162263 0.137180
H113  H     H_    0.922657 0.175122 0.158466 0.125708
H114  H     H_    0.398813 0.248807 0.974934 0.106650
H115  H     H_    0.342444 0.325549 0.944487 0.200647
H116  H     H_    0.366338 0.320001 0.997590 0.204729
H117  H     H_    0.440576 0.319367 0.963938 0.265996
H118  H     H_    0.410722 0.367843 0.950064 0.276616
H119  H     H_    0.416350 0.324826 0.910576 0.268554
H120  H     H_    0.638498 0.188807 0.129082 0.102653
H121  H     H_    0.634199 0.135179 0.104515 0.105138
H122  H     H_    0.711068 0.169960 0.158217 0.202101
H123  H     H_    0.707247 0.116237 0.135215 0.203685
H124  H     H_    0.576678 0.515950 0.127458 0.157382
H125  H     H_    0.702988 0.148557 0.060602 0.267404
H126  H     H_    0.751679 0.165076 0.088779 0.276264
H127  H     H_    0.706810 0.202477 0.083991 0.267903
H128  H     H_    0.517635 0.203802 0.279847 0.101581
H129  H     H_    0.466884 0.184280 0.256585 0.104202
H130  H     H_    0.489040 0.280238 0.275316 0.184888
H131  H     H_    0.438772 0.259723 0.253485 0.205211
H132  H     H_    0.428504 0.215498 0.322478 0.270170
H133  H     H_    0.430036 0.273398 0.331462 0.275770
H134  H     H_    0.476992 0.241084 0.344099 0.261349
H135  H     H_    0.821149 0.078249 0.153243 0.127287
H136  H     H_    0.546808 0.542686 0.620609 0.258588
H137  H     H_    0.600805 0.524587 0.607746 0.248717
H138  H     H_    0.589731 0.548407 0.660176 0.257009
H139  H     H_    0.587269 0.596312 0.571533 0.195946
H140  H     H_    0.629475 0.598009 0.609837 0.179461
H141  H     H_    0.406717 0.690866 0.688890 0.132173
H142  H     H_    0.455187 0.700434 0.717879 0.084497
H143  H     H_    0.416162 0.611762 0.690528 0.216058
H144  H     H_    0.468769 0.617083 0.715868 0.197669
H145  H     H_    0.434212 0.652023 0.780559 0.265985
H146  H     H_    0.777279 0.910713 0.624240 0.111062
H147  H     H_    0.411600 0.599035 0.769799 0.274627
H148  H     H_    0.381383 0.647008 0.755089 0.265050
H149  H     H_    0.360063 0.398175 0.524680 0.125549
H150  H     H_    0.320575 0.385894 0.565277 0.075918
H151  H     H_    0.408736 0.339820 0.550004 0.210589
H152  H     H_    0.372978 0.327882 0.594720 0.193637
H153  H     H_    0.313944 0.307462 0.542763 0.266934
H154  H     H_    0.362428 0.275696 0.534080 0.272830
H155  H     H_    0.349663 0.319636 0.497508 0.271251
H156  H     H_    0.459348 0.362102 0.124947 0.286222
H157  H     H_    0.874667 0.916238 0.725375 0.109999
H158  H     H_    0.511686 0.363367 0.097788 0.245516
H159  H     H_    0.491460 0.313945 0.121700 0.235816
H160  H     H_    0.544353 0.338991 0.168652 0.198905
H161  H     H_    0.494038 0.352446 0.196276 0.184159
H162  H     H_    0.737236 0.672146 0.622918 0.093264
H163  H     H_    0.765018 0.671520 0.570858 0.107577
H164  H     H_    0.699326 0.741281 0.599729 0.186333
H165  H     H_    0.726132 0.737534 0.547861 0.204610
H166  H     H_    0.690533 0.665329 0.534661 0.269355
H167  H     H_    0.651140 0.707661 0.544498 0.276519
H168  H     H_    0.824973 0.950832 0.576228 0.125589
H169  H     H_    0.663684 0.669397 0.586905 0.263012
H170  H     H_    0.922288 0.955963 0.677263 0.130403
H171  H     H_    0.114554 0.199463 0.629614 0.139593
H172  H     H_    0.074051 0.151245 0.581770 0.154568
H173  H     H_    0.775279 0.126627 0.414929 0.109810
H174  H     H_    0.910687 0.634122 0.923918 0.131573
H175  H     H_    0.734542 0.440724 0.234868 0.140460
H176  H     H_    0.873977 0.226634 0.416982 0.110913
H177  H     H_    0.822316 0.079478 0.456585 0.125535
H178  H     H_    0.920949 0.179362 0.458600 0.125958
H179  H     H_    0.313342 0.229959 0.629777 0.115525
H180  H     H_    0.300503 0.124707 0.721852 0.109870
H181  H     H_    0.355000 0.183329 0.582101 0.126824
H182  H     H_    0.342662 0.078190 0.674191 0.125691
H183  H     H_    0.543950 0.953626 0.733343 0.123072
H184  H     H_    0.599378 0.889742 0.621290 0.113109
H185  H     H_    0.089204 0.486127 0.887101 0.109999
H186  H     H_    0.493197 0.991865 0.686977 0.125929
H187  H     H_    0.656925 0.170379 0.238352 0.147371
H188  H     H_    0.549772 0.930531 0.573957 0.123964
H189  H     H_    0.521563 0.187397 0.372681 0.123826
H190  H     H_    0.623651 0.171069 0.464980 0.132777
H191  H     H_    0.832028 0.261235 0.242629 0.118806
H192  H     H_    0.561735 0.341428 0.235886 0.099186
H193  H     H_    0.732038 0.170546 0.236665 0.089531
H194  H     H_    0.561840 0.269591 0.233489 0.152963
H195  H     H_    0.306188 0.484456 0.883080 0.110301
H196  H     H_    0.084689 0.384806 0.984201 0.110039
H197  H     H_    0.659389 0.439492 0.378151 0.092426
H198  H     H_    0.733287 0.170803 0.374418 0.083513
H199  H     H_    0.829292 0.342188 0.378611 0.092008
H200  H     H_    0.560736 0.268020 0.376794 0.095766
H201  H     H_    0.659286 0.171757 0.378139 0.096334
H202  H     H_    0.733052 0.440653 0.374790 0.086941
H203  H     H_    0.560273 0.343812 0.373232 0.085300
H204  H     H_    0.830565 0.268080 0.374635 0.087056
H205  H     H_    0.264787 0.269150 0.939966 0.144304
H206  H     H_    0.339786 0.437801 0.033237 0.130688
H207  H     H_    0.048451 0.533531 0.934903 0.125668
H208  H     H_    0.271355 0.340244 0.672514 0.095423
H209  H     H_    0.265761 0.170778 0.767864 0.083270
H210  H     H_    0.263688 0.440846 0.842845 0.081554
H211  H     H_    0.264678 0.267505 0.670236 0.089384
H212  H     H_    0.263464 0.344327 0.940624 0.089396
H213  H     H_    0.268647 0.439510 0.768400 0.084320
H214  H     H_    0.267927 0.171431 0.842911 0.090897
H215  H     H_    0.126652 0.343399 0.940321 0.084591
H216  H     H_    0.122093 0.264897 0.671344 0.123597
H217  H     H_    0.126592 0.170501 0.843771 0.088528
H218  H     H_    0.044010 0.432337 0.031944 0.125860
H219  H     H_    0.346007 0.532973 0.930327 0.126425
H220  H     H_    0.121869 0.439268 0.770571 0.104889
H221  H     H_    0.126576 0.268565 0.940351 0.085130
H222  H     H_    0.127428 0.441034 0.843732 0.082411
H223  H     H_    0.123236 0.171778 0.770179 0.109204
H224  H     H_    0.563190 0.728696 0.770047 0.100379
H225  H     H_    0.732635 0.738152 0.670428 0.136772
H226  H     H_    0.657677 0.737002 0.940343 0.081287
H227  H     H_    0.831643 0.738989 0.765044 0.158384
H228  H     H_    0.516058 0.696927 0.884655 0.110810
H229  H     H_    0.800142 0.486305 0.230801 0.121027
H230  H     H_    0.560402 0.737540 0.843253 0.088702
H231  H     H_    0.732557 0.734642 0.939852 0.123258
H232  H     H_    0.660127 0.730839 0.671857 0.094267
H233  H     H_    0.560052 0.871571 0.847220 0.130827
H234  H     H_    0.831183 0.874002 0.766961 0.075115
H235  H     H_    0.660873 0.878654 0.671140 0.105123
H236  H     H_    0.733084 0.878839 0.939329 0.094160
H237  H     H_    0.829473 0.878204 0.840941 0.108242
H238  H     H_    0.658706 0.877827 0.939726 0.092770
H239  H     H_    0.614424 0.697564 0.984940 0.109682
H240  H     H_    0.840957 0.379410 0.150584 0.126526
H241  H     H_    0.734099 0.873633 0.669851 0.085357
H242  H     H_    0.599902 0.893159 0.987690 0.138546
H243  H     H_    0.550866 0.933379 0.035517 0.132565
H244  H     H_    0.485845 0.987203 0.925073 0.141852
H245  H     H_    0.289536 0.124358 0.896999 0.136872
H246  H     H_    0.330446 0.076966 0.945111 0.133275
H247  H     H_    0.368926 0.187638 0.021958 0.152933
H248  H     H_    0.468167 0.656220 0.931818 0.126283
H249  H     H_    0.575292 0.086859 0.136886 0.161892
H250  H     H_    0.463912 0.163162 0.173219 0.162101
N1    N     N_R   0.395384 0.551837 0.994464 -0.110263
N2    N     N_R   0.656690 0.374300 0.256620 -0.046269
N3    N     N_R   0.989943 0.117222 0.565816 -0.114980
N4    N     N_R   0.884709 0.061872 0.508399 -0.110328
N5    N     N_R   0.937318 0.117140 0.510799 -0.107066
N6    N     N_R   0.400021 0.063659 0.615696 -0.110356
N7    N     N_R   0.453108 0.009259 0.616247 -0.110162
N8    N     N_R   0.627050 0.266880 0.256620 -0.050786
N9    N     N_R   0.764130 0.344680 0.256590 -0.050255
N10   N     N_R   0.656680 0.374290 0.353750 -0.034860
N11   N     N_R   0.734490 0.237250 0.353740 -0.038305
N12   N     N_R   0.764120 0.344670 0.353730 -0.035791
N13   N     N_R   0.627040 0.266870 0.353760 -0.040362
N14   N     N_R   0.450044 0.605043 0.994556 -0.109936
N15   N     N_R   0.656650 0.237260 0.353750 -0.040419
N16   N     N_R   0.734510 0.374280 0.353740 -0.039047
N17   N     N_R   0.764110 0.266860 0.256590 -0.039733
N18   N     N_R   0.627060 0.344690 0.353760 -0.037729
N19   N     N_R   0.764100 0.266860 0.353730 -0.040634
N20   N     N_R   0.244090 0.266760 0.873830 -0.051948
N21   N     N_R   0.244250 0.344420 0.736750 -0.036051
N22   N     N_R   0.244160 0.237030 0.766470 -0.038773
N23   N     N_R   0.244170 0.374150 0.844110 -0.038888
N24   N     N_R   0.244200 0.266600 0.736840 -0.039675
N25   N     N_R   0.244130 0.344570 0.873740 -0.038680
N26   N     N_R   0.396216 0.496490 0.046851 -0.104203
N27   N     N_R   0.244240 0.374060 0.766320 -0.039936
N28   N     N_R   0.402262 0.118158 0.562471 -0.108932
N29   N     N_R   0.244100 0.237120 0.844270 -0.041674
N30   N     N_R   0.146950 0.344620 0.873690 -0.040412
N31   N     N_R   0.147020 0.266650 0.736790 -0.041903
N32   N     N_R   0.146910 0.237160 0.844220 -0.040348
N33   N     N_R   0.147050 0.374110 0.766260 -0.052671
N34   N     N_R   0.147060 0.344470 0.736700 -0.047301
N35   N     N_R   0.146900 0.266800 0.873780 -0.040403
N36   N     N_R   0.146990 0.374190 0.844060 -0.039805
N37   N     N_R   0.146970 0.237080 0.766420 -0.043234
N38   N     N_R   0.448557 0.551878 0.049222 -0.117751
N39   N     N_R   0.451515 0.059883 0.559378 -0.113877
N40   N     N_R   0.627230 0.757210 0.766300 -0.036514
N41   N     N_R   0.764250 0.757220 0.844140 -0.086362
N42   N     N_R   0.734700 0.757190 0.736740 -0.050802
N43   N     N_R   0.656780 0.757240 0.873700 -0.036113
N44   N     N_R   0.764290 0.757200 0.766350 -0.045162
N45   N     N_R   0.627190 0.757230 0.844100 -0.041182
N46   N     N_R   0.734610 0.757230 0.873730 -0.064983
N47   N     N_R   0.656870 0.757200 0.736720 -0.041160
N48   N     N_R   0.627210 0.854400 0.844070 -0.055028
N49   N     N_R   0.764320 0.854360 0.766320 -0.041183
N50   N     N_R   0.506444 0.006846 0.561607 -0.106424
N51   N     N_R   0.505582 0.602495 0.046806 -0.108097
N52   N     N_R   0.656890 0.854370 0.736690 -0.052078
N53   N     N_R   0.734640 0.854390 0.873700 -0.043355
N54   N     N_R   0.764270 0.854380 0.844110 -0.055016
N55   N     N_R   0.627260 0.854380 0.766270 -0.048447
N56   N     N_R   0.656800 0.854400 0.873670 -0.042250
N57   N     N_R   0.734720 0.854360 0.736710 -0.039975
N58   N     N_R   0.450823 0.009066 0.994663 -0.109173
N59   N     N_R   0.398142 0.063864 0.995778 -0.110725
N60   N     N_R   0.504633 0.006432 0.048663 -0.107238
N61   N     N_R   0.457237 0.117432 0.509704 -0.111197
N62   N     N_R   0.449048 0.058792 0.052454 -0.114872
N63   N     N_R   0.452066 0.493487 0.097995 -0.068717
N64   N     N_R   0.399315 0.116663 0.050913 -0.106035
N65   N     N_R   0.505314 0.058793 0.103953 -0.109668
N66   N     N_R   0.452546 0.113921 0.105201 -0.107467
N67   N     N_R   0.460778 0.593013 0.619644 -0.092745
N68   N     N_R   0.405803 0.540568 0.618243 -0.113893
N69   N     N_R   0.509403 0.599121 0.561207 -0.112041
N70   N     N_R   0.452397 0.548507 0.558254 -0.119219
N71   N     N_R   0.400451 0.492674 0.559058 -0.072252
N72   N     N_R   0.507806 0.060320 0.507819 -0.110848
N73   N     N_R   0.505043 0.550330 0.502987 -0.107720
N74   N     N_R   0.450619 0.496902 0.502065 -0.106378
N75   N     N_R   0.506835 0.546440 0.098146 -0.113614
N76   N     N_R   0.992000 0.548285 0.617155 -0.105936
N77   N     N_R   0.941015 0.604575 0.615733 -0.111255
N78   N     N_R   0.989085 0.492984 0.564571 -0.110367
N79   N     N_R   0.940912 0.551889 0.560503 -0.114091
N80   N     N_R   0.886954 0.605845 0.561892 -0.110422
N81   N     N_R   0.936057 0.494598 0.510278 -0.110030
N82   N     N_R   0.884468 0.550785 0.509078 -0.110057
N83   N     N_R   0.627070 0.344690 0.256630 -0.051054
N84   N     N_R   0.939689 0.602678 0.994309 -0.110378
N85   N     N_R   0.993876 0.549334 0.995426 -0.110242
N86   N     N_R   0.884423 0.602508 0.047070 -0.108623
N87   N     N_R   0.734520 0.374290 0.256600 -0.054368
N88   N     N_R   0.941159 0.551500 0.050708 -0.114068
N89   N     N_R   0.992980 0.495436 0.049284 -0.109679
N90   N     N_R   0.883407 0.548592 0.100693 -0.108750
N91   N     N_R   0.937911 0.495203 0.101930 -0.108941
N92   N     N_R   0.993600 0.064131 0.994981 -0.109310
N93   N     N_R   0.939047 0.011519 0.992155 -0.108902
N94   N     N_R   0.734490 0.237260 0.256600 -0.038204
N95   N     N_R   0.993310 0.116592 0.050411 -0.110340
N96   N     N_R   0.941156 0.060771 0.050363 -0.114547
N97   N     N_R   0.884175 0.010103 0.045324 -0.107426
N98   N     N_R   0.938731 0.115296 0.103734 -0.110676
N99   N     N_R   0.656660 0.237270 0.256620 -0.053557
N100  N     N_R   0.884159 0.061949 0.101265 -0.108541
N101  N     N_R   0.939675 0.005430 0.614181 -0.108002
N102  N     N_R   0.991483 0.060651 0.616913 -0.067165
N103  N     N_R   0.885431 0.006411 0.560647 -0.109479
N104  N     N_R   0.940871 0.058963 0.559970 -0.117968
Ni1   Ni    Ni4+2 0.695600 0.373670 0.305180 0.212762
Ni2   Ni    Ni4+2 0.195540 0.237710 0.805350 0.208547
Ni3   Ni    Ni4+2 0.195610 0.373510 0.805190 0.209618
Ni4   Ni    Ni4+2 0.627840 0.805810 0.805190 0.210577
Ni5   Ni    Ni4+2 0.763660 0.805790 0.805230 0.222250
Ni6   Ni    Ni4+2 0.695790 0.805780 0.737330 0.214221
Ni7   Ni    Ni4+2 0.695710 0.805810 0.873090 0.198447
Ni8   Ni    Ni4+2 0.695570 0.237880 0.305180 0.207499
Ni9   Ni    Ni4+2 0.763500 0.305770 0.305160 0.212941
Ni10  Ni    Ni4+2 0.627670 0.305780 0.305190 0.204952
Ni11  Ni    Ni4+2 0.195520 0.305690 0.873140 0.209853
Ni12  Ni    Ni4+2 0.195630 0.305540 0.737390 0.213238
O1    O     O_3   0.456853 0.432831 0.159552 -0.666096
O2    O     O_3   0.380890 0.413505 0.586093 -0.662748
O3    O     O_3   0.781552 0.722369 0.613089 -0.674052
O4    O     O_3   0.848946 0.956342 0.862818 -0.664179
O5    O     O_3   0.986387 0.105231 0.693148 -0.659880
O6    O     O_3   0.840744 0.744412 0.842674 -0.707107
O7    O     O_3   0.535696 0.947188 0.864784 -0.681628
O8    O     O_3   0.331224 0.245547 0.974044 -0.684040
O9    O     O_3   0.632721 0.136706 0.172131 -0.673580
O10   O     O_3   0.506126 0.221759 0.215792 -0.673077
O11   O     O_3   0.461255 0.678340 0.652911 -0.658384

loop_
_geom_bond_atom_site_label_1
_geom_bond_atom_site_label_2
_ccdc_geom_bond_type
C218  H110  S    
C240  H156  S    
C222  O9    S    
C191  O4    S    
C205  H75   S    
C50   H172  S    
C19   C20   A    
N94   Ni8   S    
C103  C206  S    
C200  H64   S    
C19   C181  S    
C195  H52   S    
C175  C177  A    
C32   N92   A    
C130  H212  S    
C110  H199  S    
N16   Ni1   S    
C294  H28   S    
C213  H96   S    
C135  N66   A    
C299  H27   S    
C210  O6    S    
C317  N86   A    
C229  H132  S    
C162  C163  A    
C144  C151  A    
N24   Ni12  S    
C33   N95   A    
C117  C119  A    
C59   C66   S    
C54   H173  S    
C82   C87   A    
C288  N77   A    
C244  C245  A    
C97   H192  S    
C113  C263  S    
C111  H195  S    
C182  C183  A    
C4    N14   A    
C79   C90   A    
C245  H5    S    
C252  C263  A    
N42   N44   A    
C108  N10   A    
C158  N44   A    
C177  C184  S    
C275  C276  A    
C231  H137  S    
C255  H10   S    
C111  C125  A    
C203  H69   S    
C99   C138  S    
C153  N40   A    
C5    N91   A    
C230  H139  S    
C286  H25   S    
C86   C202  S    
C201  C212  A    
C176  H241  S    
C141  N32   A    
C131  N27   A    
C295  C308  A    
C196  O5    S    
C199  C200  S    
C245  C246  A    
C70   C136  S    
C313  H240  S    
C228  C229  S    
C176  N57   A    
C216  H105  S    
C45   C47   A    
N22   Ni2   S    
C68   O10   S    
C69   H179  S    
C214  H103  S    
C202  C203  S    
C156  H226  S    
C316  N84   A    
C191  C192  S    
C258  N70   A    
C289  N78   A    
C147  C150  A    
C257  C265  S    
C127  C136  A    
C74   C75   A    
C300  H174  S    
C14   C32   S    
C34   N97   A    
C206  C207  S    
C36   N97   A    
C314  C315  A    
C306  H218  S    
C219  O8    S    
C227  H129  S    
C43   C44   A    
C35   C157  A    
C196  H55   S    
C37   N98   A    
C10   C151  S    
C186  H30   S    
C193  H47   S    
C189  H40   S    
C227  C228  S    
C8    H35   S    
C269  H15   S    
C156  C166  A    
C95   N61   A    
N55   Ni4   S    
N20   Ni11  S    
C238  H154  S    
C66   N4    A    
C216  C217  S    
C158  H227  S    
C250  C264  S    
C128  N23   A    
C139  N30   A    
C218  H108  S    
C240  H158  S    
C123  C133  A    
N43   N45   A    
C159  H230  S    
C281  H21   S    
C115  N15   A    
C270  C272  A    
C116  H202  S    
C194  H54   S    
C74   C81   A    
N18   Ni10  S    
C130  C138  A    
C97   N83   A    
C145  C148  A    
C300  C301  A    
C96   N17   A    
C239  C259  S    
N53   Ni7   S    
C160  N46   A    
C163  C201  S    
C258  N67   A    
C222  H121  S    
C117  H203  S    
C146  N64   A    
C171  C181  A    
C155  N42   A    
C51   C64   S    
C229  H134  S    
C72   C73   A    
N54   Ni5   S    
C24   C90   A    
N49   Ni5   S    
C175  H238  S    
C94   N7    A    
C144  N35   A    
C162  H232  S    
C22   C36   S    
C198  H61   S    
C21   H79   S    
C24   C46   A    
C167  H233  S    
C217  C218  S    
C280  C287  A    
N9    Ni9   S    
C89   N99   A    
C208  H88   S    
C16   H1    S    
C155  C165  A    
N33   Ni3   S    
C291  N79   A    
C301  C317  S    
C185  C310  S    
C237  H152  S    
C270  H17   S    
C234  H147  S    
N46   Ni7   S    
C118  C120  A    
C207  H81   S    
C97   C107  A    
C56   H176  S    
C20   C21   A    
C126  C134  A    
C239  H160  S    
N32   N35   A    
C217  H106  S    
C243  H169  S    
C226  H127  S    
C206  H84   S    
C210  H92   S    
C134  C246  S    
C311  H229  S    
C224  O11   S    
C7    N90   A    
C223  C252  A    
C15   C18   A    
C192  H45   S    
C115  H201  S    
C237  H151  S    
C101  N58   A    
C236  H149  S    
C15   H68   S    
C53   N14   A    
C283  H112  S    
C313  C314  A    
C162  N47   A    
C85   C86   A    
C152  C268  S    
C29   N26   A    
C183  H242  S    
C249  C250  A    
C118  N19   A    
N9    N87   A    
C153  C163  A    
C117  N18   A    
C264  N71   A    
C224  C235  A    
C76   C78   A    
C225  H122  S    
C110  C121  A    
C144  H221  S    
C253  C254  A    
N23   N25   A    
C193  H49   S    
C227  O10   S    
C247  C308  A    
C96   H191  S    
C6    C309  S    
C24   H249  S    
C195  H51   S    
C236  C237  S    
C241  C242  S    
C195  H50   S    
C128  C138  A    
C294  C301  A    
C126  N21   A    
C305  H196  S    
C172  C181  A    
C67   H181  S    
C41   N38   A    
C283  C295  A    
C235  C260  S    
C87   C95   S    
C12   H46   S    
C65   N63   A    
C62   N103  A    
C264  N68   A    
C103  N9    A    
C159  N45   A    
C9    C10   A    
N12   N16   A    
C31   N92   A    
C68   C79   A    
C40   C42   A    
C231  H138  S    
C277  C278  A    
C291  N82   A    
N17   Ni9   S    
C69   C70   A    
N10   Ni1   S    
C140  H216  S    
C261  N73   A    
C220  C221  S    
C266  H16   S    
C113  N58   A    
C174  N55   A    
C297  H26   S    
C139  C148  A    
C228  H130  S    
C108  C119  A    
C41   N51   A    
N31   Ni12  S    
C244  H7    S    
C46   O9    S    
C3    N88   A    
C280  C281  A    
N21   N27   A    
C39   C40   A    
N49   N57   A    
C143  C208  S    
C208  C209  S    
C5    N89   A    
C185  H32   S    
C222  C225  S    
C25   C26   A    
C213  H95   S    
C200  H63   S    
C287  C293  S    
C232  H141  S    
C295  H124  S    
C234  H145  S    
C221  H117  S    
C167  N48   A    
C272  C289  S    
C271  C283  A    
C83   C84   A    
C140  N31   A    
C99   C111  A    
C92   N39   A    
C100  N2    A    
C171  H236  S    
C243  H167  S    
C226  H125  S    
N56   Ni7   S    
N43   Ni7   S    
N33   N34   A    
C242  H164  S    
C192  C193  S    
C92   N61   A    
C262  N71   A    
C252  H244  S    
C2    H247  S    
C175  N56   A    
C189  H39   S    
N41   N46   A    
N32   Ni2   S    
C215  H98   S    
C141  H217  S    
C82   C83   A    
N47   Ni6   S    
C66   N5    A    
C27   H101  S    
C208  H89   S    
C57   C68   A    
C119  C254  S    
C174  C180  A    
C78   H184  S    
C259  C271  A    
C191  H42   S    
C63   N5    A    
C212  C224  A    
C314  H2    S    
C54   C55   A    
C92   N28   A    
C205  H74   S    
C90   C168  S    
C210  H91   S    
C200  H65   S    
C127  H209  S    
C39   H146  S    
C124  N65   A    
C17   C137  S    
C267  C268  A    
C89   H187  S    
N23   Ni3   S    
C44   C61   S    
C282  C284  A    
C145  N36   A    
C146  N59   A    
C284  C286  A    
C280  H23   S    
C82   C199  S    
C316  N88   A    
N31   N37   A    
C123  N20   A    
C81   C94   S    
C148  C304  S    
C219  H111  S    
C49   H171  S    
C262  N74   A    
C307  O8    S    
C182  C263  A    
C169  H234  S    
C302  C309  A    
C104  C312  S    
C56   C58   A    
N2    N83   A    
C185  H33   S    
C197  C198  S    
C10   C11   A    
C202  H72   S    
C95   N72   A    
C276  C277  A    
C109  C120  A    
N13   N15   A    
C49   C50   A    
C231  H136  S    
C291  N80   A    
C278  C279  A    
C142  H220  S    
C147  N37   A    
C290  N78   A    
C209  H86   S    
C21   C22   A    
C132  H214  S    
C207  H82   S    
C35   C112  A    
C113  N60   A    
C98   N94   A    
N37   Ni2   S    
C184  C223  A    
C161  H228  S    
C55   C56   A    
C61   N101  A    
C216  O7    S    
C93   N39   A    
C74   H186  S    
C48   C150  S    
C37   N100  A    
C197  H59   S    
C239  C240  S    
C3    N86   A    
N25   Ni11  S    
C131  C134  A    
C26   C106  S    
N19   Ni9   S    
C65   N75   A    
C1    C137  A    
C155  H225  S    
C260  N69   A    
C26   C27   A    
C316  N85   A    
C63   N3    A    
C160  C164  A    
C221  H119  S    
C102  H194  S    
C80   H188  S    
C154  N41   A    
C88   N6    A    
C33   N98   A    
C145  H222  S    
C98   H193  S    
C102  C105  A    
N48   N56   A    
C18   C19   A    
C297  C298  A    
C133  C296  S    
C142  C152  A    
C55   C120  S    
C227  H128  S    
C77   N87   A    
C93   N50   A    
C186  H31   S    
C15   C22   A    
C248  H6    S    
C241  O3    S    
C42   H157  S    
C238  H155  S    
C70   C71   A    
C67   C73   A    
C265  N74   A    
C143  N34   A    
N40   N47   A    
C310  C315  A    
C188  H38   S    
C18   O4    S    
C218  H109  S    
C194  C195  S    
C240  H159  S    
C219  H114  S    
C269  C270  A    
C284  H22   S    
C288  N79   A    
C147  H223  S    
C123  H205  S    
C209  H85   S    
C256  H12   S    
N22   N24   A    
N30   N36   A    
C88   N39   A    
C306  C309  A    
C213  H97   S    
C107  C271  S    
C236  H150  S    
C60   N102  A    
C35   H8    S    
C294  C297  A    
C2    C307  A    
C45   O5    S    
C261  N70   A    
C219  C220  S    
C86   C87   A    
C125  C137  A    
C58   C59   A    
C198  H62   S    
C288  N76   A    
C249  O2    S    
C30   C37   S    
C174  C214  S    
C241  H163  S    
C299  C300  A    
C93   N72   A    
C38   C44   A    
C254  C255  A    
C65   C308  S    
N40   Ni4   S    
C31   N96   A    
N13   Ni10  S    
C126  H208  S    
C247  O1    S    
C20   H57   S    
C50   C51   A    
C16   C99   A    
C1    C16   A    
C228  H131  S    
C258  N68   A    
C84   C85   A    
C17   N1    A    
C215  H100  S    
C13   C274  A    
C48   C49   A    
C167  C177  A    
C253  H9    S    
C3    N90   A    
C33   N96   A    
N52   N55   A    
N99   Ni8   S    
C130  N25   A    
C42   C43   A    
C6    N89   A    
C303  H185  S    
C248  C249  A    
C216  H104  S    
C199  H66   S    
C232  H142  S    
C154  C164  A    
C110  N12   A    
C310  C311  A    
C166  C173  S    
C214  H102  S    
C274  C285  A    
C186  H29   S    
N8    N99   A    
C203  H70   S    
C62   N4    A    
C76   C180  S    
C34   N96   A    
C296  C307  A    
C29   N63   A    
N30   Ni11  S    
C52   H177  S    
C275  H18   S    
C102  N8    A    
C187  C188  S    
C83   H189  S    
C211  H93   S    
C266  C272  A    
N15   Ni8   S    
C251  C257  A    
C124  N60   A    
C100  C204  S    
C72   H182  S    
C193  H48   S    
C185  C186  S    
C38   C39   A    
N42   Ni6   S    
N57   Ni6   S    
C285  C296  A    
C7    C315  S    
C232  C233  S    
C238  H153  S    
C230  H140  S    
C274  H246  S    
N45   Ni4   S    
C78   C80   A    
C109  H198  S    
C165  C276  S    
C230  C231  S    
C139  H215  S    
C265  N73   A    
C251  C253  A    
C4    N38   A    
C251  H11   S    
C71   C72   A    
C268  C269  A    
C305  C306  A    
C103  C104  A    
C62   N104  A    
C77   C104  A    
C267  H14   S    
C194  H53   S    
C149  C157  A    
N29   Ni2   S    
N12   Ni9   S    
C57   C105  S    
C311  C312  A    
N52   Ni6   S    
C94   N50   A    
C222  H120  S    
C118  H204  S    
C170  N52   A    
C47   C194  S    
C60   N104  A    
C290  N81   A    
C75   C76   A    
C172  N54   A    
C189  H41   S    
C127  N22   A    
C293  N81   A    
C260  N67   A    
C34   N100  A    
C312  C313  A    
C198  H60   S    
C273  C279  A    
C244  C250  A    
N11   Ni8   S    
C85   H190  S    
C204  H77   S    
C210  C211  S    
C153  H224  S    
C286  C287  A    
C128  H210  S    
N20   N29   A    
N8    Ni10  S    
C9    H13   S    
C45   C51   A    
C84   C122  S    
C58   H178  S    
N11   N19   A    
C292  N80   A    
C135  N64   A    
C196  C197  S    
C161  C173  A    
C158  C165  A    
N34   Ni12  S    
C2    C13   A    
C273  C275  A    
C234  H148  S    
C241  H162  S    
C229  H133  S    
C36   N93   A    
C64   N3    A    
C303  C304  A    
C262  N70   A    
C205  H76   S    
C132  C133  A    
C233  H143  S    
C239  H161  S    
C64   N102  A    
C169  N49   A    
C217  H107  S    
C243  H166  S    
C98   C106  A    
C125  H219  S    
C206  H83   S    
C242  H165  S    
C278  H20   S    
C212  H4    S    
C164  C298  S    
C132  N29   A    
C25   H90   S    
C209  H87   S    
C285  H245  S    
C112  C173  A    
C192  H44   S    
C129  H211  S    
C53   C157  S    
N83   Ni10  S    
C101  N59   A    
C91   N6    A    
C13   C146  S    
C11   H24   S    
C53   N51   A    
C28   H135  S    
C5    N88   A    
C52   C54   A    
C242  C243  S    
C188  H37   S    
C149  C161  A    
C246  C248  A    
N53   N54   A    
N2    Ni1   S    
C23   C30   A    
C63   N104  A    
C203  H71   S    
C73   C91   S    
C225  H123  S    
C179  C235  A    
C277  O3    S    
C168  N65   A    
C204  H78   S    
C156  N43   A    
C124  N62   A    
C214  C215  S    
C8    C9    A    
C129  N24   A    
C190  H3    S    
N27   Ni3   S    
C281  C282  A    
C273  H19   S    
N41   Ni5   S    
C170  C180  A    
C188  C189  S    
C67   C69   A    
N21   Ni12  S    
C149  H248  S    
C60   N101  A    
C183  C184  A    
C233  H144  S    
C52   C59   A    
C187  O1    S    
C129  C136  A    
C47   C48   A    
C261  N69   A    
C12   C14   A    
C256  C257  A    
N35   Ni11  S    
C225  C226  S    
C142  N33   A    
N36   Ni3   S    
C23   H113  S    
C207  H80   S    
C204  C205  S    
C179  C230  S    
C71   H180  S    
C226  H126  S    
C187  H34   S    
C40   C178  S    
C31   N93   A    
C202  H73   S    
C304  C305  A    
C211  C213  S    
C114  H200  S    
C79   H250  S    
C279  C292  S    
C171  N53   A    
C292  N77   A    
C46   C57   A    
C43   H170  S    
C289  N76   A    
C121  C282  S    
C290  N79   A    
C89   C105  A    
C255  C256  A    
C140  C150  A    
C169  C178  A    
C141  C151  A    
C91   N28   A    
C233  C234  S    
C182  H243  S    
C116  N16   A    
C96   C106  A    
C302  C303  A    
C143  C152  A    
C100  C107  A    
C8    C14   A    
C75   H183  S    
C112  H239  S    
C197  H58   S    
C317  N84   A    
N87   Ni1   S    
C80   C81   A    
C247  C259  A    
C11   C12   A    
C190  C201  A    
C1    H206  S    
C196  H56   S    
C135  N62   A    
C223  O7    S    
N48   Ni4   S    
C159  C166  A    
C108  H197  S    
C101  N62   A    
C236  O2    S    
C7    N91   A    
C28   C30   A    
C221  H118  S    
N10   N18   A    
C41   N75   A    
C293  N82   A    
C61   N103  A    
C220  H115  S    
C29   N38   A    
C168  N66   A    
C179  C190  A    
C114  N13   A    
C160  H231  S    
C176  C178  A    
C170  H235  S    
C38   H168  S    
C17   N26   A    
C23   C25   A    
C6    N85   A    
C187  H36   S    
C172  H237  S    
C199  H67   S    
C88   N7    A    
C211  H94   S    
C266  C267  A    
N44   Ni5   S    
C114  C122  A    
C109  N11   A    
C32   N95   A    
C215  H99   S    
C131  H213  S    
C302  H207  S    
N17   N94   A    
C298  C299  A    
C154  O6    S    
C27   C28   A    
C115  C122  A    
C116  C121  A    
C220  H116  S    
C232  O11   S    
C237  C238  S    
C77   H175  S    
C4    N1    A    
C191  H43   S    
