data_mof_unit_10716.cif
_audit_creation_date              2012-12-10T17:54:20-0500
_audit_creation_method            fapswitch 2.2
_symmetry_space_group_name_H-M    P1
_symmetry_Int_Tables_number       1
_space_group_crystal_system       triclinic
_cell_length_a                    27.724846
_cell_length_b                    10.617224
_cell_length_c                    9.948968
_cell_angle_alpha                 89.546688
_cell_angle_beta                  89.618307
_cell_angle_gamma                 92.874682
_cell_volume                      2924.73729606

loop_
_atom_site_label
_atom_site_type_symbol
_atom_type_description
_atom_site_fract_x
_atom_site_fract_y
_atom_site_fract_z
_atom_type_partial_charge
C1    C     C_R   0.501204 0.260888 0.500433 0.904344
C2    C     C_R   0.277863 0.485543 0.625517 -0.121430
C3    C     C_R   0.252841 0.483097 0.504160 0.333501
C4    C     C_R   0.101700 0.485489 0.505001 -0.051866
C5    C     C_R   0.124786 0.370440 0.498477 -0.020583
C6    C     C_R   0.097185 0.257166 0.492447 -0.138778
C7    C     C_R   0.129818 0.599445 0.512024 -0.022795
C8    C     C_R   0.353372 0.493353 0.501649 -0.040597
C9    C     C_R   0.646517 0.498638 0.499076 -0.033346
C10   C     C_R   0.971887 0.373348 0.483961 0.045617
C11   C     C_R   0.976911 0.603511 0.521534 0.046964
C12   C     C_R   0.406129 0.498711 0.500419 0.902761
C13   C     C_R   0.949177 0.489059 0.502088 0.070612
C14   C     C_R   0.942637 0.263536 0.456856 -0.216061
C15   C     C_R   0.892719 0.266360 0.453612 -0.135595
C16   C     C_R   0.870065 0.378622 0.476670 -0.021810
C17   C     C_R   0.898109 0.490358 0.500751 -0.051749
C18   C     C_R   0.874957 0.603411 0.523536 -0.020278
C19   C     C_R   0.824512 0.602530 0.522157 0.503370
C20   C     C_R   0.819694 0.382085 0.475767 0.502768
C21   C     C_R   0.721914 0.503239 0.620344 -0.108366
C22   C     C_R   0.671879 0.505336 0.620771 -0.238403
C23   C     C_R   0.501437 0.739383 0.499493 0.860825
C24   C     C_R   0.671889 0.489610 0.377149 -0.207734
C25   C     C_R   0.721948 0.487229 0.377147 -0.105128
C26   C     C_R   0.746886 0.494167 0.498655 0.325853
C27   C     C_R   0.022846 0.371244 0.492212 0.047121
C28   C     C_R   0.050627 0.486629 0.504293 0.070411
C29   C     C_R   0.027962 0.603183 0.515479 0.046259
C30   C     C_R   0.047192 0.257246 0.489739 -0.215239
C31   C     C_R   0.107291 0.713813 0.517658 -0.135456
C32   C     C_R   0.952421 0.714639 0.547480 -0.216536
C33   C     C_R   0.902431 0.714368 0.548047 -0.139146
C34   C     C_R   0.593856 0.500190 0.499639 0.825786
C35   C     C_R   0.057360 0.715965 0.518963 -0.215040
C36   C     C_R   0.582314 0.140894 0.621872 -0.178638
C37   C     C_R   0.620468 0.079626 0.679733 -0.108080
C38   C     C_R   0.620687 0.948603 0.678449 -0.121657
C39   C     C_R   0.582768 0.878410 0.619216 -0.188812
C40   C     C_R   0.543506 0.939100 0.561359 0.098638
C41   C     C_R   0.543265 0.071069 0.562702 0.084586
C42   C     C_R   0.504332 0.128902 0.500844 -0.088996
C43   C     C_R   0.467673 0.060557 0.434808 -0.186551
C44   C     C_R   0.467912 0.931942 0.433553 -0.201138
C45   C     C_R   0.175273 0.371623 0.498891 0.502980
C46   C     C_R   0.504797 0.872156 0.498384 -0.094853
C47   C     C_R   0.435931 0.337296 0.147650 -0.219854
C48   C     C_R   0.402650 0.256758 0.085734 -0.308036
C49   C     C_R   0.400511 0.252386 0.946628 0.088355
C50   C     C_R   0.432967 0.330515 0.870566 0.548407
C51   C     C_R   0.467492 0.417803 0.930750 0.019497
C52   C     C_R   0.468068 0.419157 0.075065 0.114539
C53   C     C_R   0.530578 0.577291 0.069906 -0.099363
C54   C     C_R   0.530586 0.577274 0.927135 -0.110112
C55   C     C_R   0.180163 0.596245 0.511898 0.504612
C56   C     C_R   0.277703 0.484477 0.381576 -0.104816
C57   C     C_R   0.327864 0.489512 0.380095 -0.231812
C58   C     C_R   0.328017 0.490484 0.624495 -0.196125
H1    H     H_    0.346816 0.492517 0.719598 0.169863
H2    H     H_    0.258088 0.482824 0.287792 0.134767
H3    H     H_    0.128206 0.802735 0.520772 0.192320
H4    H     H_    0.970729 0.803518 0.570798 0.139742
H5    H     H_    0.653160 0.484107 0.282034 0.163177
H6    H     H_    0.885390 0.802000 0.568056 0.189346
H7    H     H_    0.741443 0.480458 0.283006 0.138166
H8    H     H_    0.043027 0.808337 0.519679 0.138490
H9    H     H_    0.438371 0.107030 0.386397 0.145974
H10   H     H_    0.584179 0.242744 0.622426 0.146936
H11   H     H_    0.650169 0.134066 0.724527 0.149793
H12   H     H_    0.258380 0.484583 0.720253 0.135570
H13   H     H_    0.650557 0.901223 0.722251 0.150293
H14   H     H_    0.584986 0.777037 0.617442 0.142617
H15   H     H_    0.438712 0.878572 0.384642 0.157000
H16   H     H_    0.555649 0.640675 0.122216 0.143048
H17   H     H_    0.435155 0.331889 0.253873 0.230620
H18   H     H_    0.378932 0.197583 0.148900 0.192823
H19   H     H_    0.555633 0.640615 0.872649 0.138595
H20   H     H_    0.114129 0.167427 0.489788 0.187675
H21   H     H_    0.653170 0.512387 0.716120 0.161059
H22   H     H_    0.741370 0.508534 0.714320 0.137889
H23   H     H_    0.871915 0.179666 0.432781 0.192932
H24   H     H_    0.957139 0.173790 0.434646 0.141153
H25   H     H_    0.028707 0.165636 0.488501 0.137482
H26   H     H_    0.346552 0.490842 0.284104 0.169189
N1    N     N_R   0.201565 0.483490 0.505288 -0.358985
N2    N     N_R   0.798208 0.492908 0.498544 -0.358016
N3    N     N_R   0.499540 0.498800 0.142780 -0.103511
N4    N     N_R   0.499520 0.498720 0.857170 -0.097714
O1    O     O_R   0.500000 0.316780 0.614690 -0.540105
O2    O     O_2   0.792304 0.275682 0.453389 -0.554596
O3    O     O_2   0.207640 0.704669 0.518039 -0.551563
O4    O     O_2   0.801812 0.710232 0.543477 -0.556455
O5    O     O_R   0.500000 0.316750 0.385360 -0.645692
O6    O     O_R   0.428760 0.500030 0.614650 -0.545361
O7    O     O_R   0.428750 0.500010 0.385320 -0.655706
O8    O     O_R   0.500000 0.683250 0.614640 -0.621499
O9    O     O_R   0.500000 0.683220 0.385310 -0.612037
O10   O     O_R   0.571250 0.499990 0.614680 -0.643294
O11   O     O_R   0.571240 0.499970 0.385350 -0.617634
O12   O     O_2   0.198010 0.262295 0.492857 -0.554198
Zn1   Zn    Zn3+2 0.500000 0.500020 0.653130 0.991968
Zn2   Zn    Zn3+2 0.500000 0.499980 0.346870 0.947440
C59   C     C_3   0.364481 0.164857 0.873082 -0.305517
C60   C     C_3   0.329729 0.083895 0.961839 -0.884817
H27   H     H_    0.350012 0.019368 0.026341 0.262530
H28   H     H_    0.307410 0.144551 0.025024 0.266384
H29   H     H_    0.305111 0.025576 0.897148 0.268183
H30   H     H_    0.342452 0.222913 0.805871 0.227149
H31   H     H_    0.384851 0.100473 0.808779 0.233619
F1    F     F_    0.428912 0.313859 0.738589 -0.670118

loop_
_geom_bond_atom_site_label_1
_geom_bond_atom_site_label_2
_ccdc_geom_bond_type
C10   C27   A    
C21   C26   A    
C37   H11   S    
C3    N1    S    
C41   C42   A    
C48   H18   S    
C53   H16   S    
C7    C55   A    
C19   N2    A    
C60   H28   S    
N4    Zn1   S    
C15   H23   S    
C53   C54   A    
C23   O8    A    
C40   C46   A    
C36   C37   A    
C22   H21   S    
C5    C6    A    
C9    C22   A    
C6    H20   S    
C15   C16   A    
C50   F1    S    
C56   C57   A    
C18   C19   A    
C30   H25   S    
C31   H3    S    
C55   O3    S    
C19   O4    S    
C8    C58   A    
O6    Zn1   S    
C16   C17   A    
C20   N2    A    
C39   H14   S    
C12   O7    A    
C59   H30   S    
C8    C12   S    
O9    Zn2   S    
O7    Zn2   S    
C16   C20   A    
C54   H19   S    
O1    Zn1   S    
C23   C46   S    
C21   C22   A    
C27   C30   A    
C12   O6    A    
C36   C41   A    
C4    C7    A    
C60   H27   S    
C4    C28   A    
C44   C46   A    
C17   C18   A    
C7    C31   A    
C51   C52   A    
C25   H7    S    
C24   C25   A    
C10   C14   A    
C39   C40   A    
C35   H8    S    
C50   C51   A    
C58   H1    S    
C20   O2    S    
C45   O12   S    
C56   H2    S    
C55   N1    A    
C45   N1    A    
C43   C44   A    
C37   C38   A    
C8    C57   A    
N3    Zn2   S    
C3    C56   A    
C47   C48   A    
C26   N2    S    
C36   H10   S    
C34   O11   A    
C57   H26   S    
C53   N3    A    
C43   H9    S    
C40   C41   A    
C23   O9    A    
C11   C32   A    
C24   H5    S    
C9    C34   S    
C31   C35   A    
C42   C43   A    
C14   H24   S    
C59   C60   S    
C51   N4    A    
C38   H13   S    
C28   C29   A    
C1    O1    A    
C6    C30   A    
C52   N3    A    
C4    C5    A    
C10   C13   A    
O5    Zn2   S    
C49   C59   S    
C2    C58   A    
C9    C24   A    
C47   C52   A    
O10   Zn1   S    
C29   C35   A    
C13   C17   A    
C59   H31   S    
C32   C33   A    
C2    C3    A    
C25   C26   A    
C47   H17   S    
C2    H12   S    
C54   N4    A    
C11   C13   A    
C38   C39   A    
C5    C45   A    
C33   H6    S    
C48   C49   A    
C21   H22   S    
C34   O10   A    
C44   H15   S    
C18   C33   A    
C32   H4    S    
C1    C42   S    
O11   Zn2   S    
C11   C29   A    
C1    O5    A    
C49   C50   A    
C27   C28   A    
C14   C15   A    
O8    Zn1   S    
C60   H29   S    
