data_mof_unit_41945.cif
_audit_creation_date              2012-12-10T17:36:44-0500
_audit_creation_method            fapswitch 2.2
_symmetry_space_group_name_H-M    P1
_symmetry_Int_Tables_number       1
_space_group_crystal_system       triclinic
_cell_length_a                    12.133817
_cell_length_b                    12.75565
_cell_length_c                    15.701539
_cell_angle_alpha                 92.046753
_cell_angle_beta                  88.632596
_cell_angle_gamma                 95.384577
_cell_volume                      2417.42002611

loop_
_atom_site_label
_atom_site_type_symbol
_atom_type_description
_atom_site_fract_x
_atom_site_fract_y
_atom_site_fract_z
_atom_type_partial_charge
C1    C     C_R   0.523557 0.699986 0.496213 0.896607
C2    C     C_R   0.523434 0.023045 0.462370 0.075731
C3    C     C_R   0.943983 0.404541 0.415936 -0.347685
C4    C     C_R   0.056011 0.595277 0.584124 -0.348715
C5    C     C_R   0.831022 0.414021 0.424536 0.002119
C6    C     C_R   0.168938 0.585717 0.575632 0.000533
C7    C     C_R   0.863135 0.539790 0.539291 0.179073
C8    C     C_R   0.136969 0.460429 0.460440 0.180562
C9    C     C_R   0.979569 0.534257 0.531374 0.065707
C10   C     C_R   0.020495 0.465758 0.468509 0.064750
C11   C     C_R   0.502138 0.500571 0.661604 0.892739
C12   C     C_R   0.476451 0.300013 0.503729 0.896371
C13   C     C_R   0.497867 0.499553 0.338476 0.892680
C14   C     C_3   0.426006 0.563440 0.030087 0.145398
C15   C     C_3   0.574041 0.434414 0.970581 0.160017
C16   C     C_3   0.530206 0.597915 0.976373 0.167619
C17   C     C_3   0.469483 0.400467 0.024567 0.171611
C18   C     C_1   0.506473 0.501359 0.750362 -0.199241
C19   C     C_1   0.493414 0.498656 0.249862 -0.197689
C20   C     C_3   0.399382 0.466322 0.969914 0.051385
C21   C     C_3   0.600758 0.531794 0.030609 0.048511
C22   C     C_3   0.503889 0.500837 0.916630 0.046924
C23   C     C_R   0.578365 0.962697 0.399473 0.226394
C24   C     C_3   0.495755 0.497579 0.083710 0.033833
C25   C     C_1   0.507259 0.501852 0.825658 -0.028731
C26   C     C_1   0.492439 0.497691 0.174646 -0.031368
C27   C     C_R   0.459954 0.188056 0.511800 -0.106718
C28   C     C_R   0.540133 0.811951 0.488145 -0.107181
C29   C     C_3   0.559988 0.709825 0.947460 -0.919720
C30   C     C_3   0.438313 0.289688 0.055600 -0.925430
C31   C     C_3   0.342573 0.635999 0.066467 -0.914710
C32   C     C_3   0.654696 0.359522 0.933533 -0.914781
C33   C     C_3   0.710280 0.566576 0.074789 -0.382853
C34   C     C_R   0.422183 0.037425 0.600648 0.227053
C35   C     C_3   0.805352 0.597580 0.012146 -0.345386
C36   C     C_3   0.912833 0.628576 0.059098 -0.889794
C37   C     C_3   0.283185 0.436437 0.935353 -0.392843
C38   C     C_3   0.276068 0.334678 0.879948 -0.334537
C39   C     C_3   0.164930 0.317101 0.835691 -0.884728
C40   C     C_3   0.333557 0.207208 0.641189 -0.879579
C41   C     C_3   0.667018 0.792851 0.358976 -0.879988
C42   C     C_3   0.610177 0.007575 0.312917 -0.947535
C43   C     C_3   0.390668 0.992785 0.687338 -0.950059
C44   C     C_3   0.181984 0.390168 0.390491 -0.396521
C45   C     C_R   0.595014 0.857608 0.416512 0.163531
C46   C     C_3   0.178150 0.439001 0.302404 -0.339384
C47   C     C_3   0.217808 0.365019 0.232033 -0.894737
C48   C     C_3   0.818124 0.610280 0.608896 -0.396571
C49   C     C_3   0.820875 0.561214 0.696823 -0.334962
C50   C     C_3   0.777817 0.634063 0.766460 -0.905690
C51   C     C_R   0.405363 0.142445 0.583542 0.162154
C52   C     C_R   0.482984 0.870428 0.547199 -0.317102
C53   C     C_R   0.517168 0.129610 0.452769 -0.316978
C54   C     C_R   0.477004 0.977045 0.537713 0.076165
H1    H     H_    0.560201 0.170237 0.400500 0.170034
H2    H     H_    0.438519 0.231955 0.001117 0.239688
H3    H     H_    0.499498 0.269996 0.102529 0.247339
H4    H     H_    0.354778 0.285214 0.086192 0.245843
H5    H     H_    0.303287 0.673332 0.013662 0.240972
H6    H     H_    0.277779 0.589875 0.104216 0.240281
H7    H     H_    0.385338 0.698172 0.108302 0.252795
H8    H     H_    0.701343 0.328893 0.985723 0.246073
H9    H     H_    0.608169 0.292684 0.898966 0.246787
H10   H     H_    0.713190 0.401178 0.887993 0.235321
H11   H     H_    0.903052 0.696940 0.103574 0.263863
H12   H     H_    0.439721 0.829792 0.599365 0.170379
H13   H     H_    0.936531 0.561391 0.095583 0.260767
H14   H     H_    0.980296 0.650856 0.012301 0.249749
H15   H     H_    0.818738 0.530526 0.967459 0.228566
H16   H     H_    0.785402 0.665506 0.975143 0.230800
H17   H     H_    0.697222 0.634734 0.118775 0.203248
H18   H     H_    0.732538 0.500593 0.113391 0.203836
H19   H     H_    0.095824 0.314314 0.883502 0.261154
H20   H     H_    0.155993 0.381493 0.791250 0.266735
H21   H     H_    0.159994 0.241123 0.798640 0.249574
H22   H     H_    0.343237 0.337973 0.830648 0.230779
H23   H     H_    0.226251 0.631893 0.617050 0.140940
H24   H     H_    0.284887 0.266450 0.920282 0.226186
H25   H     H_    0.223681 0.426672 0.990025 0.199084
H26   H     H_    0.260312 0.502730 0.897377 0.207820
H27   H     H_    0.281394 0.159674 0.687000 0.236963
H28   H     H_    0.386053 0.269359 0.676496 0.232202
H29   H     H_    0.273276 0.244166 0.602636 0.257714
H30   H     H_    0.719859 0.840356 0.313511 0.236810
H31   H     H_    0.726814 0.755529 0.397728 0.256239
H32   H     H_    0.614621 0.730994 0.323242 0.232769
H33   H     H_    0.613223 0.945773 0.261766 0.249712
H34   H     H_    0.773668 0.367643 0.383279 0.140287
H35   H     H_    0.545894 0.056350 0.291106 0.234775
H36   H     H_    0.691132 0.055730 0.316427 0.241739
H37   H     H_    0.389191 0.054792 0.738485 0.248931
H38   H     H_    0.308995 0.945806 0.684351 0.242203
H39   H     H_    0.454278 0.943017 0.708768 0.235069
H40   H     H_    0.302432 0.344136 0.245059 0.269647
H41   H     H_    0.160763 0.291754 0.227653 0.256823
H42   H     H_    0.219492 0.404223 0.169931 0.249304
H43   H     H_    0.092960 0.456658 0.287816 0.214131
H44   H     H_    0.231037 0.514860 0.301536 0.249026
H45   H     H_    0.968961 0.349131 0.367367 0.160190
H46   H     H_    0.266596 0.373918 0.402456 0.261215
H47   H     H_    0.136088 0.310685 0.390675 0.168642
H48   H     H_    0.835896 0.706194 0.774506 0.258135
H49   H     H_    0.694993 0.657065 0.750399 0.268355
H50   H     H_    0.770439 0.592520 0.827389 0.247568
H51   H     H_    0.769378 0.484529 0.696756 0.247940
H52   H     H_    0.906118 0.545079 0.712723 0.213493
H53   H     H_    0.864240 0.689672 0.609003 0.169171
H54   H     H_    0.733678 0.626552 0.596534 0.261987
H55   H     H_    0.031008 0.650578 0.632764 0.159920
H56   H     H_    0.580975 0.762594 0.003601 0.246888
H57   H     H_    0.631562 0.712024 0.902280 0.238881
H58   H     H_    0.488473 0.737581 0.914904 0.247267
N1    N     N_R   0.207800 0.519340 0.515560 -0.114991
N2    N     N_R   0.792200 0.480660 0.484440 -0.115248
O1    O     O_R   0.421700 0.658830 0.504150 -0.612004
O2    O     O_R   0.578300 0.341170 0.495850 -0.612289
O3    O     O_R   0.609310 0.646410 0.494170 -0.645504
O4    O     O_R   0.390690 0.353590 0.505830 -0.644709
O5    O     O_R   0.406210 0.506220 0.628210 -0.615391
O6    O     O_R   0.593790 0.493780 0.371790 -0.617784
O7    O     O_R   0.593830 0.493800 0.618230 -0.626152
O8    O     O_R   0.406170 0.506200 0.381770 -0.626390
Zn1   Zn    Zn3+2 0.374730 0.508290 0.506660 0.921341
Zn2   Zn    Zn3+2 0.625270 0.491710 0.493340 0.920264

loop_
_geom_bond_atom_site_label_1
_geom_bond_atom_site_label_2
_ccdc_geom_bond_type
C4    H55   S    
C11   C18   S    
C50   H50   S    
C16   C21   S    
C23   C45   A    
C5    N2    A    
C28   C52   A    
C31   H7    S    
C29   H58   S    
C35   C36   S    
C14   C31   S    
C11   O5    A    
C36   H13   S    
C15   C32   S    
C38   H22   S    
C41   H32   S    
C37   H25   S    
C34   C51   A    
C23   C42   S    
C7    N2    A    
O3    Zn2   S    
C24   C26   S    
C38   C39   S    
C48   H53   S    
C21   C33   S    
C14   C24   S    
C30   H3    S    
C47   H41   S    
C17   C20   S    
C15   C17   S    
C39   H20   S    
C31   H5    S    
C19   C26   T    
O7    Zn2   S    
C33   H18   S    
C33   C35   S    
C5    H34   S    
C15   C22   S    
C35   H16   S    
C44   C46   S    
C22   C25   S    
C1    C28   S    
C47   H42   S    
C27   C51   A    
C39   H21   S    
C9    C10   A    
N2    Zn2   S    
C46   H44   S    
C50   H49   S    
C13   O8    A    
C17   C30   S    
C40   H29   S    
C11   O7    A    
C18   C25   T    
C52   C54   A    
C53   H1    S    
C37   H26   S    
C28   C45   A    
C17   C24   S    
O1    Zn1   S    
C13   C19   S    
C12   C27   S    
C40   H28   S    
C29   H56   S    
C32   H10   S    
C4    C6    A    
C2    C54   A    
C36   H11   S    
C6    H23   S    
C49   H51   S    
C38   H24   S    
C16   C29   S    
C41   H30   S    
C30   H2    S    
C43   H37   S    
C42   H36   S    
C31   H6    S    
C6    N1    A    
C37   C38   S    
C14   C20   S    
N1    Zn1   S    
C36   H14   S    
C1    O3    A    
C8    N1    A    
C12   O4    A    
C48   C49   S    
C46   H43   S    
C20   C22   S    
C50   H48   S    
C14   C16   S    
C13   O6    A    
C52   H12   S    
C7    C9    A    
C46   C47   S    
C16   C22   S    
O2    Zn2   S    
C40   H27   S    
C29   H57   S    
C34   C43   S    
C8    C44   S    
C32   H9    S    
C3    C5    A    
C2    C53   A    
C44   H47   S    
C27   C53   A    
C34   C54   A    
C49   H52   S    
O5    Zn1   S    
C40   C51   S    
C41   H31   S    
C43   H38   S    
C42   H35   S    
C7    C48   S    
C4    C9    A    
C32   H8    S    
C3    C10   A    
C20   C37   S    
C44   H46   S    
C48   H54   S    
C30   H4    S    
C43   H39   S    
C47   H40   S    
O4    Zn1   S    
C39   H19   S    
C33   H17   S    
C3    H45   S    
C15   C21   S    
C35   H15   S    
C8    C10   A    
C49   C50   S    
C21   C24   S    
C2    C23   A    
C41   C45   S    
C42   H33   S    
C1    O1    A    
O8    Zn1   S    
O6    Zn2   S    
C12   O2    A    
