data_mof_unit_34454.cif
_audit_creation_date              2012-10-26T20:03:01-0400
_audit_creation_method            fapswitch 2.2
_symmetry_space_group_name_H-M    P1
_symmetry_Int_Tables_number       1
_space_group_crystal_system       triclinic
_cell_length_a                    10.93194
_cell_length_b                    12.419477
_cell_length_c                    13.237737
_cell_angle_alpha                 116.863934
_cell_angle_beta                  75.754531
_cell_angle_gamma                 101.833434
_cell_volume                      1544.82927539

loop_
_atom_site_label
_atom_site_type_symbol
_atom_type_description
_atom_site_fract_x
_atom_site_fract_y
_atom_site_fract_z
_atom_type_partial_charge
C1    C     C_R   0.514648 0.854225 0.285109 0.578876
C2    C     C_R   0.558049 0.560526 0.012298 -0.033799
C3    C     C_R   0.502958 0.641050 0.123254 -0.076037
C4    C     C_R   0.739008 0.002952 0.502930 0.660761
C5    C     C_R   0.528668 0.433768 0.980351 -0.054218
C6    C     C_R   0.481591 0.390448 0.066186 0.021527
C7    C     C_R   0.421147 0.469216 0.173952 0.301382
C8    C     C_R   0.416946 0.589417 0.193547 0.266423
C9    C     C_R   0.528452 0.350386 0.865680 -0.157624
C10   C     C_R   0.491692 0.183006 0.919968 0.316059
C11   C     C_R   0.530511 0.769464 0.159214 -0.040312
C12   C     C_3   0.119477 0.997710 0.499986 -0.016747
C13   C     C_R   0.712385 0.352040 0.330563 0.305239
C14   C     C_R   0.325960 0.753151 0.646785 0.400327
C15   C     C_R   0.269040 0.643696 0.651786 0.309990
C16   C     C_R   0.492335 0.144328 0.713157 0.577054
C17   C     C_R   0.323891 0.537270 0.578276 0.268152
C18   C     C_R   0.448279 0.543401 0.516123 -0.051957
C19   C     C_R   0.490727 0.651285 0.498285 0.053012
C20   C     C_R   0.526678 0.444155 0.464420 -0.024840
C21   C     C_R   0.632948 0.445995 0.379053 -0.067344
C22   C     C_R   0.657039 0.541979 0.345014 0.219419
C23   C     C_3   0.037240 0.024283 0.624023 0.013144
C24   C     C_R   0.594418 0.645678 0.410133 0.012219
C25   C     C_R   0.505989 0.346451 0.498657 0.360382
C26   C     C_R   0.677575 0.250601 0.354846 0.447875
C27   C     C_R   0.259376 0.999399 0.500201 0.632625
C28   C     C_3   0.964874 0.100285 0.457090 0.401535
C29   C     C_3   0.106565 0.103061 0.467323 0.403612
C30   C     C_3   0.897418 0.044810 0.630673 0.313919
C31   C     C_3   0.917601 0.872807 0.420027 0.403152
C32   C     C_3   0.876839 0.005705 0.503397 0.015006
C33   C     C_3   0.065269 0.871877 0.408197 0.401680
C34   C     C_R   0.480154 0.265414 0.036051 0.327305
C35   C     C_R   0.502344 0.225292 0.834751 -0.027945
C36   C     C_R   0.588655 0.812858 0.074275 0.223165
C37   C     C_R   0.643230 0.732552 0.964656 0.344962
C38   C     C_R   0.638166 0.609312 0.937074 0.247419
Cl1   Cl    Cl    0.916151 0.253925 0.530656 -0.399542
Cl2   Cl    Cl    0.122810 0.636511 0.743428 -0.268341
Cl3   Cl    Cl    0.874136 0.820054 0.280240 -0.390032
Cl4   Cl    Cl    0.093770 0.740907 0.423188 -0.428019
Cl5   Cl    Cl    0.777756 0.970103 0.707586 -0.354993
Cl6   Cl    Cl    0.040002 0.915890 0.677403 -0.340998
Cl7   Cl    Cl    0.499167 0.029990 0.887184 -0.284925
Cl8   Cl    Cl    0.595319 0.966728 0.100793 -0.344223
Cl9   Cl    Cl    0.729229 0.786932 0.862221 -0.225908
Cl10  Cl    Cl    0.754606 0.533013 0.213938 -0.479302
Cl11  Cl    Cl    0.266241 0.886719 0.754007 -0.315383
Cu1   Cu    Cu3+1 0.529690 0.098270 0.475420 1.112219
Cu2   Cu    Cu3+1 0.470310 0.901730 0.524580 1.159784
H1    H     H_    0.540897 0.383840 0.800849 0.227168
H2    H     H_    0.872652 0.440761 0.302459 0.389148
H3    H     H_    0.383534 0.283722 0.595833 0.393207
H4    H     H_    0.277633 0.371209 0.478293 0.352853
H5    H     H_    0.198439 0.164260 0.352941 0.370438
H6    H     H_    0.091850 0.240157 0.623952 0.378889
H7    H     H_    0.893899 0.191096 0.775952 0.380668
H8    H     H_    0.873093 0.796296 0.529131 0.405945
H9    H     H_    0.112763 0.774004 0.241961 0.394072
H10   H     H_    0.628137 0.718898 0.386119 0.235204
H11   H     H_    0.083408 0.107196 0.687301 0.152286
H12   H     H_    0.318978 0.489744 0.323728 0.371524
H13   H     H_    0.504577 0.285049 0.183547 0.349306
H14   H     H_    0.744760 0.478514 0.852832 0.367871
H15   H     H_    0.993469 0.127292 0.317042 0.401128
H16   H     H_    0.300240 0.708681 0.248215 0.356941
H17   H     H_    0.720017 0.089125 0.308482 0.393614
N1    N     N_R   0.574690 0.246280 0.438200 -0.292098
N2    N     N_R   0.426100 0.754320 0.561190 -0.262723
O1    O     O_R   0.537340 0.972510 0.318130 -0.485256
O2    O     O_3   0.467642 0.220923 0.117069 -0.547545
O3    O     O_3   0.717302 0.541185 0.838916 -0.583762
O4    O     O_3   0.956208 0.060597 0.340801 -0.571144
O5    O     O_3   0.316099 0.647352 0.270558 -0.613380
O6    O     O_3   0.758489 0.161633 0.297157 -0.554293
O7    O     O_3   0.829430 0.358279 0.263206 -0.534818
O8    O     O_3   0.427835 0.362791 0.601982 -0.624567
O9    O     O_3   0.247318 0.429706 0.557904 -0.547898
O10   O     O_3   0.185929 0.086621 0.360608 -0.535275
O11   O     O_3   0.151452 0.215921 0.550118 -0.654258
O12   O     O_R   0.487200 0.806530 0.359650 -0.517033
O13   O     O_3   0.881761 0.168667 0.696629 -0.661091
O14   O     O_3   0.845944 0.786857 0.459732 -0.615772
O15   O     O_3   0.129546 0.859518 0.297762 -0.581465
O16   O     O_R   0.707380 0.082980 0.479220 -0.472315
O17   O     O_R   0.657240 0.917000 0.520740 -0.470191
O18   O     O_R   0.512800 0.193470 0.640350 -0.525031
O19   O     O_R   0.462660 0.027490 0.681870 -0.420720
O20   O     O_R   0.342760 0.083000 0.479260 -0.479700
O21   O     O_R   0.292620 0.917020 0.520780 -0.420558
O22   O     O_3   0.347670 0.422350 0.249207 -0.665104

loop_
_geom_bond_atom_site_label_1
_geom_bond_atom_site_label_2
_ccdc_geom_bond_type
C22   Cl10  S    
C24   H10   S    
C12   C29   S    
C1    C11   S    
C28   O4    S    
C7    C8    A    
C4    O17   A    
C29   O11   S    
C12   C23   S    
C1    O1    A    
C33   Cl4   S    
C36   C37   A    
Cu1   N1    S    
C16   C35   S    
C5    C6    A    
C14   Cl11  S    
C4    O16   A    
C20   C25   A    
H15   O4    S    
C17   O9    S    
H14   O3    S    
C27   O20   A    
C18   C19   A    
C30   O13   S    
C33   O15   S    
Cu2   O21   S    
Cu1   O20   S    
C23   H11   S    
H12   O22   S    
C26   O6    S    
C31   C33   S    
C27   O21   A    
C10   C35   A    
Cu2   N2    S    
C37   Cl9   S    
C18   C20   A    
Cu1   O18   S    
C16   O19   A    
C21   C22   A    
C14   N2    A    
C9    H1    S    
Cu1   Cu2   S    
C13   O7    S    
C12   C27   S    
C25   O8    S    
C23   C30   S    
C28   C32   S    
H8    O14   S    
C3    C8    A    
Cu2   O17   S    
Cu1   O16   S    
C28   Cl1   S    
C1    O12   A    
C8    O5    S    
C23   Cl6   S    
C6    C34   A    
C11   C36   A    
H2    O7    S    
Cu1   O1    S    
C5    C9    A    
C37   C38   A    
H4    O9    S    
C2    C38   A    
C31   C32   S    
C10   Cl7   S    
C17   C18   A    
C13   C21   A    
C10   C34   A    
C36   Cl8   S    
Cu2   O12   S    
C4    C32   S    
C22   C24   A    
C30   Cl5   S    
C2    C5    A    
C25   N1    A    
C34   O2    S    
C9    C35   A    
C15   C17   A    
C28   C29   S    
C31   Cl3   S    
H9    O15   S    
C6    C7    A    
H17   O6    S    
H5    O10   S    
C2    C3    A    
H7    O13   S    
Cu2   O19   S    
C30   C32   S    
C29   O10   S    
C7    O22   S    
C19   C24   A    
H6    O11   S    
H13   O2    S    
C13   C26   A    
C15   Cl2   S    
C3    C11   A    
C31   O14   S    
H16   O5    S    
C20   C21   A    
C16   O18   A    
C26   N1    A    
C14   C15   A    
C19   N2    A    
C12   C33   S    
H3    O8    S    
C38   O3    S    
