data_mof_unit_17189.cif
_audit_creation_date              2012-12-11T14:43:35-0500
_audit_creation_method            fapswitch 2.2
_symmetry_space_group_name_H-M    P1
_symmetry_Int_Tables_number       1
_space_group_crystal_system       triclinic
_cell_length_a                    20.855709
_cell_length_b                    7.100371
_cell_length_c                    16.371039
_cell_angle_alpha                 91.03634
_cell_angle_beta                  92.331551
_cell_angle_gamma                 89.936971
_cell_volume                      2421.87367498

loop_
_atom_site_label
_atom_site_type_symbol
_atom_type_description
_atom_site_fract_x
_atom_site_fract_y
_atom_site_fract_z
_atom_type_partial_charge
O1    O     O_R   0.564840 0.505290 0.579830 -0.533469
O2    O     O_R   0.435160 0.005290 0.420170 -0.543261
O3    O     O_R   0.556720 0.179930 0.409350 -0.538276
O4    O     O_R   0.443280 0.679930 0.590650 -0.536587
C1    C     C_R   0.570427 0.343016 0.380874 0.707817
C2    C     C_R   0.429717 0.846504 0.619136 0.712256
O5    O     O_R   0.572280 0.175810 0.578530 -0.542278
O6    O     O_R   0.427720 0.675810 0.421470 -0.535761
O7    O     O_R   0.450830 0.001920 0.590540 -0.534816
O8    O     O_R   0.549170 0.501920 0.409460 -0.535507
C3    C     C_R   0.590600 0.345715 0.603640 0.688286
C4    C     C_R   0.409144 0.843220 0.396651 0.686529
O9    O     O_3   0.460130 0.338030 0.503750 -0.372572
O10   O     O_3   0.539870 0.838030 0.496250 -0.370705
V1    V     V_3+5 0.507400 0.064560 0.499310 1.422914
V2    V     V_3+5 0.492600 0.564560 0.500690 1.438167
C5    C     C_R   0.141729 0.920851 0.170190 -0.193958
C6    C     C_R   0.860076 0.406538 0.827970 -0.172100
C7    C     C_R   0.353980 0.846003 0.336350 -0.104785
C8    C     C_R   0.644835 0.362345 0.664965 -0.105324
C9    C     C_R   0.304998 0.716424 0.211113 -0.087124
C10   C     C_R   0.684063 0.492786 0.795069 -0.083622
C11   C     C_R   0.355977 0.725955 0.268204 -0.207028
C12   C     C_R   0.634319 0.460379 0.737656 -0.209036
C13   C     C_R   0.298268 0.956013 0.348706 0.185590
C14   C     C_R   0.707452 0.297468 0.648769 0.187893
C15   C     C_R   0.244197 0.943154 0.291605 -0.020482
C16   C     C_R   0.759975 0.334252 0.706605 -0.013162
C17   C     C_R   0.248902 0.823700 0.220857 0.015841
C18   C     C_R   0.747088 0.432062 0.781243 0.013596
C19   C     C_R   0.197846 0.813032 0.160759 0.178926
C20   C     C_R   0.796963 0.467274 0.841253 0.173081
C21   C     C_R   0.135448 0.031953 0.241866 0.093380
C22   C     C_R   0.874508 0.323542 0.751634 0.090973
C23   C     C_R   0.185516 0.043173 0.302105 0.363087
C24   C     C_R   0.824923 0.281787 0.692645 0.338379
H1    H     H_    0.310439 0.622014 0.159399 0.175485
H2    H     H_    0.672067 0.568221 0.850251 0.179032
H3    H     H_    0.397940 0.639380 0.258581 0.127454
H4    H     H_    0.586808 0.512782 0.750182 0.126599
C25   C     C_R   0.380723 0.940030 0.835211 0.216777
C26   C     C_R   0.624161 0.254140 0.166667 0.213408
H5    H     H_    0.469847 0.917367 0.773232 0.108205
H6    H     H_    0.534857 0.242124 0.228331 0.107586
H7    H     H_    0.297026 0.005193 0.953325 0.173403
H8    H     H_    0.710214 0.219067 0.049309 0.177564
C27   C     C_R   0.389302 0.863217 0.690744 -0.081524
C28   C     C_R   0.611145 0.342782 0.309223 -0.080029
C29   C     C_R   0.077488 0.851264 0.731367 0.115187
C30   C     C_R   0.919296 0.484085 0.267524 0.104764
C31   C     C_R   0.113330 0.828073 0.661639 0.389890
C32   C     C_R   0.882378 0.500110 0.337056 0.314881
C33   C     C_R   0.179971 0.842911 0.666577 -0.243545
C34   C     C_R   0.817094 0.457805 0.332335 -0.198780
C35   C     C_R   0.213546 0.882474 0.741623 0.036089
C36   C     C_R   0.786066 0.396587 0.258264 0.037314
C37   C     C_R   0.176740 0.915997 0.812279 0.036568
C38   C     C_R   0.824309 0.372692 0.188224 0.006858
C39   C     C_R   0.282438 0.888621 0.748752 0.069004
C40   C     C_R   0.718271 0.359461 0.251487 0.066036
C41   C     C_R   0.312890 0.932307 0.826301 0.104337
C42   C     C_R   0.690676 0.294093 0.175093 0.104073
C43   C     C_R   0.275246 0.969584 0.893890 -0.133008
C44   C     C_R   0.729866 0.268442 0.108074 -0.118056
C45   C     C_R   0.208758 0.961351 0.887081 -0.119341
C46   C     C_R   0.795143 0.306617 0.114520 -0.127528
C47   C     C_R   0.322273 0.852677 0.681635 -0.204112
C48   C     C_R   0.676819 0.384512 0.317870 -0.207969
C49   C     C_R   0.418005 0.907511 0.767016 -0.197019
C50   C     C_R   0.585391 0.277786 0.234040 -0.199602
C51   C     C_R   0.108597 0.899626 0.807107 -0.186022
C52   C     C_R   0.890839 0.418933 0.192857 -0.124239
H9    H     H_    0.303028 0.819578 0.621048 0.110647
H10   H     H_    0.694002 0.431878 0.377649 0.108207
H11   H     H_    0.203917 0.821515 0.610170 0.164515
H12   H     H_    0.792103 0.474803 0.388209 0.163320
H13   H     H_    0.182574 0.990504 0.941632 0.141854
H14   H     H_    0.822662 0.283966 0.060573 0.142225
O11   O     O_R   0.950790 0.256670 0.090520 -0.549152
O12   O     O_R   0.049210 0.756670 0.909480 -0.532957
O13   O     O_R   0.927720 0.590370 0.921470 -0.522061
O14   O     O_R   0.072280 0.090370 0.078530 -0.547519
C53   C     C_R   0.910520 0.420561 0.894819 0.748711
C54   C     C_R   0.089645 0.922921 0.105118 0.762470
O15   O     O_R   0.943270 0.586180 0.090640 -0.524136
O16   O     O_R   0.056730 0.086180 0.909360 -0.541817
O17   O     O_R   0.064850 0.759970 0.079840 -0.507220
O18   O     O_R   0.935150 0.259970 0.920160 -0.541195
C55   C     C_R   0.930390 0.419372 0.119359 0.761872
C56   C     C_R   0.069388 0.915995 0.880597 0.705905
O19   O     O_3   0.039850 0.428050 0.996240 -0.360255
O20   O     O_3   0.960150 0.928050 0.003760 -0.369887
V3    V     V_3+5 0.992610 0.701540 0.000700 1.540686
V4    V     V_3+5 0.007390 0.201540 0.999300 1.478735
Br1   Br    Br    0.205200 0.657310 0.063070 -0.591198
Br2   Br    Br    0.779789 0.598585 0.942841 -0.600815
N1    N     N_3   0.009365 0.822704 0.724324 -0.566933
H15   H     H_    0.986566 0.942452 0.747039 0.264396
H16   H     H_    0.997669 0.708582 0.760303 0.220547
N2    N     N_3   0.985917 0.535155 0.271841 -0.654999
H17   H     H_    0.009409 0.453854 0.316466 0.303526
H18   H     H_    0.989627 0.676808 0.289945 0.266300
Br3   Br    Br    0.072045 0.770177 0.557449 -0.317646
Br4   Br    Br    0.919490 0.584322 0.440489 -0.364719
N3    N     N_3   0.076932 0.132247 0.255958 -0.584503
H19   H     H_    0.071603 0.240134 0.213706 0.260559
H20   H     H_    0.038152 0.039352 0.248767 0.230186
N4    N     N_3   0.939890 0.284449 0.730859 -0.604279
H21   H     H_    0.950860 0.372918 0.682995 0.292706
H22   H     H_    0.973283 0.318128 0.777916 0.206530
Br5   Br    Br    0.167270 0.196852 0.397530 -0.386458
Br6   Br    Br    0.851926 0.151051 0.594736 -0.364051
N5    N     N_3   0.296741 0.077171 0.419554 -0.599235
H23   H     H_    0.331658 0.181602 0.415456 0.250742
H24   H     H_    0.306443 0.998060 0.471899 0.220813
N6    N     N_3   0.717291 0.200823 0.572719 -0.596112
H25   H     H_    0.702042 0.287121 0.524611 0.212973
H26   H     H_    0.690047 0.077266 0.570348 0.247909
N7    N     N_3   0.411597 0.983281 0.913499 -0.672257
H27   H     H_    0.406135 0.866052 0.950327 0.231822
H28   H     H_    0.460962 0.001678 0.907938 0.235098
N8    N     N_3   0.596285 0.186374 0.089847 -0.668200
H29   H     H_    0.611130 0.046764 0.081937 0.232774
H30   H     H_    0.546214 0.183634 0.091413 0.234977

loop_
_geom_bond_atom_site_label_1
_geom_bond_atom_site_label_2
_ccdc_geom_bond_type
C43   C45   A    
O14   V4    S    
C35   C39   A    
C15   C17   A    
O1    C3    A    
C54   O17   A    
C25   C41   A    
O2    C4    A    
C2    O7    A    
N1    H15   S    
O3    V1    S    
N4    H21   S    
O5    C3    A    
N3    H20   S    
C21   C23   A    
C19   Br1   S    
C31   Br3   S    
C10   H2    S    
C26   C50   A    
N6    H25   S    
C40   C42   A    
C27   C47   A    
C41   C43   A    
C30   C52   A    
C27   C49   A    
C42   C44   A    
O16   V4    S    
C39   C47   A    
O15   V3    S    
C38   C46   A    
C8    C12   A    
N4    H22   S    
C29   C31   A    
C24   Br6   S    
C30   C32   A    
H6    C50   S    
C47   H9    S    
C36   C38   A    
C26   C42   A    
C33   C35   A    
C53   O18   A    
O6    V2    S    
C25   N7    S    
C33   H11   S    
C5    C21   A    
O20   V4    S    
N1    H16   S    
C32   C34   A    
C34   C36   A    
N7    H28   S    
C46   H14   S    
C1    C28   S    
O18   V4    S    
C3    C8    S    
C39   C41   A    
C45   H13   S    
C2    C27   S    
C21   N3    S    
O11   V4    S    
O4    C2    A    
O16   C56   A    
C37   C45   A    
O15   C55   A    
O5    V1    S    
C15   C23   A    
C9    C17   A    
H7    C43   S    
C37   C51   A    
C36   C40   A    
H8    C44   S    
C31   C33   A    
C44   C46   A    
O4    V2    S    
C7    C11   A    
C13   N5    S    
O19   V3    S    
O13   V3    S    
O6    C4    A    
N2    H18   S    
C6    C53   S    
O1    V2    S    
C28   C48   A    
O2    V1    S    
C6    C22   A    
C40   C48   A    
C34   H12   S    
C20   Br2   S    
O14   C54   A    
C35   C37   A    
C5    C19   A    
C10   C12   A    
C6    C20   A    
N8    H30   S    
C23   Br5   S    
C26   N8    S    
C25   C49   A    
N5    H23   S    
C32   Br4   S    
C10   C18   A    
C30   N2    S    
C28   C50   A    
O3    C1    A    
O13   C53   A    
N7    H27   S    
C13   C15   A    
N3    H19   S    
C14   C16   A    
C5    C54   S    
C22   N4    S    
C9    C11   A    
O7    V1    S    
C1    O8    A    
C17   C19   A    
O8    V2    S    
O19   V4    S    
C18   C20   A    
C52   C55   S    
C38   C52   A    
C51   C56   S    
C8    C14   A    
C11   H3    S    
O17   V3    S    
C4    C7    S    
C16   C18   A    
O20   V3    S    
C12   H4    S    
N6    H26   S    
C22   C24   A    
O12   C56   A    
C7    C13   A    
C14   N6    S    
O11   C55   A    
C29   N1    S    
C9    H1    S    
C16   C24   A    
H5    C49   S    
C29   C51   A    
O9    V2    S    
N8    H29   S    
O10   V1    S    
N2    H17   S    
O12   V3    S    
C48   H10   S    
N5    H24   S    
