data_mof_unit_21680.cif
_audit_creation_date              2012-12-10T17:45:33-0500
_audit_creation_method            fapswitch 2.2
_symmetry_space_group_name_H-M    P1
_symmetry_Int_Tables_number       1
_space_group_crystal_system       triclinic
_cell_length_a                    11.540012
_cell_length_b                    10.68655
_cell_length_c                    9.990695
_cell_angle_alpha                 89.833503
_cell_angle_beta                  91.009193
_cell_angle_gamma                 93.749737
_cell_volume                      1229.25141263

loop_
_atom_site_label
_atom_site_type_symbol
_atom_type_description
_atom_site_fract_x
_atom_site_fract_y
_atom_site_fract_z
_atom_type_partial_charge
C1    C     C_R   0.512521 0.261725 0.501349 0.894405
C2    C     C_R   0.486097 0.873642 0.501653 -0.096788
C3    C     C_R   0.348115 0.315783 0.126916 0.460041
C4    C     C_R   0.282210 0.499678 0.499097 0.910625
C5    C     C_R   0.289086 0.221980 0.046620 -0.048268
C6    C     C_R   0.291887 0.230302 0.909662 -0.296459
C7    C     C_R   0.356266 0.327008 0.850376 -0.132746
C8    C     C_R   0.428547 0.413273 0.924304 0.015101
C9    C     C_R   0.427175 0.410856 0.068576 0.056834
C10   C     C_R   0.568809 0.582842 0.073594 -0.044554
C11   C     C_R   0.569511 0.583261 0.931288 0.428000
C12   C     C_R   0.524865 0.053514 0.874957 0.427999
C13   C     C_R   0.491980 0.739472 0.500105 0.868443
C14   C     C_R   0.717812 0.500781 0.500941 0.892849
C15   C     C_1   0.161595 0.499540 0.497659 -0.182233
C16   C     C_1   0.059352 0.499607 0.498826 0.013238
C17   C     C_1   0.940624 0.499957 0.501301 0.020984
C18   C     C_1   0.838400 0.500379 0.502428 -0.146573
C19   C     C_R   0.565235 0.112406 0.755432 -0.104848
C20   C     C_1   0.661432 0.206462 0.762888 0.209184
C21   C     C_1   0.405962 0.882393 0.983750 0.244736
C22   C     C_1   0.645109 0.671611 0.146309 0.356134
C23   C     C_R   0.453322 0.942734 0.865605 0.011553
C24   C     C_1   0.222674 0.116110 0.103851 0.179157
C25   C     C_R   0.432411 0.885308 0.741669 -0.276383
C26   C     C_R   0.480108 0.939129 0.624102 0.075994
C27   C     C_R   0.526817 0.062615 0.628811 0.002694
C28   C     C_R   0.530530 0.129576 0.505598 -0.126151
C29   C     C_R   0.525962 0.066025 0.383539 -0.165631
C30   C     C_R   0.509276 0.938141 0.382275 -0.171579
H1    H     H_    0.533636 0.114975 0.288650 0.212411
H2    H     H_    0.242583 0.162074 0.847495 0.172544
H3    H     H_    0.347358 0.329718 0.744936 0.227409
H4    H     H_    0.377340 0.799317 0.737859 0.184769
H5    H     H_    0.513845 0.890296 0.287429 0.198494
H6    H     H_    0.644630 0.653625 0.774734 0.392037
H7    H     H_    0.588241 0.187229 0.993671 0.331546
H8    H     H_    0.245269 0.277194 0.276612 0.313323
N1    N     N_R   0.498930 0.498800 0.142780 -0.151660
N2    N     N_R   0.498900 0.498720 0.857170 -0.169474
N3    N     N_1   0.738790 0.280870 0.769611 -0.182897
N4    N     N_1   0.367610 0.833302 0.077979 -0.206703
N5    N     N_1   0.706810 0.743053 0.204050 -0.194469
N6    N     N_1   0.169508 0.031465 0.149696 -0.176838
O1    O     O_R   0.500000 0.316780 0.614690 -0.650658
O2    O     O_3   0.553161 0.100557 0.001129 -0.787560
O3    O     O_3   0.324464 0.314858 0.259861 -0.719922
O4    O     O_R   0.499990 0.316750 0.385360 -0.550804
O5    O     O_R   0.334450 0.500030 0.614670 -0.646070
O6    O     O_R   0.334440 0.500000 0.385330 -0.538604
O7    O     O_R   0.500010 0.683250 0.614640 -0.636290
O8    O     O_R   0.500000 0.683220 0.385310 -0.622853
O9    O     O_R   0.665560 0.500000 0.614670 -0.622546
O10   O     O_R   0.665550 0.499970 0.385330 -0.619517
O11   O     O_3   0.643692 0.671466 0.870776 -0.770928
Zn1   Zn    Zn3+2 0.500010 0.500020 0.653130 0.941333
Zn2   Zn    Zn3+2 0.499990 0.499980 0.346870 0.998170

loop_
_geom_bond_atom_site_label_1
_geom_bond_atom_site_label_2
_ccdc_geom_bond_type
C1    C28   S    
C6    H2    S    
C1    O4    A    
C6    C7    A    
C3    C9    A    
O5    Zn1   S    
C19   C27   A    
C14   C18   S    
C19   C20   S    
H7    O2    S    
C4    O5    A    
C2    C30   A    
C4    C15   S    
C21   C23   S    
C17   C18   T    
H8    O3    S    
O4    Zn2   S    
C2    C26   A    
H6    O11   S    
C10   C22   S    
C7    H3    S    
C12   C23   A    
C1    O1    A    
C26   C27   A    
C29   C30   A    
C5    C24   S    
C30   H5    S    
C5    C6    A    
C12   C19   A    
C3    O3    S    
C28   C29   A    
C14   O10   A    
C20   N3    T    
C23   C25   A    
C11   N2    A    
C24   N6    T    
C7    C8    A    
C10   C11   A    
C15   C16   T    
C13   O8    A    
C16   C17   S    
C9    N1    A    
C14   O9    A    
C11   O11   S    
C29   H1    S    
O7    Zn1   S    
O8    Zn2   S    
O9    Zn1   S    
C27   C28   A    
C2    C13   S    
C10   N1    A    
C21   N4    T    
C8    N2    A    
C3    C5    A    
C25   C26   A    
C13   O7    A    
O6    Zn2   S    
O10   Zn2   S    
C25   H4    S    
C22   N5    T    
O1    Zn1   S    
C4    O6    A    
C8    C9    A    
N2    Zn1   S    
C12   O2    S    
N1    Zn2   S    
