data_mof_unit_61203.cif
_audit_creation_date              2012-12-10T20:53:55-0500
_audit_creation_method            fapswitch 2.2
_symmetry_space_group_name_H-M    P1
_symmetry_Int_Tables_number       1
_space_group_crystal_system       triclinic
_cell_length_a                    10.556838
_cell_length_b                    15.858593
_cell_length_c                    15.081686
_cell_angle_alpha                 90.012469
_cell_angle_beta                  103.899913
_cell_angle_gamma                 89.983342
_cell_volume                      2450.98666474

loop_
_atom_site_label
_atom_site_type_symbol
_atom_type_description
_atom_site_fract_x
_atom_site_fract_y
_atom_site_fract_z
_atom_type_partial_charge
Br1   Br    Br    0.490384 0.900521 0.692361 -0.428225
Br2   Br    Br    0.509199 0.099461 0.307554 -0.427033
Br3   Br    Br    0.215205 0.498926 0.057116 -0.408124
Br4   Br    Br    0.784796 0.500831 0.942884 -0.407672
C1    C     C_R   0.500040 0.338899 0.499972 0.900941
C2    C     C_1   0.499524 0.499988 0.192813 0.208665
C3    C     C_R   0.256316 0.502324 0.462149 0.822874
C4    C     C_R   0.743683 0.502305 0.537852 0.822400
C5    C     C_2   0.115741 0.514458 0.440137 -0.210211
C6    C     C_2   0.884246 0.514463 0.559868 -0.204011
C7    C     C_2   0.068400 0.560858 0.499793 -0.096666
C8    C     C_2   0.931539 0.560851 0.500212 -0.096502
C9    C     C_R   0.495841 0.957143 0.580834 0.304073
C10   C     C_R   0.503759 0.042845 0.419087 0.304181
C11   C     C_R   0.499714 0.913051 0.501025 0.016990
C12   C     C_R   0.499953 0.661103 0.500027 0.892826
C13   C     C_R   0.499917 0.086938 0.498902 0.016869
C14   C     C_R   0.503640 0.955383 0.420593 -0.244826
C15   C     C_R   0.495967 0.044605 0.579330 -0.244331
C16   C     C_1   0.499785 0.824213 0.500488 0.044962
C17   C     C_1   0.499973 0.175779 0.499464 0.045882
C18   C     C_1   0.500012 0.250572 0.499862 -0.131429
C19   C     C_1   0.499867 0.749422 0.500115 -0.130466
C20   C     C_2   0.964796 0.472591 0.642937 0.459883
C21   C     C_2   0.035237 0.472532 0.357085 0.460985
C22   C     C_R   0.383008 0.499549 0.932747 -0.203867
C23   C     C_R   0.616992 0.500326 0.067253 -0.204030
C24   C     C_R   0.501295 0.499953 0.905219 -0.071838
C25   C     C_R   0.498705 0.499947 0.094781 -0.071707
C26   C     C_R   0.618912 0.500327 0.973855 0.304213
C27   C     C_R   0.381088 0.499535 0.026145 0.304231
C28   C     C_1   0.500476 0.499968 0.807187 0.208845
H1    H     H_    0.865766 0.591443 0.442574 0.197173
H2    H     H_    0.134142 0.591481 0.557424 0.201909
H3    H     H_    0.493012 0.079483 0.640636 0.194617
H4    H     H_    0.506610 0.920504 0.359290 0.194345
H5    H     H_    0.291441 0.499236 0.881435 0.208319
H6    H     H_    0.708559 0.500622 0.118565 0.208110
H7    H     H_    0.917781 0.431114 0.682529 0.090023
H8    H     H_    0.082303 0.431050 0.317495 0.094742
N1    N     N_1   0.499960 0.500020 0.270540 -0.066493
N2    N     N_1   0.500040 0.499980 0.729460 -0.066443
O1    O     O_R   0.500000 0.378020 0.573650 -0.606386
O2    O     O_2   0.917791 0.483943 0.331185 -0.555884
O3    O     O_R   0.500000 0.621980 0.426350 -0.610966
O4    O     O_R   0.500060 0.378020 0.426320 -0.584361
O5    O     O_R   0.499940 0.621980 0.573680 -0.588891
O6    O     O_R   0.317790 0.500010 0.546150 -0.573731
O7    O     O_R   0.682210 0.499990 0.453850 -0.573550
O8    O     O_R   0.317850 0.500010 0.398830 -0.607300
O9    O     O_R   0.682150 0.499990 0.601170 -0.606973
O10   O     O_2   0.082223 0.484044 0.668848 -0.556872
Zn1   Zn    Zn3+2 0.499960 0.500000 0.598370 1.035441
Zn2   Zn    Zn3+2 0.500040 0.500000 0.401630 1.035288

loop_
_geom_bond_atom_site_label_1
_geom_bond_atom_site_label_2
_ccdc_geom_bond_type
C12   O3    A    
C20   O10   D    
C11   C14   A    
C7    C8    S    
C22   H5    S    
C23   C25   A    
C1    O4    A    
C10   C14   A    
C22   C24   A    
C4    O9    A    
C16   C19   T    
O5    Zn1   S    
C3    O6    A    
O4    Zn2   S    
C24   C26   A    
C1    O1    A    
C5    C21   S    
C22   C27   A    
C25   C27   A    
C15   H3    S    
C17   C18   T    
C23   C26   A    
Br3   C27   S    
N1    Zn2   S    
C5    C7    D    
C10   C13   A    
O8    Zn2   S    
C6    C8    D    
C12   O5    A    
C13   C15   A    
O3    Zn2   S    
C12   C19   S    
C9    C11   A    
C21   H8    S    
O6    Zn1   S    
Br2   C10   S    
C13   C17   S    
N2    Zn1   S    
Br1   C9    S    
C9    C15   A    
C23   H6    S    
O7    Zn2   S    
C24   C28   S    
C20   H7    S    
C2    C25   S    
C21   O2    D    
C4    C6    S    
C3    C5    S    
C28   N2    T    
C6    C20   S    
C8    H1    S    
C14   H4    S    
C4    O7    A    
O1    Zn1   S    
C7    H2    S    
Br4   C26   S    
C1    C18   S    
C3    O8    A    
C11   C16   S    
O9    Zn1   S    
C2    N1    T    
