data_mof_unit_26330.cif
_audit_creation_date              2012-10-26T21:01:00-0400
_audit_creation_method            fapswitch 2.2
_symmetry_space_group_name_H-M    P1
_symmetry_Int_Tables_number       1
_space_group_crystal_system       triclinic
_cell_length_a                    10.944983
_cell_length_b                    10.827681
_cell_length_c                    9.547751
_cell_angle_alpha                 90.213725
_cell_angle_beta                  90.092781
_cell_angle_gamma                 90.135493
_cell_volume                      1131.47982992

loop_
_atom_site_label
_atom_site_type_symbol
_atom_type_description
_atom_site_fract_x
_atom_site_fract_y
_atom_site_fract_z
_atom_type_partial_charge
C1    C     C_R   0.497548 0.262365 0.499700 0.567335
C2    C     C_R   0.398085 0.469049 0.073947 -0.015687
C3    C     C_R   0.398051 0.469135 0.925399 -0.008089
C4    C     C_R   0.265260 0.501801 0.499553 0.537215
C5    C     C_R   0.606016 0.517868 0.926685 0.161111
C6    C     C_3   0.687647 0.628081 0.921385 -0.275074
C7    C     C_3   0.686655 0.629298 0.080439 -0.264908
C8    C     C_R   0.497964 0.737735 0.500073 0.541758
C9    C     C_R   0.734605 0.497618 0.499892 0.591623
C10   C     C_2   0.936100 0.474052 0.389574 0.015962
C11   C     C_2   0.866310 0.508575 0.499038 -0.107397
C12   C     C_R   0.485105 0.129336 0.498899 0.014214
C13   C     C_2   0.062918 0.517276 0.387564 -0.050922
C14   C     C_2   0.133622 0.488059 0.498211 -0.160083
C15   C     C_R   0.480491 0.064342 0.624628 0.017125
C16   C     C_2   0.896190 0.388403 0.275759 0.261600
C17   C     C_2   0.104238 0.597650 0.270207 0.218200
C18   C     C_R   0.472555 0.063915 0.372188 -0.144628
C19   C     C_R   0.472931 0.935121 0.372507 -0.156850
C20   C     C_R   0.485899 0.870910 0.499536 0.009749
C21   C     C_R   0.480940 0.937215 0.625037 0.025774
C22   C     C_3   0.562400 0.932516 0.750563 -0.270708
C23   C     C_3   0.561515 0.072635 0.750224 -0.256284
C24   C     C_R   0.605841 0.518471 0.073977 0.181742
Cu1   Cu    Cu3+1 0.499990 0.499980 0.640670 0.949136
Cu2   Cu    Cu3+1 0.500010 0.500020 0.359330 0.972479
H1    H     H_    0.652163 0.114119 0.726395 0.153040
H2    H     H_    0.468597 0.111518 0.272717 0.143784
H3    H     H_    0.469105 0.886619 0.273164 0.134861
H4    H     H_    0.515265 0.892570 0.843018 0.138340
H5    H     H_    0.653656 0.892805 0.726574 0.137007
H6    H     H_    0.513707 0.113160 0.842129 0.145150
H7    H     H_    0.945656 0.386581 0.177411 0.135314
H8    H     H_    0.189167 0.649018 0.276643 0.143323
H9    H     H_    0.315004 0.445060 0.128412 0.130548
H10   H     H_    0.314899 0.445293 0.870497 0.131201
H11   H     H_    0.778685 0.605687 0.876663 0.144980
H12   H     H_    0.642104 0.709279 0.874427 0.140269
H13   H     H_    0.777221 0.608058 0.127109 0.177399
H14   H     H_    0.640039 0.711346 0.125764 0.142928
H15   H     H_    0.906476 0.560204 0.585643 0.074937
H16   H     H_    0.094227 0.439893 0.587234 0.102156
N1    N     N_R   0.500780 0.500930 0.147930 -0.237447
N2    N     N_R   0.500780 0.500890 0.852020 -0.237139
O1    O     O_R   0.500000 0.319640 0.618810 -0.501784
O2    O     O_2   0.040730 0.611252 0.166184 -0.552856
O3    O     O_R   0.500010 0.319680 0.381230 -0.483190
O4    O     O_R   0.321940 0.499980 0.618760 -0.505038
O5    O     O_R   0.321950 0.500020 0.381180 -0.525914
O6    O     O_R   0.499990 0.680320 0.618770 -0.499613
O7    O     O_R   0.500000 0.680360 0.381190 -0.519638
O8    O     O_R   0.678050 0.499980 0.618820 -0.512471
O9    O     O_R   0.678060 0.500020 0.381240 -0.453720
O10   O     O_2   0.813728 0.313909 0.293258 -0.500822

loop_
_geom_bond_atom_site_label_1
_geom_bond_atom_site_label_2
_ccdc_geom_bond_type
C2    H9    S    
C7    H14   S    
C6    H12   S    
C6    C7    S    
Cu1   O6    S    
C23   H1    S    
C16   H7    S    
C2    N1    A    
C19   C20   A    
Cu1   O4    S    
C12   C15   A    
C13   C17   S    
C4    O5    A    
C14   H16   S    
C23   H6    S    
C15   C23   S    
C2    C3    A    
C6    H11   S    
C10   C16   S    
Cu2   O7    S    
C20   C21   A    
C9    C11   S    
C8    O7    A    
C1    O1    A    
C17   H8    S    
C8    C20   S    
C5    C24   A    
C3    H10   S    
Cu2   O3    S    
Cu1   N2    S    
C5    N2    A    
Cu2   N1    S    
C11   H15   S    
C9    O8    A    
C10   C11   D    
C4    C14   S    
C5    C6    S    
C16   O10   D    
C3    N2    A    
Cu1   O8    S    
C9    O9    A    
C22   H5    S    
Cu1   O1    S    
C7    C24   S    
C19   H3    S    
Cu2   O9    S    
C8    O6    A    
C15   C21   A    
C18   H2    S    
C17   O2    D    
C18   C19   A    
C4    O4    A    
Cu2   O5    S    
C12   C18   A    
C24   N1    A    
C7    H13   S    
C22   C23   S    
C1    O3    A    
C22   H4    S    
C13   C14   D    
Cu1   Cu2   S    
C21   C22   S    
C1    C12   S    
C10   C13   S    
