data_mof_unit_16020.cif
_audit_creation_date              2012-12-10T20:38:23-0500
_audit_creation_method            fapswitch 2.2
_symmetry_space_group_name_H-M    P1
_symmetry_Int_Tables_number       1
_space_group_crystal_system       triclinic
_cell_length_a                    9.848282
_cell_length_b                    10.681434
_cell_length_c                    16.668549
_cell_angle_alpha                 90.211302
_cell_angle_beta                  84.62177
_cell_angle_gamma                 90.018829
_cell_volume                      1745.69650603

loop_
_atom_site_label
_atom_site_type_symbol
_atom_type_description
_atom_site_fract_x
_atom_site_fract_y
_atom_site_fract_z
_atom_type_partial_charge
C1    C     C_R   0.499698 0.740086 0.502009 0.882021
C2    C     C_R   0.534716 0.464658 0.261675 -0.049447
C3    C     C_R   0.374820 0.936056 0.513232 0.128085
C4    C     C_R   0.480354 0.498535 0.653521 0.858016
C5    C     C_R   0.497400 0.871527 0.513926 -0.103405
C6    C     C_R   0.616648 0.935483 0.529336 -0.231266
C7    C     C_R   0.616544 0.064865 0.529456 -0.226215
C8    C     C_R   0.497237 0.128530 0.514052 -0.105130
C9    C     C_R   0.374675 0.063744 0.513341 0.144321
C10   C     C_3   0.267945 0.070321 0.455309 -0.501165
C11   C     C_3   0.268335 0.928414 0.455106 -0.477422
C12   C     C_R   0.352287 0.416061 0.776874 -0.202354
C13   C     C_R   0.924022 0.599672 0.530758 0.217379
C14   C     C_R   0.933883 0.407611 0.462486 -0.143828
C15   C     C_R   0.078001 0.407702 0.462391 -0.134371
C16   C     C_R   0.499666 0.259899 0.502069 0.881896
C17   C     C_R   0.066682 0.599723 0.530616 0.215316
C18   C     C_3   0.060003 0.647894 0.614834 -0.510195
C19   C     C_3   0.905721 0.647078 0.615327 -0.520894
C20   C     C_R   0.519808 0.497364 0.346611 0.854950
C21   C     C_R   0.467371 0.477764 0.739912 -0.032130
C22   C     C_R   0.577094 0.506236 0.784127 -0.211323
C23   C     C_R   0.468269 0.321991 0.159532 -0.167202
C24   C     C_R   0.575153 0.468203 0.863434 -0.147769
C25   C     C_R   0.463935 0.399336 0.899216 0.203355
C26   C     C_R   0.350621 0.377216 0.856510 -0.180066
C27   C     C_3   0.732247 0.620514 0.229694 -0.430434
C28   C     C_3   0.651981 0.742838 0.245739 -0.333972
C29   C     C_3   0.742792 0.846387 0.274502 -0.870752
C30   C     C_R   0.450115 0.368887 0.237185 -0.246924
C31   C     C_R   0.640506 0.513968 0.207416 0.093158
C32   C     C_R   0.658227 0.464333 0.129337 -0.199795
C33   C     C_R   0.571055 0.370771 0.105228 0.175097
C34   C     C_2   0.459190 0.361391 0.983571 -0.234424
C35   C     C_2   0.573407 0.343257 0.019619 -0.237817
H1    H     H_    0.665170 0.556387 0.757071 0.141471
H2    H     H_    0.137031 0.332349 0.433082 0.142455
H3    H     H_    0.098863 0.579365 0.657242 0.217183
H4    H     H_    0.371049 0.328445 0.278836 0.151070
H5    H     H_    0.103540 0.743645 0.617837 0.198738
H6    H     H_    0.855775 0.577389 0.657681 0.215312
H7    H     H_    0.860031 0.742268 0.619369 0.193525
H8    H     H_    0.672074 0.339142 0.984658 0.147708
H9    H     H_    0.262352 0.327860 0.884284 0.126430
H10   H     H_    0.400195 0.249842 0.141127 0.136567
H11   H     H_    0.266374 0.393324 0.743399 0.151074
H12   H     H_    0.735148 0.503297 0.085648 0.120294
H13   H     H_    0.360762 0.366118 0.018959 0.152987
H14   H     H_    0.660291 0.494274 0.896539 0.123319
H15   H     H_    0.782937 0.819156 0.332069 0.265914
H16   H     H_    0.829419 0.864914 0.228479 0.257013
H17   H     H_    0.682398 0.933715 0.284834 0.249582
H18   H     H_    0.609842 0.773338 0.189390 0.220751
H19   H     H_    0.565408 0.729190 0.292487 0.207982
H20   H     H_    0.786222 0.594432 0.282672 0.228442
H21   H     H_    0.813582 0.637779 0.180037 0.190919
H22   H     H_    0.711342 0.886650 0.535855 0.164675
H23   H     H_    0.711163 0.113909 0.536137 0.170473
H24   H     H_    0.170874 0.110852 0.483407 0.200805
H25   H     H_    0.306511 0.111704 0.396378 0.195391
H26   H     H_    0.171510 0.887209 0.482906 0.200167
H27   H     H_    0.307495 0.887006 0.396097 0.201153
H28   H     H_    0.884040 0.331881 0.433509 0.148168
N1    N     N_R   0.857140 0.500860 0.500530 -0.104802
N2    N     N_R   0.142780 0.500820 0.500530 -0.103333
O1    O     O_R   0.385310 0.683210 0.499990 -0.614497
O2    O     O_R   0.614650 0.683240 0.500000 -0.620704
O3    O     O_R   0.371780 0.500000 0.615800 -0.619945
O4    O     O_R   0.601120 0.500040 0.615800 -0.613483
O5    O     O_R   0.385350 0.316760 0.500000 -0.620471
O6    O     O_R   0.614690 0.316790 0.500010 -0.623838
O7    O     O_R   0.398880 0.499960 0.384200 -0.616723
O8    O     O_R   0.628220 0.500000 0.384200 -0.612744
Zn1   Zn    Zn3+2 0.346870 0.499980 0.499990 0.937218
Zn2   Zn    Zn3+2 0.653130 0.500020 0.500010 0.938457

loop_
_geom_bond_atom_site_label_1
_geom_bond_atom_site_label_2
_ccdc_geom_bond_type
C23   H10   S    
C20   O8    A    
C11   H27   S    
C26   H9    S    
C7    C8    A    
C1    C5    S    
C28   C29   S    
C18   C19   S    
C5    C6    A    
C27   H20   S    
O3    Zn1   S    
C15   N2    A    
C34   C35   D    
C18   H5    S    
C15   H2    S    
C33   C35   S    
C8    C9    A    
C23   C33   A    
O5    Zn1   S    
C35   H8    S    
C9    C10   S    
C7    H23   S    
C19   H7    S    
C25   C34   S    
C8    C16   S    
C21   C22   A    
O8    Zn2   S    
C6    H22   S    
C16   O6    A    
C4    O4    A    
C1    O1    A    
C29   H15   S    
C13   C19   S    
C27   C31   S    
C23   C30   A    
C16   O5    A    
C24   C25   A    
O7    Zn1   S    
C4    O3    A    
C28   H19   S    
C27   H21   S    
C3    C5    A    
C25   C26   A    
C2    C20   S    
C12   C21   A    
N2    Zn1   S    
C12   C26   A    
C2    C31   A    
C10   H25   S    
C3    C9    A    
C31   C32   A    
C14   N1    A    
C17   C18   S    
C12   H11   S    
C32   H12   S    
C22   C24   A    
O2    Zn2   S    
C29   H16   S    
C24   H14   S    
C11   H26   S    
C28   H18   S    
C6    C7    A    
C22   H1    S    
C17   N2    A    
C13   C17   A    
C2    C30   A    
C32   C33   A    
C10   H24   S    
C18   H3    S    
O6    Zn2   S    
C4    C21   S    
C13   N1    A    
C14   H28   S    
C1    O2    A    
N1    Zn2   S    
C30   H4    S    
O4    Zn2   S    
C3    C11   S    
C10   C11   S    
C34   H13   S    
C27   C28   S    
C14   C15   A    
C20   O7    A    
C19   H6    S    
C29   H17   S    
O1    Zn1   S    
