data_mof_unit_42017.cif
_audit_creation_date              2012-10-26T20:09:36-0400
_audit_creation_method            fapswitch 2.2
_symmetry_space_group_name_H-M    P1
_symmetry_Int_Tables_number       1
_space_group_crystal_system       triclinic
_cell_length_a                    10.940018
_cell_length_b                    9.519391
_cell_length_c                    15.860565
_cell_angle_alpha                 89.893387
_cell_angle_beta                  92.4673
_cell_angle_gamma                 89.286726
_cell_volume                      1650.09198438

loop_
_atom_site_label
_atom_site_type_symbol
_atom_type_description
_atom_site_fract_x
_atom_site_fract_y
_atom_site_fract_z
_atom_type_partial_charge
C1    C     C_R   0.260919 0.500706 0.501041 0.523966
C2    C     C_3   0.941641 0.339815 0.525655 0.224542
C3    C     C_3   0.069451 0.564711 0.418113 -0.217327
C4    C     C_3   0.124745 0.501273 0.502588 -0.062099
C5    C     C_3   0.882041 0.498327 0.503012 0.058196
C6    C     C_R   0.500173 0.500108 0.340484 0.524086
C7    C     C_3   0.927314 0.542663 0.409005 -0.015836
C8    C     C_3   0.623858 0.080047 0.510317 -0.133239
C9    C     C_3   0.623986 0.915064 0.513026 -0.138118
C10   C     C_3   0.430043 0.083877 0.571762 -0.097083
C11   C     C_3   0.428304 0.917724 0.570979 -0.098880
C12   C     C_3   0.632639 0.513475 0.954748 -0.202626
C13   C     C_3   0.446074 0.084850 0.419811 0.037010
C14   C     C_3   0.447205 0.916474 0.419605 0.038672
C15   C     C_R   0.741247 0.499187 0.502000 0.620278
C16   C     C_R   0.498733 0.499906 0.659574 0.615279
C17   C     C_3   0.423141 0.625228 0.046568 -0.213651
C18   C     C_3   0.446273 0.361826 0.047679 -0.214607
C19   C     C_3   0.445760 0.361633 0.949960 -0.215422
C20   C     C_3   0.422636 0.625036 0.948846 -0.216090
C21   C     C_1   0.498913 0.499725 0.749325 0.008865
C22   C     C_3   0.501008 0.500306 0.082898 0.071490
C23   C     C_3   0.633148 0.513675 0.052515 -0.218398
C24   C     C_3   0.500142 0.499974 0.917217 0.057500
C25   C     C_3   0.935362 0.771327 0.545911 -0.317303
C26   C     C_3   0.892355 0.214941 0.469081 -0.327346
C27   C     C_3   0.860257 0.673745 0.366840 -0.383292
C28   C     C_3   0.905457 0.431895 0.337416 -0.406971
C29   C     C_3   0.319569 0.148998 0.391361 -0.347348
C30   C     C_3   0.321218 0.853886 0.390425 -0.344403
C31   C     C_1   0.499483 0.499784 0.824966 -0.059364
C32   C     C_1   0.501185 0.500420 0.175152 -0.086491
C33   C     C_1   0.500833 0.500352 0.250774 -0.058577
C34   C     C_3   0.082154 0.583428 0.580316 -0.196513
C35   C     C_3   0.080906 0.348932 0.511125 -0.198594
C36   C     C_3   0.941264 0.613815 0.571714 0.219971
Cu1   Cu    Cu3+1 0.499860 0.642410 0.500040 0.902706
Cu2   Cu    Cu3+1 0.499860 0.357590 0.500040 0.917095
H1    H     H_    0.326805 0.617705 0.922810 0.134172
H2    H     H_    0.466038 0.879084 0.633079 0.125909
H3    H     H_    0.505789 0.116681 0.368059 0.113061
H4    H     H_    0.508933 0.884376 0.368763 0.113220
H5    H     H_    0.334971 0.126023 0.569316 0.130485
H6    H     H_    0.332493 0.880754 0.566518 0.124206
H7    H     H_    0.327552 0.617980 0.067413 0.115527
H8    H     H_    0.351107 0.349773 0.068548 0.114918
H9    H     H_    0.500811 0.270280 0.072773 0.110724
H10   H     H_    0.460774 0.726194 0.070851 0.110657
H11   H     H_    0.500056 0.270000 0.928161 0.117352
H12   H     H_    0.350347 0.349505 0.923949 0.132050
H13   H     H_    0.460044 0.725904 0.926236 0.114714
H14   H     H_    0.674552 0.612628 0.076912 0.112755
H15   H     H_    0.691054 0.424884 0.077718 0.113522
H16   H     H_    0.673819 0.612318 0.932208 0.131580
H17   H     H_    0.690294 0.424582 0.933020 0.141677
H18   H     H_    0.136489 0.681177 0.588466 0.112285
H19   H     H_    0.107226 0.295409 0.452614 0.093235
H20   H     H_    0.109025 0.523804 0.637954 0.197473
H21   H     H_    0.134969 0.293939 0.562595 0.182901
H22   H     H_    0.995024 0.801974 0.495071 0.065591
H23   H     H_    0.094094 0.676624 0.412650 0.117576
H24   H     H_    0.841689 0.805577 0.532371 0.150401
H25   H     H_    0.970900 0.838700 0.598475 0.214476
H26   H     H_    0.817093 0.244645 0.425055 0.112957
H27   H     H_    0.961481 0.161014 0.431085 0.066272
H28   H     H_    0.860027 0.125329 0.505770 0.169864
H29   H     H_    0.903765 0.701572 0.307041 0.113733
H30   H     H_    0.763044 0.649688 0.350178 0.152335
H31   H     H_    0.858301 0.773276 0.400186 0.105641
H32   H     H_    0.966730 0.339362 0.342956 0.119456
H33   H     H_    0.807511 0.403060 0.330168 0.128254
H34   H     H_    0.116865 0.515267 0.364666 0.105116
H35   H     H_    0.929237 0.474752 0.274950 0.121863
H36   H     H_    0.248585 0.123912 0.436474 0.116411
H37   H     H_    0.320161 0.261596 0.378094 0.190542
H38   H     H_    0.290088 0.110909 0.328015 0.067058
H39   H     H_    0.248226 0.878398 0.434657 0.115192
H40   H     H_    0.292726 0.892169 0.326644 0.066482
H41   H     H_    0.322295 0.741313 0.377997 0.191407
H42   H     H_    0.762829 0.771342 0.745016 0.359869
H43   H     H_    0.786176 0.201040 0.714212 0.364144
H44   H     H_    0.671455 0.119436 0.567639 0.198766
H45   H     H_    0.665057 0.879169 0.574515 0.185145
H46   H     H_    0.673465 0.110477 0.454510 0.090984
H47   H     H_    0.680603 0.875807 0.461499 0.101467
H48   H     H_    0.471206 0.118621 0.633447 0.127877
N1    N     N_3   0.500250 0.143650 0.501830 -0.232991
N2    N     N_3   0.500250 0.856350 0.501830 -0.232681
O1    O     O_R   0.317570 0.620260 0.500050 -0.528548
O2    O     O_2   0.965969 0.604516 0.746128 -0.256319
O3    O     O_3   0.803077 0.779639 0.690485 -0.568981
O4    O     O_2   0.981191 0.121762 0.635116 -0.343475
O5    O     O_2   0.000539 0.347321 0.700387 -0.233531
O6    O     O_3   0.782975 0.257446 0.661597 -0.489057
O7    O     O_R   0.317570 0.379740 0.500050 -0.535624
O8    O     O_R   0.499890 0.620310 0.379470 -0.529051
O9    O     O_R   0.499890 0.379690 0.379470 -0.526904
O10   O     O_R   0.682190 0.620260 0.500020 -0.502267
O11   O     O_R   0.682190 0.379740 0.500020 -0.477820
O12   O     O_R   0.499870 0.620210 0.620600 -0.490387
O13   O     O_R   0.499870 0.379790 0.620600 -0.478202
O14   O     O_2   0.772930 0.515854 0.684536 -0.220526
S1    S     S_3+6 0.870762 0.622178 0.675559 0.029862
S2    S     S_3+6 0.928762 0.268782 0.633822 0.005125

loop_
_geom_bond_atom_site_label_1
_geom_bond_atom_site_label_2
_ccdc_geom_bond_type
C2    C35   S    
C34   H18   S    
C16   C21   S    
Cu1   N2    S    
C17   H10   S    
C18   H9    S    
C13   H3    S    
C29   H38   S    
C21   C31   T    
C12   C23   S    
C22   C32   S    
C36   S1    S    
C8    H44   S    
C13   C29   S    
C17   H7    S    
C20   H13   S    
C3    C7    S    
C9    N2    S    
C5    C36   S    
C17   C20   S    
C7    C27   S    
C35   H21   S    
C18   C19   S    
C25   H25   S    
C26   H26   S    
C27   H30   S    
C9    H47   S    
C30   H39   S    
C20   C24   S    
C8    C9    S    
Cu2   O7    S    
C25   H22   S    
C27   H31   S    
C14   H4    S    
C4    C35   S    
O6    S2    S    
C8    H46   S    
C13   C14   S    
O14   S1    D    
C14   C30   S    
Cu2   O9    S    
C28   H35   S    
C18   H8    S    
O5    S2    D    
Cu1   O10   S    
C23   H15   S    
C3    H23   S    
C4    C34   S    
C10   N1    S    
C26   H28   S    
C6    O9    A    
O3    S1    S    
C5    C7    S    
C20   H1    S    
C16   O12   A    
C29   H36   S    
C7    C28   S    
Cu1   O8    S    
C30   H40   S    
Cu1   Cu2   S    
C19   H11   S    
C2    S2    S    
C11   N2    S    
C1    O7    A    
C13   N1    S    
C11   H6    S    
C2    C26   S    
C9    H45   S    
C30   H41   S    
C6    O8    A    
C2    C5    S    
C15   O10   A    
C3    C4    S    
C10   H48   S    
C1    O1    A    
C10   H5    S    
C18   C22   S    
C26   H27   S    
C28   H32   S    
C15   O11   A    
Cu2   O11   S    
C29   H37   S    
Cu2   O13   S    
C12   C24   S    
C17   C22   S    
C6    C33   S    
Cu1   O1    S    
Cu2   N1    S    
C35   H19   S    
C1    C4    S    
C32   C33   T    
C8    N1    S    
H42   O3    S    
C19   C24   S    
C24   C31   S    
C14   N2    S    
H43   O6    S    
C19   H12   S    
C23   H14   S    
C3    H34   S    
C34   C36   S    
C25   H24   S    
C11   H2    S    
O2    S1    D    
C5    C15   S    
C12   H17   S    
C27   H29   S    
C10   C11   S    
O4    S2    D    
C25   C36   S    
C28   H33   S    
C16   O13   A    
C34   H20   S    
C22   C23   S    
Cu1   O12   S    
C12   H16   S    
