data_mof_unit_44415.cif
_audit_creation_date              2012-12-10T17:03:54-0500
_audit_creation_method            fapswitch 2.2
_symmetry_space_group_name_H-M    P1
_symmetry_Int_Tables_number       1
_space_group_crystal_system       triclinic
_cell_length_a                    9.794182
_cell_length_b                    11.039266
_cell_length_c                    15.74285
_cell_angle_alpha                 95.974859
_cell_angle_beta                  79.353236
_cell_angle_gamma                 108.668048
_cell_volume                      1582.96635032

loop_
_atom_site_label
_atom_site_type_symbol
_atom_type_description
_atom_site_fract_x
_atom_site_fract_y
_atom_site_fract_z
_atom_type_partial_charge
C1    C     C_R   0.550196 0.742562 0.509809 0.923790
C2    C     C_R   0.447500 0.255263 0.494640 0.860994
C3    C     C_R   0.367005 0.336093 0.055392 0.307231
C4    C     C_R   0.687371 0.547536 0.919558 0.343097
C5    C     C_R   0.266854 0.289124 0.997124 0.365724
C6    C     C_R   0.787247 0.590264 0.978307 0.362685
C7    C     C_2   0.557246 0.872328 0.533717 -0.411106
C8    C     C_2   0.436544 0.119500 0.483172 -0.437615
C9    C     C_2   0.544054 0.948294 0.477631 0.312860
C10   C     C_2   0.535929 0.076809 0.509725 0.363216
C11   C     C_2   0.938571 0.515571 0.479907 0.377775
C12   C     C_2   0.085524 0.525505 0.500843 0.435420
C13   C     C_R   0.411966 0.484502 0.662619 0.816791
C14   C     C_R   0.588209 0.514224 0.337085 0.811030
C15   C     C_R   0.358767 0.449196 0.752744 -0.125451
C16   C     C_R   0.642531 0.526341 0.243671 -0.143867
C17   C     C_R   0.198213 0.291223 0.853788 0.536534
C18   C     C_R   0.844361 0.592806 0.124865 0.472999
C19   C     C_R   0.234627 0.345091 0.772128 -0.314817
C20   C     C_R   0.792049 0.570861 0.212942 -0.332715
C21   C     C_R   0.449744 0.500896 0.814251 -0.162325
C22   C     C_R   0.544503 0.491059 0.184773 -0.137385
C23   C     C_R   0.429507 0.440914 0.892153 -0.003465
C24   C     C_R   0.593821 0.495381 0.095062 -0.013989
C25   C     C_R   0.296869 0.340292 0.914722 -0.090594
C26   C     C_R   0.743060 0.560033 0.065750 -0.114076
C27   C     C_R   0.537484 0.479069 0.948063 -0.141601
C28   C     C_R   0.496883 0.439538 0.034366 -0.135246
Cu1   Cu    Cu3+1 0.362980 0.479380 0.485080 0.978634
Cu2   Cu    Cu3+1 0.637020 0.520620 0.514920 0.969624
H1    H     H_    0.428914 0.461892 0.209615 0.208677
H2    H     H_    0.537134 0.588155 0.799004 0.194827
H3    H     H_    0.868288 0.588080 0.257744 0.211484
H4    H     H_    0.171754 0.302108 0.721089 0.159996
H5    H     H_    0.359603 0.058161 0.443218 0.140493
H6    H     H_    0.555984 0.900318 0.601903 0.106806
H7    H     H_    0.119855 0.387408 0.412548 0.179312
H8    H     H_    0.864462 0.571082 0.599827 0.186402
N1    N     N_2   0.842890 0.551600 0.537350 -0.332034
N2    N     N_2   0.157110 0.448400 0.462650 -0.317833
O1    O     O_R   0.426810 0.668300 0.492040 -0.521744
O2    O     O_R   0.573190 0.331700 0.507960 -0.544521
O3    O     O_R   0.658240 0.703130 0.517240 -0.590387
O4    O     O_R   0.341760 0.296870 0.482760 -0.592214
O5    O     O_R   0.319390 0.472820 0.610170 -0.541815
O6    O     O_R   0.680610 0.527180 0.389830 -0.536569
O7    O     O_R   0.550820 0.507640 0.635370 -0.580227
O8    O     O_R   0.449180 0.492360 0.364630 -0.581713
O9    O     O_3   0.143335 0.185847 0.018747 -0.548965
C29   C     C_3   0.047410 0.219492 0.089205 0.163306
H9    H     H_    0.076565 0.324268 0.107070 0.146766
H10   H     H_    0.047758 0.168368 0.146241 0.172513
C30   C     C_3   0.893137 0.176232 0.067766 -0.841596
H11   H     H_    0.863083 0.074419 0.043722 0.248261
H12   H     H_    0.813950 0.186266 0.126251 0.199269
H13   H     H_    0.886344 0.236967 0.017777 0.249993
O10   O     O_3   0.930709 0.659007 0.948624 -0.529550
C31   C     C_3   0.939196 0.786631 0.937173 0.106362
H14   H     H_    0.903099 0.833493 0.999576 0.116218
H15   H     H_    0.871170 0.791466 0.889075 0.162693
C32   C     C_3   0.096734 0.861091 0.903522 -0.751508
H16   H     H_    0.104916 0.960663 0.892295 0.268010
H17   H     H_    0.167817 0.864017 0.951341 0.241912
H18   H     H_    0.135762 0.815285 0.841704 0.236620
O11   O     O_3   0.082011 0.179339 0.871636 -0.553057
C33   C     C_3   0.959946 0.164027 0.830695 0.058381
H19   H     H_    0.953893 0.254139 0.808490 0.118852
H20   H     H_    0.860070 0.129363 0.879154 0.162684
C34   C     C_3   0.952489 0.060825 0.757674 -0.848405
H21   H     H_    0.850832 0.042696 0.730334 0.210743
H22   H     H_    0.047585 0.090013 0.705372 0.243705
H23   H     H_    0.950957 0.970184 0.782948 0.252031
O12   O     O_3   0.992999 0.621592 0.094217 -0.540655
C35   C     C_3   0.072168 0.740488 0.130214 0.102640
H24   H     H_    0.050401 0.746465 0.202030 0.124845
H25   H     H_    0.045809 0.820045 0.105988 0.146038
C36   C     C_3   0.234703 0.758575 0.103451 -0.782968
H26   H     H_    0.262537 0.748699 0.032000 0.255120
H27   H     H_    0.298820 0.854985 0.126166 0.192124
H28   H     H_    0.264784 0.685164 0.132609 0.246071
O13   O     O_3   0.340326 0.272246 0.130811 -0.599378
C37   C     C_3   0.415117 0.179977 0.117496 0.088763
H29   H     H_    0.532737 0.222046 0.090157 0.143162
H30   H     H_    0.363113 0.100138 0.073138 0.158199
C38   C     C_3   0.407316 0.126219 0.203970 -0.818813
H31   H     H_    0.291722 0.079338 0.232171 0.247857
H32   H     H_    0.467113 0.054629 0.194478 0.201062
H33   H     H_    0.458121 0.204339 0.249557 0.244296
O14   O     O_3   0.742380 0.567732 0.833005 -0.603510
C39   C     C_3   0.791176 0.464599 0.793495 0.075471
H34   H     H_    0.744260 0.434784 0.732873 0.186914
H35   H     H_    0.755345 0.377769 0.832628 0.109018
C40   C     C_3   0.957352 0.509092 0.770168 -0.749778
H36   H     H_    0.008202 0.513727 0.828261 0.268358
H37   H     H_    0.994537 0.441588 0.721544 0.208301
H38   H     H_    0.995370 0.604807 0.742615 0.276540
O15   O     O_3   0.614531 0.147310 0.574252 -0.557487
C41   C     C_3   0.756727 0.135319 0.565464 0.081522
H39   H     H_    0.808398 0.129308 0.496919 0.101917
H40   H     H_    0.755988 0.050141 0.596833 0.148547
C42   C     C_3   0.851681 0.247505 0.613099 -0.834721
H41   H     H_    0.842418 0.337648 0.594631 0.247289
H42   H     H_    0.814195 0.239002 0.683771 0.229492
H43   H     H_    0.967449 0.248713 0.597857 0.214380
O16   O     O_3   0.525799 0.901882 0.393578 -0.579541
C43   C     C_3   0.636806 0.980059 0.334135 0.053329
H44   H     H_    0.745531 0.009074 0.355789 0.122521
H45   H     H_    0.608934 0.067189 0.324509 0.141197
C44   C     C_3   0.649735 0.905247 0.247762 -0.801576
H46   H     H_    0.733451 0.966708 0.199452 0.193282
H47   H     H_    0.682769 0.820162 0.255405 0.247319
H48   H     H_    0.543373 0.872740 0.223857 0.250959
O17   O     O_3   0.140280 0.609503 0.567456 -0.567903
C45   C     C_3   0.153642 0.737250 0.551053 0.063615
H49   H     H_    0.050901 0.749526 0.539075 0.125258
H50   H     H_    0.237513 0.770519 0.493430 0.196540
C46   C     C_3   0.197748 0.824613 0.629346 -0.799322
H51   H     H_    0.289312 0.805126 0.651728 0.253955
H52   H     H_    0.231792 0.926286 0.612337 0.214618
H53   H     H_    0.103731 0.808644 0.682938 0.229519
O18   O     O_3   0.917161 0.488604 0.394483 -0.568645
C47   C     C_3   0.862273 0.355027 0.376778 0.117176
H54   H     H_    0.742978 0.325678 0.378367 0.184929
H55   H     H_    0.884458 0.296760 0.422398 0.099364
C48   C     C_3   0.928449 0.321485 0.285975 -0.917809
H56   H     H_    0.892903 0.366455 0.237806 0.268004
H57   H     H_    0.049467 0.355242 0.277720 0.259006
H58   H     H_    0.890878 0.216085 0.274043 0.195265

loop_
_geom_bond_atom_site_label_1
_geom_bond_atom_site_label_2
_ccdc_geom_bond_type
C33   H20   S    
C40   H36   S    
C10   O15   S    
C7    H6    S    
C18   C26   A    
C45   H49   S    
C39   H34   S    
C14   O6    A    
C36   H26   S    
C15   C19   A    
C42   H41   S    
C35   H25   S    
C3    C28   A    
C24   C26   A    
C4    O14   S    
H7    N2    S    
C46   H52   S    
H8    N1    S    
C38   H33   S    
C33   C34   S    
C43   H44   S    
C31   H15   S    
C32   H17   S    
O12   C35   S    
C34   H22   S    
C44   H47   S    
O17   C45   S    
C1    O3    A    
C2    O4    A    
C35   C36   S    
C3    O13   S    
C48   H58   S    
C29   H10   S    
C23   C27   A    
C9    C10   S    
C18   C20   A    
C32   H16   S    
C31   C32   S    
C36   H27   S    
C33   H19   S    
C40   H37   S    
C6    O10   S    
C5    O9    S    
C11   O18   S    
O15   C41   S    
C30   H12   S    
C21   H2    S    
C29   C30   S    
C22   H1    S    
Cu1   O8    S    
Cu2   O7    S    
C4    C6    A    
C35   H24   S    
C46   H53   S    
C13   O7    A    
C14   O8    A    
C31   H14   S    
C38   H31   S    
C37   H29   S    
O13   C37   S    
Cu1   O5    S    
C8    H5    S    
C12   N2    D    
C32   H18   S    
Cu1   Cu2   S    
C39   H35   S    
C16   C20   A    
C29   H9    S    
C11   N1    D    
O18   C47   S    
C5    C25   A    
C20   H3    S    
C1    O1    A    
C41   H39   S    
C42   H43   S    
C37   H30   S    
C13   C15   S    
Cu1   O4    S    
C48   H56   S    
C22   C24   A    
Cu2   O3    S    
C44   H48   S    
C47   H55   S    
C41   C42   S    
C4    C27   A    
C39   C40   S    
C12   O17   S    
C30   H13   S    
C7    C9    D    
C16   C22   A    
Cu1   O1    S    
C1    C7    S    
Cu2   O6    S    
C8    C10   D    
C2    C8    S    
C24   C28   A    
C34   H23   S    
C3    C5    A    
C19   H4    S    
C45   H50   S    
C11   C12   S    
C30   H11   S    
C40   H38   S    
C37   C38   S    
O16   C43   S    
C17   O11   S    
C17   C25   A    
C18   O12   S    
C47   C48   S    
C21   C23   A    
C47   H54   S    
C46   H51   S    
C13   O5    A    
C36   H28   S    
O10   C31   S    
C6    C26   A    
C43   H45   S    
C2    O2    A    
Cu1   N2    S    
C17   C19   A    
Cu2   N1    S    
C14   C16   S    
O11   C33   S    
C34   H21   S    
C41   H40   S    
C45   C46   S    
C38   H32   S    
C15   C21   A    
C23   C25   A    
C42   H42   S    
O9    C29   S    
C27   C28   A    
C48   H57   S    
Cu2   O2    S    
O14   C39   S    
C44   H46   S    
C9    O16   S    
C43   C44   S    
