data_mof_unit_6063.cif
_audit_creation_date              2012-12-11T15:35:02-0500
_audit_creation_method            fapswitch 2.2
_symmetry_space_group_name_H-M    P1
_symmetry_Int_Tables_number       1
_space_group_crystal_system       triclinic
_cell_length_a                    30.576729
_cell_length_b                    7.244679
_cell_length_c                    26.002245
_cell_angle_alpha                 90.047158
_cell_angle_beta                  112.043314
_cell_angle_gamma                 89.964483
_cell_volume                      5338.92616006

loop_
_atom_site_label
_atom_site_type_symbol
_atom_type_description
_atom_site_fract_x
_atom_site_fract_y
_atom_site_fract_z
_atom_type_partial_charge
O1    O     O_R   0.295360 0.592990 0.320420 -0.532441
O2    O     O_R   0.704640 0.407010 0.679580 -0.532441
O3    O     O_R   0.204640 0.092990 0.179580 -0.532086
O4    O     O_R   0.795360 0.907010 0.820420 -0.532087
O5    O     O_R   0.294060 0.265620 0.213230 -0.540853
O6    O     O_R   0.705940 0.734380 0.786770 -0.540854
O7    O     O_R   0.205940 0.765620 0.286770 -0.541000
O8    O     O_R   0.794060 0.234380 0.713230 -0.541001
C1    C     C_R   0.304199 0.432229 0.199551 0.697303
C2    C     C_R   0.695800 0.567771 0.800449 0.697303
C3    C     C_R   0.195772 0.932355 0.300410 0.697234
C4    C     C_R   0.804228 0.067644 0.699590 0.697236
O9    O     O_R   0.300850 0.263360 0.322080 -0.534409
O10   O     O_R   0.699150 0.736640 0.677920 -0.534409
O11   O     O_R   0.199150 0.763360 0.177920 -0.534806
O12   O     O_R   0.800850 0.236640 0.822080 -0.534806
O13   O     O_R   0.211480 0.091820 0.289210 -0.538577
O14   O     O_R   0.788520 0.908180 0.710790 -0.538578
O15   O     O_R   0.288520 0.591820 0.210790 -0.538582
O16   O     O_R   0.711480 0.408180 0.789210 -0.538582
C5    C     C_R   0.313279 0.431496 0.343175 0.685178
C6    C     C_R   0.686720 0.568504 0.656825 0.685178
C7    C     C_R   0.186723 0.931432 0.156822 0.684610
C8    C     C_R   0.813277 0.068568 0.843178 0.684610
O17   O     O_3   0.220670 0.426670 0.239090 -0.375061
O18   O     O_3   0.779330 0.573330 0.760910 -0.375061
O19   O     O_3   0.279330 0.926670 0.260910 -0.374327
O20   O     O_3   0.720670 0.073330 0.739090 -0.374328
V1    V     V_3+5 0.255440 0.152290 0.252020 1.417259
V2    V     V_3+5 0.744560 0.847710 0.747980 1.417258
V3    V     V_3+5 0.244560 0.652290 0.247980 1.416536
V4    V     V_3+5 0.755440 0.347710 0.752020 1.416536
C9    C     C_R   0.850262 0.063919 0.899375 -0.039580
C10   C     C_R   0.149738 0.936081 0.100624 -0.039581
C11   C     C_R   0.649737 0.563568 0.600631 -0.039758
C12   C     C_R   0.350263 0.436432 0.399369 -0.039758
C13   C     C_R   0.873872 0.129313 0.997241 -0.150747
C14   C     C_R   0.126128 0.870687 0.002759 -0.150747
C15   C     C_R   0.626225 0.626462 0.502663 -0.152083
C16   C     C_R   0.373774 0.373538 0.497337 -0.152083
C17   C     C_R   0.839008 0.119764 0.944285 -0.157917
C18   C     C_R   0.160992 0.880236 0.055714 -0.157916
C19   C     C_R   0.661060 0.617668 0.555651 -0.160006
C20   C     C_R   0.338940 0.382332 0.444349 -0.160006
C21   C     C_R   0.897187 0.018145 0.907793 -0.209906
C22   C     C_R   0.102813 0.981855 0.092207 -0.209906
C23   C     C_R   0.602777 0.518756 0.592253 -0.210362
C24   C     C_R   0.397223 0.481244 0.407746 -0.210363
C25   C     C_R   0.933816 0.030175 0.961471 0.085939
C26   C     C_R   0.066184 0.969825 0.038529 0.085939
C27   C     C_R   0.566185 0.529945 0.538535 0.086063
C28   C     C_R   0.433815 0.470055 0.461464 0.086063
C29   C     C_R   0.920943 0.086507 0.006174 0.131131
C30   C     C_R   0.079057 0.913493 0.993826 0.131131
C31   C     C_R   0.579124 0.584530 0.493761 0.131867
C32   C     C_R   0.420876 0.415470 0.506239 0.131866
C33   C     C_R   0.982609 0.991043 0.972339 0.056618
C34   C     C_R   0.017391 0.008957 0.027661 0.056618
C35   C     C_R   0.517370 0.491555 0.527688 0.056549
C36   C     C_R   0.482630 0.508445 0.472312 0.056549
C37   C     C_R   0.002185 0.064760 0.070241 -0.180930
C38   C     C_R   0.997815 0.935240 0.929759 -0.180929
C39   C     C_R   0.497899 0.562531 0.429663 -0.181773
C40   C     C_R   0.502101 0.437469 0.570337 -0.181773
C41   C     C_R   0.955066 0.102185 0.059592 -0.189345
C42   C     C_R   0.044934 0.897815 0.940408 -0.189345
C43   C     C_R   0.545039 0.599259 0.440294 -0.190152
C44   C     C_R   0.454960 0.400740 0.559706 -0.190152
H1    H     H_    0.945247 0.145219 0.093752 0.134091
H2    H     H_    0.054752 0.854781 0.906248 0.134091
H3    H     H_    0.554908 0.640951 0.406079 0.134351
H4    H     H_    0.445092 0.359049 0.593921 0.134351
H5    H     H_    0.096126 0.021480 0.128517 0.097632
H6    H     H_    0.903874 0.978520 0.871483 0.097632
H7    H     H_    0.403955 0.519613 0.371389 0.097903
H8    H     H_    0.596045 0.480387 0.628611 0.097902
H9    H     H_    0.196907 0.842678 0.061791 0.113656
H10   H     H_    0.803093 0.157322 0.938209 0.113657
H11   H     H_    0.302992 0.345623 0.438311 0.116372
H12   H     H_    0.697008 0.654377 0.561689 0.116372
H13   H     H_    0.864078 0.173066 0.031339 0.126111
H14   H     H_    0.135922 0.826934 0.968661 0.126111
H15   H     H_    0.636072 0.668850 0.468507 0.125531
H16   H     H_    0.363928 0.331150 0.531492 0.125531
H17   H     H_    0.025933 0.081631 0.112673 0.128727
H18   H     H_    0.974067 0.918369 0.887327 0.128727
H19   H     H_    0.474187 0.578534 0.387185 0.129308
H20   H     H_    0.525813 0.421466 0.612814 0.129308
C45   C     C_R   0.084277 0.096601 0.467056 0.613082
C46   C     C_R   0.915724 0.903399 0.532944 0.613082
C47   C     C_R   0.421609 0.347199 0.035598 0.592316
C48   C     C_R   0.578391 0.652799 0.964402 0.592310
N1    N     N_R   0.074309 0.971550 0.424786 -0.550077
N2    N     N_R   0.925692 0.028449 0.575214 -0.550076
N3    N     N_R   0.427856 0.468580 0.077941 -0.535661
N4    N     N_R   0.572144 0.531420 0.922059 -0.535659
C49   C     C_R   0.036187 0.857203 0.411771 0.632911
C50   C     C_R   0.963814 0.142795 0.588230 0.632914
C51   C     C_R   0.462110 0.600963 0.091061 0.571490
C52   C     C_R   0.537888 0.399039 0.908938 0.571490
C53   C     C_R   0.008451 0.852690 0.444974 -0.022389
C54   C     C_R   0.991549 0.147308 0.555027 -0.022388
C55   C     C_R   0.490910 0.622246 0.059236 -0.098311
C56   C     C_R   0.509089 0.377756 0.940764 -0.098310
C57   C     C_R   0.015504 0.992878 0.485409 -0.014574
C58   C     C_R   0.984497 0.007120 0.514592 -0.014574
C59   C     C_R   0.485846 0.492494 0.016285 0.019659
C60   C     C_R   0.514153 0.507507 0.983715 0.019661
C61   C     C_R   0.053682 0.118455 0.496612 -0.031911
C62   C     C_R   0.946319 0.881544 0.503389 -0.031911
C63   C     C_R   0.452484 0.347214 0.006109 -0.050231
C64   C     C_R   0.547515 0.652786 0.993890 -0.050232
C65   C     C_R   0.973144 0.716413 0.437692 -0.068038
C66   C     C_R   0.026857 0.283584 0.562309 -0.068038
C67   C     C_R   0.523132 0.771899 0.067712 -0.090695
C68   C     C_R   0.476867 0.228103 0.932286 -0.090694
C69   C     C_R   0.941091 0.734907 0.464944 -0.071836
C70   C     C_R   0.058910 0.265091 0.535057 -0.071836
C71   C     C_R   0.550032 0.790382 0.033989 -0.054682
C72   C     C_R   0.449967 0.209620 0.966010 -0.054682
O21   O     O_2   0.123799 0.198738 0.480096 -0.538370
O22   O     O_2   0.876200 0.801265 0.519903 -0.538371
O23   O     O_2   0.384318 0.231783 0.020919 -0.535047
O24   O     O_2   0.615683 0.768211 0.979082 -0.535048
O25   O     O_2   0.024116 0.754327 0.365250 -0.515904
O26   O     O_2   0.975885 0.245670 0.634751 -0.515904
O27   O     O_2   0.467902 0.711097 0.134933 -0.547051
O28   O     O_2   0.532096 0.288908 0.865065 -0.547051
C73   C     C_R   0.873756 0.205756 0.611128 -0.080646
C74   C     C_R   0.126244 0.794243 0.388873 -0.080647
C75   C     C_R   0.606029 0.702890 0.863151 -0.084297
C76   C     C_R   0.393973 0.297115 0.136852 -0.084297
H21   H     H_    0.879016 0.327942 0.590170 0.160133
H22   H     H_    0.120984 0.672057 0.409831 0.160133
H23   H     H_    0.584866 0.822040 0.863904 0.152340
H24   H     H_    0.415138 0.177967 0.136101 0.152342
C77   C     C_R   0.844632 0.215886 0.641703 -0.204436
C78   C     C_R   0.155368 0.784113 0.358297 -0.204436
C79   C     C_R   0.636201 0.712251 0.833865 -0.209047
C80   C     C_R   0.363801 0.287753 0.166138 -0.209048
H25   H     H_    0.828051 0.346488 0.643606 0.135053
H26   H     H_    0.171950 0.653511 0.356395 0.135053
H27   H     H_    0.637664 0.839348 0.812680 0.139294
H28   H     H_    0.362340 0.160660 0.187325 0.139295
C81   C     C_R   0.836306 0.058531 0.668465 -0.051221
C82   C     C_R   0.163694 0.941469 0.331535 -0.051221
C83   C     C_R   0.663672 0.558733 0.831506 -0.053656
C84   C     C_R   0.336328 0.441267 0.168494 -0.053657
C85   C     C_R   0.858433 0.891551 0.664457 -0.213025
C86   C     C_R   0.141567 0.108449 0.335543 -0.213025
C87   C     C_R   0.660403 0.396279 0.859564 -0.200526
C88   C     C_R   0.339594 0.603717 0.140433 -0.200524
H29   H     H_    0.853126 0.767903 0.684763 0.137321
H30   H     H_    0.146873 0.232098 0.315236 0.137320
H31   H     H_    0.681245 0.275826 0.859097 0.134314
H32   H     H_    0.318750 0.724166 0.140898 0.134314
C89   C     C_R   0.888047 0.882250 0.634503 -0.084091
C90   C     C_R   0.111953 0.117750 0.365497 -0.084090
C91   C     C_R   0.630705 0.387944 0.889389 -0.089715
C92   C     C_R   0.369292 0.612052 0.110608 -0.089714
H33   H     H_    0.905012 0.752645 0.632499 0.156311
H34   H     H_    0.094988 0.247356 0.367500 0.156311
H35   H     H_    0.629299 0.262231 0.911228 0.141136
H36   H     H_    0.370697 0.737761 0.088767 0.141137
C93   C     C_R   0.895718 0.038820 0.607136 0.361860
C94   C     C_R   0.104282 0.961180 0.392864 0.361860
C95   C     C_R   0.603051 0.540767 0.891302 0.375780
C96   C     C_R   0.396949 0.459234 0.108698 0.375780
C97   C     C_2   0.970247 0.547162 0.403952 0.562173
H37   H     H_    0.936362 0.499686 0.374760 0.013757
O29   O     O_2   0.005357 0.454515 0.410763 -0.503090
C98   C     C_2   0.029754 0.452835 0.596050 0.562175
H38   H     H_    0.063640 0.500308 0.625242 0.013758
O30   O     O_2   0.994644 0.545482 0.589239 -0.503090
C99   C     C_2   0.528202 0.914875 0.110571 0.509896
H39   H     H_    0.542737 0.878183 0.154203 0.099391
O31   O     O_2   0.516184 0.074050 0.097247 -0.544724
C100  C     C_2   0.471797 0.085126 0.889428 0.509885
H40   H     H_    0.457262 0.121820 0.845796 0.099396
O32   O     O_2   0.483814 0.925952 0.902752 -0.544726
C101  C     C_2   0.903659 0.592977 0.454519 0.428721
H41   H     H_    0.866828 0.630995 0.434118 0.085947
O33   O     O_2   0.913946 0.433019 0.468683 -0.523045
C102  C     C_2   0.096342 0.407020 0.545483 0.428721
H42   H     H_    0.133173 0.369000 0.565883 0.085948
O34   O     O_2   0.086056 0.566980 0.531320 -0.523045
C103  C     C_2   0.578566 0.960832 0.038657 0.537893
H43   H     H_    0.575325 0.037577 0.001559 0.069532
O35   O     O_2   0.606477 0.014018 0.083545 -0.509285
C104  C     C_2   0.421432 0.039172 0.961341 0.537896
H44   H     H_    0.424674 0.962419 0.998437 0.069533
O36   O     O_2   0.393519 0.985994 0.916452 -0.509285

loop_
_geom_bond_atom_site_label_1
_geom_bond_atom_site_label_2
_ccdc_geom_bond_type
O17   V3    S    
C51   C55   A    
C88   C92   A    
O1    C5    A    
C104  H44   S    
C68   C100  S    
O19   V1    S    
C53   C65   A    
C97   H37   S    
C16   H16   S    
O3    C7    A    
C10   C18   A    
C48   N4    A    
O4    V2    S    
C11   C23   A    
N3    C96   S    
C80   C84   A    
C100  H40   S    
C25   C33   A    
C33   C38   A    
C99   O31   D    
C5    C12   S    
C101  H41   S    
O7    C3    A    
C6    C11   S    
C38   H18   S    
C79   C83   A    
C35   C40   A    
C26   C30   A    
C36   C39   A    
C92   H36   S    
C77   C81   A    
C23   H8    S    
C14   C18   A    
C75   H23   S    
C48   O24   S    
O16   V4    S    
O4    C8    A    
N3    C51   A    
C44   H4    S    
N2    C50   A    
C45   C61   A    
O1    V3    S    
O13   V1    S    
C102  H42   S    
C62   C69   A    
O2    V4    S    
C47   C63   A    
O3    V1    S    
C85   H29   S    
C67   C99   S    
C28   C36   A    
C56   C68   A    
C79   H27   S    
C1    O15   A    
C52   C56   A    
C15   C31   A    
C76   C80   A    
C88   H32   S    
C2    O16   A    
C16   C32   A    
O2    C6    A    
C59   C60   A    
C54   C58   A    
C10   C22   A    
C91   H35   S    
C87   H31   S    
C11   C19   A    
C43   H3    S    
C76   H24   S    
C2    C83   S    
C13   C29   A    
C34   C37   A    
O11   C7    A    
O15   V3    S    
C35   C36   A    
O12   C8    A    
C47   O23   S    
C14   H14   S    
C13   C17   A    
C46   O22   S    
C24   H7    S    
C13   H13   S    
C74   H22   S    
O10   V2    S    
N2    C93   S    
C98   O30   D    
C61   C70   A    
C46   N2    A    
O5    V1    S    
C101  O33   D    
C53   C57   A    
C39   C43   A    
O7    V3    S    
C38   C42   A    
C26   C34   A    
C80   H28   S    
C49   O25   S    
C78   H26   S    
C89   C93   A    
C17   H10   S    
O18   V4    S    
C48   C64   A    
C23   C27   A    
C76   C96   A    
C19   H12   S    
C50   C54   A    
C47   N3    A    
C65   C97   S    
C68   C72   A    
C21   H6    S    
C87   C91   A    
C4    C81   S    
C55   C67   A    
O5    C1    A    
C9    C21   A    
C54   C66   A    
C72   C104  S    
C74   C94   A    
N1    C49   A    
C100  O32   D    
C99   H39   S    
C14   C30   A    
C24   C28   A    
O8    C4    A    
C7    C10   S    
C21   C25   A    
C77   H25   S    
N4    C95   S    
O9    C5    A    
O11   V3    S    
C66   C70   A    
C37   H17   S    
C51   O27   S    
O6    V2    S    
N1    C94   S    
C73   H21   S    
C67   C71   A    
O14   V2    S    
C65   C69   A    
C12   C20   A    
C27   C35   A    
C46   C62   A    
C74   C78   A    
C40   C44   A    
C89   H33   S    
C56   C60   A    
C29   C41   A    
C98   H38   S    
C90   C94   A    
C55   C59   A    
C58   C62   A    
C50   O26   S    
O9    V1    S    
C57   C61   A    
C3    O13   A    
C104  O36   D    
C86   C90   A    
C39   H19   S    
C52   O28   S    
C59   C63   A    
C20   H11   S    
C84   C88   A    
O6    C2    A    
C64   C71   A    
C15   C19   A    
C3    C82   S    
C82   C86   A    
C30   C42   A    
C70   C102  S    
O12   V4    S    
C57   C58   A    
C22   C26   A    
C1    C84   S    
C8    C9    S    
C73   C93   A    
C9    C17   A    
C91   C95   A    
O10   C6    A    
O20   V2    S    
C15   H15   S    
C31   C43   A    
C32   C44   A    
C33   C34   A    
C42   H2    S    
O8    V4    S    
C45   O21   S    
C78   C82   A    
C66   C98   S    
C41   H1    S    
C83   C87   A    
N4    C52   A    
C102  O34   D    
C12   C24   A    
C69   C101  S    
C27   C31   A    
C92   C96   A    
C37   C41   A    
C45   N1    A    
C71   C103  S    
C103  O35   D    
C25   C29   A    
C75   C79   A    
C90   H34   S    
C75   C95   A    
C60   C64   A    
C16   C20   A    
C73   C77   A    
C18   H9    S    
C86   H30   S    
C4    O14   A    
C81   C85   A    
C63   C72   A    
C103  H43   S    
C85   C89   A    
C40   H20   S    
C22   H5    S    
C49   C53   A    
C28   C32   A    
C97   O29   D    
