data_mof_unit_60932.cif
_audit_creation_date              2012-10-26T18:19:13-0400
_audit_creation_method            fapswitch 2.2
_symmetry_space_group_name_H-M    P1
_symmetry_Int_Tables_number       1
_space_group_crystal_system       triclinic
_cell_length_a                    18.742984
_cell_length_b                    18.672641
_cell_length_c                    18.950386
_cell_angle_alpha                 109.392449
_cell_angle_beta                  109.844708
_cell_angle_gamma                 109.055939
_cell_volume                      5112.92733582

loop_
_atom_site_label
_atom_site_type_symbol
_atom_type_description
_atom_site_fract_x
_atom_site_fract_y
_atom_site_fract_z
_atom_type_partial_charge
C1    C     C_R   0.381729 0.381160 0.500268 0.552882
C2    C     C_R   0.261931 0.252497 0.576493 0.019760
C3    C     C_3   0.328147 0.246338 0.641732 -0.264491
C4    C     C_R   0.621707 0.502073 0.619116 0.546697
C5    C     C_3   0.397582 0.317153 0.642096 -0.289694
C6    C     C_R   0.241960 0.425673 0.244350 0.017667
C7    C     C_R   0.315143 0.502120 0.315213 0.018853
C8    C     C_R   0.322683 0.581806 0.320799 -0.155291
C9    C     C_R   0.258026 0.581744 0.255027 -0.154679
C10   C     C_R   0.183866 0.502096 0.184756 0.017401
C11   C     C_R   0.178537 0.425723 0.183193 0.017665
C12   C     C_3   0.809804 0.497297 0.806179 0.041466
C13   C     C_3   0.124683 0.328688 0.132383 -0.270541
C14   C     C_3   0.196706 0.328686 0.202736 -0.274597
C15   C     C_R   0.670724 0.690031 0.425704 0.013255
C16   C     C_R   0.619190 0.619170 0.500852 0.547095
C17   C     C_R   0.684414 0.687968 0.501767 0.017739
C18   C     C_R   0.757599 0.759084 0.580559 -0.160195
C19   C     C_R   0.822822 0.822831 0.580506 -0.160943
C20   C     C_R   0.812958 0.817743 0.501820 0.013653
C21   C     C_R   0.733491 0.754534 0.425830 0.027352
C22   C     C_3   0.716165 0.691820 0.340531 -0.279665
C23   C     C_3   0.812597 0.586226 0.843620 -0.250956
C24   C     C_3   0.646703 0.621207 0.340330 -0.270645
C25   C     C_R   0.998012 0.381173 0.879516 0.543599
C26   C     C_R   0.877822 0.499031 0.877028 0.539566
C27   C     C_R   0.997243 0.619482 0.115802 0.551476
C28   C     C_R   0.380814 0.500338 0.380991 0.554690
C29   C     C_R   0.116711 0.500316 0.116821 0.555964
C30   C     C_R   0.999183 0.118598 0.617803 0.554333
C31   C     C_R   0.118826 0.118438 0.499540 0.544898
C32   C     C_R   0.001536 0.882056 0.382399 0.549984
C33   C     C_R   0.880968 0.881285 0.499939 0.549048
C34   C     C_3   0.716369 0.423880 0.771857 -0.235013
C35   C     C_R   0.923562 0.239585 0.745717 0.012855
C36   C     C_R   0.999556 0.315109 0.814403 0.013418
C37   C     C_R   0.078915 0.326207 0.817255 -0.155350
C38   C     C_R   0.079312 0.261238 0.752912 -0.155735
C39   C     C_R   0.000089 0.186174 0.683574 0.019886
C40   C     C_3   0.757892 0.487715 0.658321 -0.063912
C41   C     C_R   0.923688 0.179079 0.682314 0.013990
C42   C     C_3   0.827367 0.121117 0.634624 -0.272278
C43   C     C_3   0.827040 0.190586 0.706547 -0.274340
C44   C     C_R   0.971716 0.669431 0.238715 0.020763
C45   C     C_R   0.325073 0.316780 0.576626 0.024808
C46   C     C_R   0.003042 0.688259 0.186477 -0.008878
C47   C     C_R   0.046786 0.776214 0.207832 -0.145089
C48   C     C_R   0.048976 0.842267 0.273439 -0.014892
C49   C     C_R   0.006607 0.818800 0.317888 0.035582
C50   C     C_R   0.974032 0.733671 0.303567 0.005093
C51   C     C_3   0.886983 0.672850 0.285561 -0.293626
C52   C     C_3   0.828726 0.485243 0.729570 -0.078391
C53   C     C_3   0.884549 0.602095 0.214392 -0.258082
C54   C     C_3   0.738245 0.585768 0.775996 -0.225187
C55   C     C_3   0.647464 0.423577 0.698241 -0.262527
C56   C     C_R   0.313970 0.315188 0.499447 0.021366
C57   C     C_3   0.691269 0.501761 0.686535 0.058521
C58   C     C_3   0.796927 0.546646 0.624101 -0.290488
C59   C     C_3   0.848653 0.645217 0.685772 -0.439764
C60   C     C_3   0.834011 0.400236 0.692358 -0.299744
C61   C     C_3   0.871633 0.396689 0.632074 -0.453643
C62   C     C_3   0.095201 0.935693 0.293330 -0.280229
C63   C     C_3   0.186281 0.987113 0.372841 -0.434074
C64   C     C_R   0.233614 0.254196 0.423009 -0.159193
C65   C     C_R   0.168524 0.190788 0.423408 -0.161220
C66   C     C_R   0.184638 0.186470 0.499672 0.009728
Cu1   Cu    Cu3+1 0.500370 0.438220 0.438550 0.892345
Cu2   Cu    Cu3+1 0.499630 0.561780 0.561450 0.918099
Cu3   Cu    Cu3+1 0.935500 0.438280 0.997350 0.901043
Cu4   Cu    Cu3+1 0.059110 0.561800 0.997270 0.904050
Cu5   Cu    Cu3+1 0.062130 0.000020 0.562160 0.909556
Cu6   Cu    Cu3+1 0.937870 0.000080 0.437940 0.912169
H1    H     H_    0.701457 0.435096 0.825361 0.132308
H2    H     H_    0.378732 0.643452 0.374726 0.126484
H3    H     H_    0.718531 0.421230 0.600156 0.138876
H4    H     H_    0.265326 0.643395 0.259684 0.127960
H5    H     H_    0.061495 0.304813 0.131346 0.145037
H6    H     H_    0.120241 0.301267 0.068266 0.135368
H7    H     H_    0.175235 0.305385 0.242686 0.128182
H8    H     H_    0.233414 0.300732 0.179079 0.143634
H9    H     H_    0.766203 0.763203 0.641463 0.114952
H10   H     H_    0.881122 0.874833 0.641276 0.127016
H11   H     H_    0.689211 0.707239 0.289092 0.140144
H12   H     H_    0.690610 0.587301 0.798268 0.130316
H13   H     H_    0.772365 0.681533 0.346328 0.124157
H14   H     H_    0.579308 0.596562 0.289480 0.138198
H15   H     H_    0.662608 0.569893 0.344752 0.147699
H16   H     H_    0.140245 0.383934 0.869530 0.129369
H17   H     H_    0.140839 0.270032 0.756752 0.122995
H18   H     H_    0.795257 0.115679 0.570376 0.143018
H19   H     H_    0.808789 0.058148 0.634596 0.136287
H20   H     H_    0.794932 0.225314 0.683774 0.123067
H21   H     H_    0.807713 0.167459 0.747601 0.144946
H22   H     H_    0.076683 0.793239 0.171663 0.132481
H23   H     H_    0.806178 0.599636 0.902336 0.109719
H24   H     H_    0.891704 0.660958 0.340269 0.133367
H25   H     H_    0.894030 0.540960 0.756026 0.158191
H26   H     H_    0.836908 0.691107 0.260509 0.132124
H27   H     H_    0.888046 0.549552 0.228169 0.142248
H28   H     H_    0.832731 0.579035 0.148404 0.140244
H29   H     H_    0.763089 0.646536 0.773214 0.121342
H30   H     H_    0.876403 0.640275 0.864026 0.121011
H31   H     H_    0.596217 0.427549 0.713801 0.110752
H32   H     H_    0.614473 0.360622 0.637187 0.112872
H33   H     H_    0.711948 0.358712 0.748586 0.120233
H34   H     H_    0.221862 0.254869 0.363234 0.113236
H35   H     H_    0.803564 0.671360 0.685861 0.139427
H36   H     H_    0.893262 0.662679 0.752224 0.143857
H37   H     H_    0.888696 0.677278 0.662186 0.141655
H38   H     H_    0.840971 0.527728 0.605720 0.137397
H39   H     H_    0.744138 0.532950 0.563442 0.169853
H40   H     H_    0.825289 0.388080 0.570746 0.140280
H41   H     H_    0.934975 0.457098 0.663885 0.154151
H42   H     H_    0.882832 0.339936 0.615963 0.152578
H43   H     H_    0.876776 0.395466 0.745738 0.165791
H44   H     H_    0.768477 0.341454 0.656612 0.132862
H45   H     H_    0.107562 0.142784 0.363463 0.126313
H46   H     H_    0.219911 0.054570 0.384684 0.140613
H47   H     H_    0.182379 0.990780 0.430963 0.175653
H48   H     H_    0.225525 0.955503 0.362321 0.151736
H49   H     H_    0.101885 0.937394 0.237728 0.132317
H50   H     H_    0.056688 0.968267 0.303619 0.159972
H51   H     H_    0.328085 0.268210 0.703875 0.136494
H52   H     H_    0.325702 0.182238 0.614961 0.143339
H53   H     H_    0.437498 0.379888 0.704405 0.133048
H54   H     H_    0.435540 0.294217 0.615733 0.125346
O1    O     O_R   0.410140 0.357660 0.448100 -0.513201
O2    O     O_R   0.947040 0.090210 0.537310 -0.506477
O3    O     O_R   0.142640 0.090190 0.552500 -0.518687
O4    O     O_R   0.409510 0.462000 0.551890 -0.501974
O5    O     O_R   0.037710 0.090250 0.447610 -0.514686
O6    O     O_R   0.052960 0.909890 0.462790 -0.510011
O7    O     O_R   0.948020 0.909940 0.357900 -0.519944
O8    O     O_R   0.962290 0.909850 0.552490 -0.511689
O9    O     O_R   0.857360 0.909910 0.447600 -0.506855
O10   O     O_R   0.590970 0.447830 0.538770 -0.529086
O11   O     O_R   0.590340 0.552170 0.642560 -0.519767
O12   O     O_R   0.049970 0.462000 0.907620 -0.513363
O13   O     O_R   0.590490 0.538000 0.448110 -0.519699
O14   O     O_R   0.589860 0.642340 0.551900 -0.512065
O15   O     O_R   0.409660 0.447830 0.357440 -0.509484
O16   O     O_R   0.409030 0.552170 0.461230 -0.507790
O17   O     O_R   0.945590 0.357690 0.907690 -0.511298
O18   O     O_R   0.854460 0.447890 0.906680 -0.520180
O19   O     O_R   0.958840 0.552200 0.906620 -0.521750
O20   O     O_R   0.944630 0.538080 0.087010 -0.508339
O21   O     O_R   0.049020 0.642390 0.086940 -0.517737
O22   O     O_R   0.035760 0.447880 0.088010 -0.506724
O23   O     O_R   0.140150 0.552190 0.087940 -0.511641
O24   O     O_R   0.051980 0.090160 0.642200 -0.513035

loop_
_geom_bond_atom_site_label_1
_geom_bond_atom_site_label_2
_ccdc_geom_bond_type
C31   C66   S    
C41   C42   S    
C54   H29   S    
C35   C36   A    
C62   H50   S    
C29   O22   A    
C54   H12   S    
C7    C8    A    
C39   C41   A    
C16   O14   A    
C53   H27   S    
Cu3   O18   S    
C38   H17   S    
C62   C63   S    
Cu6   O5    S    
Cu6   O2    S    
C36   C37   A    
C1    C56   S    
C18   C19   A    
C32   O7    A    
C30   O24   A    
C23   H30   S    
Cu5   O3    S    
C55   H31   S    
C52   H25   S    
C18   H9    S    
C42   H19   S    
C22   H13   S    
C31   O5    A    
C52   C60   S    
C43   H21   S    
C4    O11   A    
C13   H6    S    
C33   O8    A    
C19   C20   A    
C45   C56   A    
C3    H51   S    
C16   C17   S    
C5    H54   S    
C56   C64   A    
Cu2   O16   S    
C9    H4    S    
C14   H8    S    
C19   H10   S    
C35   C43   S    
C9    C10   A    
C51   H24   S    
C4    O10   A    
C51   H26   S    
Cu5   O6    S    
C34   C55   S    
C2    C45   A    
C13   C14   S    
Cu3   O20   S    
Cu2   O11   S    
C25   O17   A    
Cu4   O23   S    
Cu5   O8    S    
C26   O18   A    
C44   C53   S    
C12   C52   S    
C44   C46   A    
C50   C51   S    
C30   O2    A    
C53   H28   S    
C43   H20   S    
C13   H5    S    
C40   C58   S    
C37   H16   S    
C58   H39   S    
C1    O4    A    
C6    C11   A    
C63   H46   S    
C8    C9    A    
Cu6   O9    S    
C25   C36   S    
C3    C5    S    
C58   C59   S    
C40   C52   S    
C5    C45   S    
C55   H32   S    
C59   H35   S    
C7    C28   S    
Cu1   Cu2   S    
C12   C26   S    
C60   C61   S    
C42   H18   S    
C4    C57   S    
C26   O19   A    
C37   C38   A    
Cu1   O1    S    
C6    C14   S    
C63   H47   S    
C33   O9    A    
C48   C62   S    
C47   C48   A    
C12   C23   S    
C8    H2    S    
C17   C18   A    
Cu4   O19   S    
C14   H7    S    
Cu2   O4    S    
C20   C33   S    
C27   C46   S    
C48   C49   A    
Cu4   O12   S    
C55   C57   S    
C61   H41   S    
C22   C24   S    
C60   H44   S    
C16   O13   A    
C28   O16   A    
C42   C43   S    
C12   C34   S    
Cu1   O15   S    
C32   O6    A    
Cu1   O13   S    
C3    H52   S    
C23   C54   S    
C44   C50   A    
C15   C17   A    
C46   C47   A    
C15   C24   S    
C40   C57   S    
C58   H38   S    
C34   H33   S    
C1    O1    A    
C2    C66   A    
C25   O12   A    
C64   H34   S    
C6    C7    A    
C28   O15   A    
Cu3   O17   S    
C59   H36   S    
C40   H3    S    
C64   C65   A    
Cu1   O10   S    
Cu5   Cu6   S    
C31   O3    A    
C22   H11   S    
C63   H48   S    
C11   C13   S    
C10   C29   S    
Cu6   O7    S    
C38   C39   A    
C27   O20   A    
C59   H37   S    
C47   H22   S    
C23   H23   S    
C30   C39   S    
C2    C3    S    
C65   C66   A    
Cu3   Cu4   S    
C35   C41   A    
C24   H15   S    
C32   C49   S    
Cu2   O14   S    
C10   C11   A    
C34   H1    S    
C29   O23   A    
Cu5   O24   S    
C15   C21   A    
C20   C21   A    
C27   O21   A    
C49   C50   A    
C5    H53   S    
C61   H42   S    
Cu3   O22   S    
C65   H45   S    
C60   H43   S    
Cu4   O21   S    
C51   C53   S    
C21   C22   S    
C61   H40   S    
C24   H14   S    
C62   H49   S    
C54   C57   S    
