data_mof_unit_15236.cif
_audit_creation_date              2012-10-26T21:02:54-0400
_audit_creation_method            fapswitch 2.2
_symmetry_space_group_name_H-M    P1
_symmetry_Int_Tables_number       1
_space_group_crystal_system       triclinic
_cell_length_a                    12.360207
_cell_length_b                    13.167307
_cell_length_c                    23.488962
_cell_angle_alpha                 77.317454
_cell_angle_beta                  101.551869
_cell_angle_gamma                 116.630354
_cell_volume                      3311.11533946

loop_
_atom_site_label
_atom_site_type_symbol
_atom_type_description
_atom_site_fract_x
_atom_site_fract_y
_atom_site_fract_z
_atom_type_partial_charge
C1    C     C_R   0.854905 0.286461 0.505131 0.518063
C2    C     C_R   0.923570 0.536559 0.866383 0.400942
C3    C     C_R   0.060306 0.620910 0.749936 0.052818
C4    C     C_R   0.000424 0.500722 0.608573 0.540622
C5    C     C_R   0.054179 0.615390 0.689866 -0.012402
C6    C     C_R   0.003925 0.506670 0.670562 0.036157
C7    C     C_R   0.957969 0.404041 0.710697 -0.060418
C8    C     C_R   0.964702 0.410909 0.770388 0.038927
C9    C     C_R   0.014865 0.518295 0.789781 0.225330
C10   C     C_R   0.044255 0.437821 0.246858 0.032958
C11   C     C_R   0.058702 0.444438 0.307444 -0.020548
C12   C     C_R   0.213008 0.532930 0.051820 -0.099439
C13   C     C_R   0.990584 0.488692 0.328049 -0.039941
C14   C     C_R   0.899827 0.510954 0.288417 -0.173875
C15   C     C_R   0.888390 0.505987 0.228735 0.016895
C16   C     C_R   0.144964 0.713476 0.491830 0.538242
C17   C     C_R   0.980400 0.495523 0.205953 0.182205
C18   C     C_R   0.278081 0.016561 0.415954 -0.124750
C19   C     C_R   0.227774 0.835338 0.480390 -0.015595
C20   C     C_R   0.815890 0.083033 0.540500 -0.135541
C21   C     C_R   0.738093 0.966922 0.548737 -0.133061
C22   C     C_R   0.614767 0.930249 0.528505 -0.102752
C23   C     C_R   0.215019 0.523389 0.993742 -0.018254
C24   C     C_R   0.566695 0.009686 0.499032 0.028101
C25   C     C_R   0.649845 0.124383 0.481869 0.024393
C26   C     C_R   0.439515 0.977033 0.482234 0.016819
C27   C     C_R   0.401289 0.051003 0.438048 0.040137
C28   C     C_R   0.998080 0.497087 0.390982 0.547499
C29   C     C_R   0.486559 0.158053 0.415586 -0.129948
C30   C     C_R   0.608665 0.194939 0.437572 -0.116766
C31   C     C_R   0.348354 0.874630 0.507937 -0.032708
C32   C     C_R   0.192574 0.907697 0.435479 -0.143538
C33   C     C_R   0.772993 0.163242 0.507762 -0.001712
C34   C     C_R   0.117029 0.525893 0.950154 0.043832
C35   C     C_R   0.349750 0.328222 0.592859 -0.116203
C36   C     C_R   0.759711 0.646421 0.421085 0.051702
C37   C     C_R   0.663430 0.678483 0.403762 -0.150289
C38   C     C_R   0.559947 0.623025 0.433263 -0.121532
C39   C     C_R   0.551628 0.534328 0.480791 -0.003839
C40   C     C_R   0.933908 0.575743 0.101504 0.412274
C41   C     C_R   0.653094 0.504945 0.496877 0.165039
C42   C     C_R   0.447634 0.474336 0.513136 -0.020313
C43   C     C_R   0.448528 0.386182 0.560354 0.039900
C44   C     C_R   0.548320 0.357202 0.575016 -0.035902
C45   C     C_R   0.020271 0.539088 0.966855 -0.038946
C46   C     C_R   0.648254 0.417827 0.543988 -0.067428
C47   C     C_R   0.342265 0.497686 0.500891 0.061337
C48   C     C_R   0.249808 0.354093 0.579669 0.160162
C49   C     C_R   0.110767 0.545960 0.127030 0.407152
C50   C     C_R   0.115671 0.542569 0.068269 0.013456
C51   C     C_R   0.019573 0.546594 0.025857 -0.041056
C52   C     C_R   0.927174 0.566002 0.042100 0.015883
C53   C     C_1   0.137321 0.398812 0.347618 0.222423
C54   C     C_1   0.767926 0.479860 0.197446 0.259120
C55   C     C_1   0.371685 0.817500 0.566263 0.180762
C56   C     C_R   0.924450 0.546334 0.924559 0.016374
C57   C     C_3   0.322931 0.510632 0.980899 -0.328920
C58   C     C_3   0.151151 0.284472 0.619393 -0.336589
C59   C     C_3   0.551265 0.261332 0.623827 -0.402780
C60   C     C_1   0.732902 0.591261 0.012144 0.275142
C61   C     C_3   0.115779 0.736624 0.771241 -0.350235
C62   C     C_3   0.101731 0.726578 0.647349 -0.373643
C63   C     C_3   0.899594 0.286704 0.690896 -0.401470
C64   C     C_1   0.918590 0.307402 0.812532 0.241323
C65   C     C_3   0.076016 0.351785 0.228529 -0.342256
C66   C     C_R   0.832233 0.564802 0.940835 -0.125609
C67   C     C_R   0.833451 0.576196 0.998673 -0.023426
C68   C     C_R   0.111546 0.517631 0.890305 0.403443
Cu1   Cu    Cu3+1 0.098270 0.475410 0.513370 0.961818
Cu2   Cu    Cu3+1 0.901730 0.524590 0.486630 0.907152
H1    H     H_    0.286990 0.529981 0.084875 0.170085
H2    H     H_    0.348747 0.261616 0.629469 0.103375
H3    H     H_    0.334777 0.562726 0.465538 0.125050
H4    H     H_    0.839562 0.689982 0.397913 0.129062
H5    H     H_    0.488244 0.651290 0.418049 0.110841
H6    H     H_    0.669059 0.746585 0.367341 0.117705
H7    H     H_    0.721729 0.394188 0.558568 0.190059
H8    H     H_    0.758562 0.570736 0.908353 0.170405
H9    H     H_    0.373182 0.583826 0.948250 0.190023
H10   H     H_    0.388657 0.510194 0.020754 0.141518
H11   H     H_    0.291848 0.427860 0.964553 0.184567
H12   H     H_    0.832482 0.526021 0.304310 0.143210
H13   H     H_    0.068246 0.297454 0.607969 0.189644
H14   H     H_    0.122927 0.191521 0.619648 0.080582
H15   H     H_    0.187681 0.303706 0.664907 0.119656
H16   H     H_    0.635523 0.248522 0.627856 0.124376
H17   H     H_    0.547117 0.281488 0.666609 0.149878
H18   H     H_    0.473164 0.178959 0.614821 0.140410
H19   H     H_    0.211620 0.785248 0.761414 0.134370
H20   H     H_    0.062727 0.786508 0.749088 0.133801
H21   H     H_    0.117644 0.730363 0.819183 0.152481
H22   H     H_    0.094846 0.714142 0.601588 0.156381
H23   H     H_    0.099628 0.878846 0.414340 0.129372
H24   H     H_    0.049177 0.776552 0.646837 0.125208
H25   H     H_    0.199435 0.778573 0.661001 0.148386
H26   H     H_    0.888709 0.290061 0.642657 0.119910
H27   H     H_    0.955675 0.238848 0.711246 0.142472
H28   H     H_    0.806942 0.237451 0.704947 0.141749
H29   H     H_    0.032487 0.266711 0.255655 0.113600
H30   H     H_    0.040611 0.338259 0.182241 0.141214
H31   H     H_    0.176068 0.378904 0.235451 0.184606
H32   H     H_    0.458617 0.214131 0.381066 0.124179
H33   H     H_    0.248769 0.071875 0.381572 0.125828
H34   H     H_    0.909933 0.109915 0.559726 0.125933
H35   H     H_    0.559427 0.838720 0.533911 0.133226
H36   H     H_    0.773053 0.905106 0.571925 0.128767
H37   H     H_    0.670651 0.276889 0.416826 0.153862
N1    N     N_R   0.005772 0.536033 0.144090 -0.383057
N2    N     N_R   0.016131 0.523006 0.850548 -0.399288
N3    N     N_R   0.246280 0.438190 0.533650 -0.214171
N4    N     N_R   0.754320 0.561190 0.466710 -0.238555
N5    N     N_1   0.200157 0.362201 0.379478 -0.302791
N6    N     N_1   0.671021 0.458242 0.172770 -0.252418
N7    N     N_1   0.389879 0.771795 0.612767 -0.292295
N8    N     N_1   0.652305 0.603312 0.022806 -0.259055
N9    N     N_1   0.881811 0.224818 0.846248 -0.273799
O1    O     O_R   0.972510 0.318130 0.516820 -0.513366
O2    O     O_R   0.082990 0.479280 0.429170 -0.481981
O3    O     O_R   0.917010 0.520800 0.406580 -0.513456
O4    O     O_2   0.881956 0.636823 0.114752 -0.462477
O5    O     O_2   0.211440 0.563180 0.165946 -0.498476
O6    O     O_2   0.200012 0.505015 0.871256 -0.504837
O7    O     O_2   0.831467 0.541571 0.825547 -0.493386
O8    O     O_R   0.806530 0.359650 0.494230 -0.532496
O9    O     O_R   0.082990 0.479200 0.593420 -0.496022
O10   O     O_R   0.917010 0.520720 0.570830 -0.519876
O11   O     O_R   0.193470 0.640350 0.505770 -0.489914
O12   O     O_R   0.027490 0.681870 0.483180 -0.510792

loop_
_geom_bond_atom_site_label_1
_geom_bond_atom_site_label_2
_ccdc_geom_bond_type
C48   N3    A    
C2    N2    A    
C64   N9    T    
C30   H37   S    
C27   C29   A    
C57   H9    S    
C65   H31   S    
C19   C31   A    
C1    C33   S    
C7    C8    A    
C39   C41   A    
C2    O7    S    
C12   C23   A    
C26   C27   A    
C29   C30   A    
C4    O9    A    
C21   C22   A    
C36   C37   A    
C24   C26   A    
C63   H28   S    
C5    C6    A    
C19   C32   A    
C44   C59   S    
C54   N6    T    
Cu1   O2    S    
C60   C67   S    
C59   H18   S    
C45   C56   A    
C61   H19   S    
C8    C9    A    
C62   H22   S    
C29   H32   S    
C41   C46   A    
C13   C28   S    
C39   C42   A    
C35   C43   A    
C21   H36   S    
C11   C53   S    
C40   N1    A    
Cu2   O10   S    
C66   C67   A    
Cu1   O9    S    
C26   C31   A    
C62   H25   S    
C57   H10   S    
C35   C48   A    
C44   C46   A    
C49   N1    A    
C38   H5    S    
C3    C61   S    
C9    N2    S    
C66   H8    S    
C51   C52   A    
C15   C54   S    
C24   C25   A    
C47   H3    S    
C4    C6    S    
Cu2   N4    S    
C17   N1    S    
C34   C68   A    
C40   C52   A    
C65   H29   S    
C63   H26   S    
C43   C44   A    
C37   C38   A    
C3    C9    A    
C58   H14   S    
Cu1   N3    S    
Cu2   O3    S    
C23   C34   A    
C49   O5    S    
C36   N4    A    
C50   C51   A    
C34   C45   A    
C1    O1    A    
C48   C58   S    
C16   O12   A    
C7    C63   S    
C52   C67   A    
C36   H4    S    
C8    C64   S    
C20   C33   A    
C53   N5    T    
C40   O4    S    
C37   H6    S    
C35   H2    S    
C62   H24   S    
C57   H11   S    
C18   C32   A    
C42   C43   A    
C14   H12   S    
C68   O6    S    
C47   N3    A    
C58   H15   S    
C61   H20   S    
C10   C65   S    
Cu2   O12   S    
C25   C30   A    
C23   C57   S    
C68   N2    A    
C12   H1    S    
C18   C27   A    
C65   H30   S    
C3    C5    A    
C28   O3    A    
C46   H7    S    
C12   C50   A    
C15   C17   A    
C6    C7    A    
C20   H34   S    
C55   N7    T    
C22   H35   S    
C4    O10   A    
C1    O8    A    
C63   H27   S    
C28   O2    A    
C58   H13   S    
C18   H33   S    
C11   C13   A    
C38   C39   A    
C16   C19   S    
C56   C66   A    
Cu1   O1    S    
C5    C62   S    
C32   H23   S    
C22   C24   A    
C42   C47   A    
Cu1   Cu2   S    
C16   O11   A    
C59   H17   S    
C59   H16   S    
C10   C11   A    
Cu2   O8    S    
C20   C21   A    
Cu1   O11   S    
C49   C50   A    
C41   N4    A    
C45   C51   A    
C14   C15   A    
C60   N8    T    
C2    C56   A    
C10   C17   A    
C31   C55   S    
C13   C14   A    
C61   H21   S    
C25   C33   A    
