data_mof_unit_47231.cif
_audit_creation_date              2013-03-05T16:35:44-0500
_audit_creation_method            fapswitch 2.2
_symmetry_space_group_name_H-M    P1
_symmetry_Int_Tables_number       1
_space_group_crystal_system       triclinic
_cell_length_a                    19.426924
_cell_length_b                    9.080917
_cell_length_c                    7.901626
_cell_angle_alpha                 90.011492
_cell_angle_beta                  90.002694
_cell_angle_gamma                 90.000163
_cell_volume                      1393.95966687

loop_
_atom_site_label
_atom_site_type_symbol
_atom_site_description
_atom_site_fract_x
_atom_site_fract_y
_atom_site_fract_z
_atom_type_partial_charge
O1    O     O_R   0.500000 0.288390 0.642760 -0.562344
O2    O     O_R   0.500000 0.711610 0.357240 -0.562441
O3    O     O_R   0.500000 0.711610 0.642760 -0.575481
O4    O     O_R   0.500000 0.288390 0.357240 -0.575507
C1    C     C_R   0.500012 0.220499 0.499987 0.848181
C2    C     C_R   0.500010 0.779501 0.500012 0.848009
O5    O     O_R   0.400140 0.500000 0.642830 -0.553269
O6    O     O_R   0.599860 0.500000 0.357170 -0.529698
O7    O     O_R   0.599860 0.500000 0.642830 -0.529675
O8    O     O_R   0.400140 0.500000 0.357170 -0.553349
C3    C     C_R   0.367576 0.499979 0.499994 0.914655
C4    C     C_R   0.633490 0.499988 0.499997 0.863220
Cu1   Cu    Cu3+1 0.500000 0.500000 0.669080 1.151984
Cu2   Cu    Cu3+1 0.500000 0.500000 0.330920 1.151943
C5    C     C_1   0.499972 0.065502 0.499984 -0.070991
C6    C     C_1   0.499972 0.934498 0.500015 -0.071062
N1    N     N_1   0.500000 0.500000 0.076820 0.015026
N2    N     N_1   0.500000 0.500000 0.923180 0.015016
C7    C     C_R   0.255492 0.411390 0.616897 0.231998
C8    C     C_R   0.748907 0.457927 0.355708 0.226503
C9    C     C_R   0.748945 0.541942 0.644179 0.226511
C10   C     C_R   0.255495 0.588303 0.382916 0.232014
C11   C     C_R   0.183151 0.412298 0.617705 0.238722
C12   C     C_R   0.821176 0.451152 0.355927 0.215371
C13   C     C_R   0.821216 0.548654 0.643884 0.215363
C14   C     C_R   0.183161 0.587277 0.381904 0.238715
C15   C     C_R   0.147096 0.499782 0.499784 -0.253653
C16   C     C_R   0.857377 0.499888 0.499884 -0.252167
C17   C     C_R   0.291794 0.499901 0.499960 -0.326991
C18   C     C_R   0.711461 0.499953 0.499965 -0.318170
N3    N     N_R   0.036280 0.371138 0.491331 -0.125922
N4    N     N_R   0.967864 0.628560 0.508263 -0.130219
N5    N     N_R   0.967840 0.371128 0.491370 -0.130224
N6    N     N_R   0.036304 0.628497 0.508243 -0.126033
C19   C     C_R   0.932663 0.499858 0.499837 0.567857
C20   C     C_R   0.071591 0.499803 0.499776 0.550063
N7    N     N_R   0.291891 0.319686 0.734912 0.176452
O9    O     O_R   0.334031 0.218869 0.680488 -0.321731
O10   O     O_R   0.280902 0.332763 0.896668 -0.241526
N8    N     N_R   0.713823 0.444779 0.200678 0.195512
O11   O     O_R   0.684562 0.319773 0.163981 -0.267649
O12   O     O_R   0.689652 0.566653 0.138326 -0.247342
N9    N     N_R   0.713895 0.555100 0.799241 0.195479
O13   O     O_R   0.684655 0.680119 0.835966 -0.267601
O14   O     O_R   0.689718 0.433233 0.861587 -0.247349
N10   N     N_R   0.291898 0.679954 0.264894 0.176453
O15   O     O_R   0.333717 0.781408 0.319341 -0.321267
O16   O     O_R   0.281372 0.665847 0.103020 -0.242123
N11   N     N_R   0.146418 0.324121 0.738841 0.176101
O17   O     O_R   0.100882 0.384183 0.837972 -0.230030
O18   O     O_R   0.159411 0.184083 0.752822 -0.209109
N12   N     N_R   0.857109 0.400504 0.207027 0.174936
O19   O     O_R   0.915136 0.459843 0.161486 -0.231916
O20   O     O_R   0.832532 0.292345 0.117469 -0.225561
N13   N     N_R   0.857192 0.599275 0.792744 0.174970
O21   O     O_R   0.915229 0.539921 0.838195 -0.231923
O22   O     O_R   0.832643 0.707427 0.882353 -0.225546
N14   N     N_R   0.146450 0.675266 0.260521 0.175987
O23   O     O_R   0.100868 0.615078 0.161607 -0.230151
O24   O     O_R   0.159562 0.815215 0.245961 -0.209020

loop_
_geom_bond_atom_site_label_1
_geom_bond_atom_site_label_2
_geom_bond_distance
_ccdc_geom_bond_type
C12   N12   1.443256 S    
C7    C11   1.405398 A    
N9    O13   1.302168 A    
N3    N5    1.329579 A    
N7    O9    1.301211 A    
C10   C17   1.413256 A    
C11   C15   1.410736 A    
C15   C20   1.466832 S    
N9    O14   1.299329 A    
C9    C18   1.404966 A    
O7    Cu1   1.951039 S    
O3    Cu1   1.932876 S    
C8    N8    1.406860 S    
O6    C4    1.304007 A    
O3    C2    1.285538 A    
C4    C18   1.514735 S    
N13   O21   1.300283 A    
N8    O12   1.299336 A    
N1    N2    1.214007 T    
N7    O10   1.301258 A    
C8    C18   1.405006 A    
Cu1   Cu2   2.672015 S    
C13   C16   1.408591 A    
O5    C3    1.293809 A    
C14   N14   1.437784 S    
Cu2   N1    2.007802 S    
C14   C15   1.410715 A    
O2    C2    1.285491 A    
Cu1   N2    2.007802 S    
O1    C1    1.285492 A    
N8    O11   1.302169 A    
N5    C19   1.355729 A    
N12   O20   1.301197 A    
N6    C20   1.356518 A    
N13   O22   1.301198 A    
O4    Cu2   1.932877 S    
O2    Cu2   1.932793 S    
O7    C4    1.304098 A    
N10   O16   1.301588 A    
C11   N11   1.437699 S    
C1    C5    1.407523 S    
O8    C3    1.293785 A    
N14   O24   1.301262 A    
C5    C6    1.189629 T    
C7    C17   1.413330 A    
N4    C19   1.355723 A    
C12   C16   1.408575 A    
O5    Cu1   1.951022 S    
O1    Cu1   1.932794 S    
N12   O19   1.300281 A    
C3    C17   1.472211 S    
N11   O17   1.301334 A    
C10   C14   1.405273 A    
C9    C13   1.405331 A    
N10   O15   1.301434 A    
O6    Cu2   1.951020 S    
C7    N7    1.436430 S    
C10   N10   1.436266 S    
N14   O23   1.301351 A    
N3    C20   1.356518 A    
C2    C6    1.407522 S    
C8    C12   1.405313 A    
C9    N9    1.406826 S    
C13   N13   1.443263 S    
C16   C19   1.462574 S    
O8    Cu2   1.951041 S    
O4    C1    1.285536 A    
N11   O18   1.301208 A    
N4    N6    1.329573 A    
