data_mof_unit_53987.cif
_audit_creation_date              2012-12-11T16:44:24-0500
_audit_creation_method            fapswitch 2.2
_symmetry_space_group_name_H-M    P1
_symmetry_Int_Tables_number       1
_space_group_crystal_system       triclinic
_cell_length_a                    27.252535
_cell_length_b                    7.200496
_cell_length_c                    22.83255
_cell_angle_alpha                 90.005989
_cell_angle_beta                  101.537449
_cell_angle_gamma                 89.997771
_cell_volume                      4389.94008442

loop_
_atom_site_label
_atom_site_type_symbol
_atom_type_description
_atom_site_fract_x
_atom_site_fract_y
_atom_site_fract_z
_atom_type_partial_charge
O1    O     O_R   0.707300 0.594030 0.176840 -0.535319
O2    O     O_R   0.292700 0.405970 0.823160 -0.533693
O3    O     O_R   0.792700 0.094030 0.323160 -0.535236
O4    O     O_R   0.207300 0.905970 0.676840 -0.533604
O5    O     O_R   0.697330 0.262360 0.295660 -0.504257
O6    O     O_R   0.302670 0.737640 0.704340 -0.504299
O7    O     O_R   0.802670 0.762360 0.204340 -0.504126
O8    O     O_R   0.197330 0.237640 0.795660 -0.504442
C1    C     C_R   0.684898 0.432018 0.311999 0.697082
C2    C     C_R   0.315395 0.567914 0.688354 0.697737
C3    C     C_R   0.815087 0.931982 0.187975 0.696997
C4    C     C_R   0.184603 0.067918 0.811637 0.697695
O9    O     O_R   0.701410 0.264250 0.175600 -0.537630
O10   O     O_R   0.298590 0.735750 0.824400 -0.538886
O11   O     O_R   0.798590 0.764250 0.324400 -0.537559
O12   O     O_R   0.201410 0.235750 0.675600 -0.538831
O13   O     O_R   0.796800 0.094950 0.202240 -0.545308
O14   O     O_R   0.203200 0.905050 0.797760 -0.545030
O15   O     O_R   0.703200 0.594950 0.297760 -0.545237
O16   O     O_R   0.296800 0.405050 0.702240 -0.545116
C5    C     C_R   0.689794 0.432455 0.153432 0.677597
C6    C     C_R   0.310257 0.567531 0.846502 0.681184
C7    C     C_R   0.810207 0.932466 0.346567 0.678045
C8    C     C_R   0.189745 0.067519 0.653498 0.681519
O17   O     O_3   0.781290 0.427390 0.258880 -0.369452
O18   O     O_3   0.218710 0.572610 0.741120 -0.371355
O19   O     O_3   0.718710 0.927390 0.241120 -0.369586
O20   O     O_3   0.281290 0.072610 0.758880 -0.371470
V1    V     V_3+5 0.744190 0.152150 0.248350 1.457793
V2    V     V_3+5 0.255810 0.847850 0.751650 1.452865
V3    V     V_3+5 0.755810 0.652150 0.251650 1.457944
V4    V     V_3+5 0.244190 0.347850 0.748350 1.452783
C9    C     C_R   0.154676 0.062939 0.595238 -0.038236
C10   C     C_R   0.845268 0.936991 0.404881 -0.037134
C11   C     C_R   0.345328 0.563003 0.904763 -0.038189
C12   C     C_R   0.654734 0.436937 0.095118 -0.037102
C13   C     C_R   0.138430 0.130397 0.489419 -0.163121
C14   C     C_R   0.861657 0.867654 0.510597 -0.164980
C15   C     C_R   0.361600 0.630896 0.010554 -0.163144
C16   C     C_R   0.638327 0.367298 0.989421 -0.164878
C17   C     C_R   0.171531 0.119568 0.544250 -0.159859
C18   C     C_R   0.828604 0.877822 0.455735 -0.172632
C19   C     C_R   0.328492 0.619947 0.955732 -0.159997
C20   C     C_R   0.671389 0.377597 0.044275 -0.172661
C21   C     C_R   0.103862 0.017517 0.591057 -0.219958
C22   C     C_R   0.895963 0.984641 0.409217 -0.212389
C23   C     C_R   0.396130 0.517383 0.908956 -0.219911
C24   C     C_R   0.604044 0.484680 0.090775 -0.212404
C25   C     C_R   0.068907 0.030564 0.535595 0.086924
C26   C     C_R   0.930963 0.971096 0.464648 0.084871
C27   C     C_R   0.431095 0.530576 0.964407 0.086914
C28   C     C_R   0.569039 0.471035 0.035352 0.084879
C29   C     C_R   0.087516 0.087986 0.484685 0.137521
C30   C     C_R   0.912441 0.912244 0.515468 0.142169
C31   C     C_R   0.412504 0.588312 0.015297 0.137510
C32   C     C_R   0.587547 0.411953 0.984547 0.142049
C33   C     C_R   0.016315 0.991361 0.528863 0.059676
C34   C     C_R   0.983537 0.010737 0.471410 0.056564
C35   C     C_R   0.483681 0.491245 0.971145 0.059652
C36   C     C_R   0.516469 0.510789 0.028585 0.056599
C37   C     C_R   0.004488 0.067974 0.422630 -0.185631
C38   C     C_R   0.995392 0.933693 0.577618 -0.191133
C39   C     C_R   0.495535 0.568327 0.077344 -0.185725
C40   C     C_R   0.504590 0.433309 0.922407 -0.191103
C41   C     C_R   0.055275 0.105151 0.429276 -0.198927
C42   C     C_R   0.944664 0.895414 0.570900 -0.205139
C43   C     C_R   0.444755 0.605636 0.070693 -0.199012
C44   C     C_R   0.555314 0.394959 0.929128 -0.205102
H1    H     H_    0.069475 0.149112 0.390385 0.125237
H2    H     H_    0.930511 0.850572 0.609732 0.119558
H3    H     H_    0.430568 0.649843 0.109568 0.125322
H4    H     H_    0.569457 0.349927 0.890309 0.119744
H5    H     H_    0.906860 0.026575 0.368369 0.097207
H6    H     H_    0.092865 0.977601 0.632038 0.089304
H7    H     H_    0.593154 0.526737 0.131615 0.097152
H8    H     H_    0.407115 0.477227 0.867989 0.089390
H9    H     H_    0.789903 0.837744 0.452861 0.095241
H10   H     H_    0.210447 0.157010 0.547050 0.113815
H11   H     H_    0.710088 0.337480 0.047154 0.095429
H12   H     H_    0.289586 0.657552 0.952922 0.113685
H13   H     H_    0.152602 0.174912 0.450587 0.115845
H14   H     H_    0.847576 0.821542 0.549323 0.110035
H15   H     H_    0.347442 0.675659 0.049370 0.115894
H16   H     H_    0.652400 0.321031 0.950706 0.110190
H17   H     H_    0.982576 0.085866 0.378244 0.126104
H18   H     H_    0.017312 0.915581 0.621991 0.119047
H19   H     H_    0.517457 0.586385 0.121717 0.126113
H20   H     H_    0.482661 0.415055 0.878046 0.119186
C45   C     C_R   0.874242 0.114065 0.138602 -0.235014
C46   C     C_R   0.133650 0.885377 0.872009 -0.234708
C47   C     C_R   0.625540 0.614561 0.360962 -0.235150
C48   C     C_R   0.366545 0.385565 0.628182 -0.234964
H21   H     H_    0.863261 0.239482 0.158648 0.196210
H22   H     H_    0.152705 0.760114 0.862869 0.193637
H23   H     H_    0.636251 0.739667 0.340503 0.196101
H24   H     H_    0.347873 0.260019 0.637839 0.193954
C49   C     C_R   0.909285 0.128841 0.101678 -0.144352
C50   C     C_R   0.097610 0.870816 0.907598 -0.143982
C51   C     C_R   0.590360 0.629496 0.397700 -0.142774
C52   C     C_R   0.402591 0.370988 0.592600 -0.146126
H25   H     H_    0.922739 0.265702 0.093214 0.132022
H26   H     H_    0.089834 0.735593 0.924447 0.134543
H27   H     H_    0.575335 0.765069 0.404821 0.135509
H28   H     H_    0.411303 0.234337 0.577758 0.131308
C53   C     C_R   0.926156 0.970318 0.075636 0.025940
C54   C     C_R   0.072964 0.029238 0.922807 0.023872
C55   C     C_R   0.573825 0.471112 0.423815 0.022527
C56   C     C_R   0.427097 0.529485 0.576761 0.027278
C57   C     C_R   0.906477 0.796716 0.087327 -0.225455
C58   C     C_R   0.084434 0.202318 0.900695 -0.227622
C59   C     C_R   0.593583 0.297496 0.412847 -0.227211
C60   C     C_R   0.415119 0.702666 0.598738 -0.225530
H29   H     H_    0.919655 0.670937 0.069563 0.117687
H30   H     H_    0.065720 0.326277 0.911881 0.117929
H31   H     H_    0.581295 0.173477 0.432623 0.118477
H32   H     H_    0.432191 0.828389 0.586170 0.117270
C61   C     C_R   0.869659 0.781297 0.122353 0.475504
C62   C     C_R   0.119256 0.217815 0.862968 0.472502
C63   C     C_R   0.630379 0.281641 0.377786 0.476201
C64   C     C_R   0.380453 0.717904 0.636659 0.471947
C65   C     C_R   0.853638 0.941266 0.149571 -0.157397
C66   C     C_R   0.145410 0.058169 0.849215 -0.157131
C67   C     C_R   0.646309 0.441522 0.350333 -0.157680
C68   C     C_R   0.354555 0.558238 0.650715 -0.156746
C69   C     C_R   0.962961 0.862426 0.988170 -0.156784
C70   C     C_R   0.036419 0.138417 0.009536 -0.154581
C71   C     C_R   0.495368 0.363899 0.455678 -0.154862
C72   C     C_R   0.505994 0.636617 0.544370 -0.157204
H33   H     H_    0.934226 0.757064 0.977769 0.105802
H34   H     H_    0.064893 0.245243 0.018834 0.116143
H35   H     H_    0.490406 0.258273 0.421223 0.116230
H36   H     H_    0.511861 0.740677 0.579267 0.105736
C73   C     C_R   0.998505 0.875642 0.951761 -0.160275
C74   C     C_R   0.001395 0.123476 0.046588 -0.156667
C75   C     C_R   0.459941 0.378503 0.492207 -0.156315
C76   C     C_R   0.540947 0.623760 0.507169 -0.159783
H37   H     H_    0.996510 0.779424 0.914891 0.107972
H38   H     H_    0.004272 0.218643 0.083797 0.111695
H39   H     H_    0.428345 0.284432 0.484309 0.111888
H40   H     H_    0.572375 0.718833 0.514030 0.108252
C77   C     C_R   0.035493 0.014226 0.961872 0.107447
C78   C     C_R   0.963954 0.985584 0.036394 0.110467
C79   C     C_R   0.464780 0.514626 0.537358 0.110131
C80   C     C_R   0.536161 0.486731 0.462608 0.107465
O21   O     O_3   0.851359 0.607392 0.131931 -0.552482
C81   C     C_3   0.814111 0.559590 0.081926 -0.258285
H41   H     H_    0.830319 0.541438 0.041264 0.125396
H42   H     H_    0.783338 0.664057 0.073729 0.126676
H43   H     H_    0.797393 0.424986 0.091090 0.151605
O22   O     O_3   0.129381 0.391410 0.842461 -0.553944
C82   C     C_3   0.090930 0.438603 0.793630 -0.249617
H44   H     H_    0.054748 0.460483 0.808140 0.123419
H45   H     H_    0.086681 0.331754 0.757661 0.121221
H46   H     H_    0.100998 0.571184 0.774271 0.160937
O23   O     O_3   0.648814 0.107721 0.368475 -0.552534
C83   C     C_3   0.685969 0.060393 0.418611 -0.258447
H47   H     H_    0.669694 0.042859 0.459238 0.125207
H48   H     H_    0.716751 0.164785 0.426734 0.127007
H49   H     H_    0.702655 0.925521 0.409654 0.151627
O24   O     O_3   0.370145 0.891575 0.656955 -0.553928
C84   C     C_3   0.408635 0.939721 0.705642 -0.250568
H50   H     H_    0.444713 0.962244 0.690946 0.123884
H51   H     H_    0.413158 0.833099 0.741692 0.121180
H52   H     H_    0.398436 0.072119 0.725000 0.161047

loop_
_geom_bond_atom_site_label_1
_geom_bond_atom_site_label_2
_ccdc_geom_bond_type
O17   V3    S    
C51   H27   S    
O1    C5    A    
O19   V1    S    
C9    C21   A    
C16   H16   S    
O3    C7    A    
C10   C18   A    
O1    V3    S    
C73   H37   S    
C76   H40   S    
O15   V3    S    
C58   C62   A    
O21   C81   S    
C57   C61   A    
C33   C38   A    
C5    C12   S    
C75   H39   S    
C6    C11   S    
C38   H18   S    
C35   C40   A    
C26   C30   A    
C36   C39   A    
C40   C44   A    
O2    V4    S    
C61   O21   S    
C83   H47   S    
C71   C75   A    
C23   H8    S    
C14   C18   A    
C2    C68   S    
C72   C76   A    
C54   C58   A    
O4    C8    A    
C25   C29   A    
C44   H4    S    
C60   H32   S    
C70   H34   S    
C48   H24   S    
O13   V1    S    
C59   C63   A    
C62   C66   A    
C82   H46   S    
C62   O22   S    
C61   C65   A    
C28   C36   A    
C64   C68   A    
C1    O15   A    
C52   H28   S    
C15   C31   A    
C2    O16   A    
C16   C32   A    
O2    C6    A    
C43   H3    S    
C82   H44   S    
C10   C22   A    
C11   C19   A    
C58   H30   S    
C16   C20   A    
O5    V1    S    
C57   H29   S    
C13   C29   A    
C34   C37   A    
O11   C7    A    
C11   C23   A    
C35   C36   A    
O12   C8    A    
C47   C67   A    
C14   H14   S    
C84   H50   S    
C46   C66   A    
C24   H7    S    
C13   H13   S    
C3    C65   S    
O10   V2    S    
C72   H36   S    
C84   H51   S    
C46   H22   S    
C81   H42   S    
C20   H11   S    
C39   C43   A    
C52   C56   A    
O7    V3    S    
C38   C42   A    
C26   C34   A    
C53   C78   S    
C60   C64   A    
O18   V4    S    
C23   C27   A    
C19   H12   S    
C50   H26   S    
C47   H23   S    
C45   H21   S    
C56   C60   A    
C45   C49   A    
C21   H6    S    
O8    V4    S    
O7    C3    A    
O5    C1    A    
C69   H33   S    
C74   C78   A    
C81   H43   S    
C31   C43   A    
C14   C30   A    
C21   C25   A    
C69   C78   A    
O8    C4    A    
C7    C10   S    
C49   H25   S    
O9    C5    A    
C37   H17   S    
O14   V2    S    
O6    V2    S    
C12   C20   A    
C27   C35   A    
O9    V1    S    
C17   H10   S    
C84   H52   S    
C29   C41   A    
C48   C52   A    
C54   C77   S    
C81   H41   S    
O16   V4    S    
C69   C73   A    
C53   C57   A    
C3    O13   A    
C63   O23   S    
C39   H19   S    
C55   C59   A    
C83   H49   S    
C74   H38   S    
C25   C33   A    
C15   C19   A    
O11   V3    S    
C30   C42   A    
C63   C67   A    
O12   V4    S    
C51   C55   A    
C22   C26   A    
C70   C77   A    
C73   C77   A    
C8    C9    S    
C50   C54   A    
C9    C17   A    
O24   C84   S    
O10   C6    A    
C48   C68   A    
C49   C53   A    
O20   V2    S    
C76   C80   A    
C32   C44   A    
O3    V1    S    
C33   C34   A    
C42   H2    S    
C45   C65   A    
C41   H1    S    
C22   H5    S    
C83   H48   S    
C75   C79   A    
C1    C67   S    
C46   C50   A    
C12   C24   A    
C27   C31   A    
C71   C80   A    
C82   H45   S    
C13   C17   A    
C72   C79   A    
C71   H35   S    
O6    C2    A    
C15   H15   S    
C37   C41   A    
C24   C28   A    
C4    C66   S    
C70   C74   A    
C18   H9    S    
C4    O14   A    
O23   C83   S    
C64   O24   S    
O22   C82   S    
C59   H31   S    
C47   C51   A    
C55   C80   S    
C40   H20   S    
C56   C79   S    
O4    V2    S    
C28   C32   A    
