data_mof_unit_55326.cif
_audit_creation_date              2012-12-11T14:40:24-0500
_audit_creation_method            fapswitch 2.2
_symmetry_space_group_name_H-M    P1
_symmetry_Int_Tables_number       1
_space_group_crystal_system       triclinic
_cell_length_a                    19.740828
_cell_length_b                    10.957211
_cell_length_c                    19.370704
_cell_angle_alpha                 90.362708
_cell_angle_beta                  97.478989
_cell_angle_gamma                 90.177289
_cell_volume                      4154.20767871

loop_
_atom_site_label
_atom_site_type_symbol
_atom_type_description
_atom_site_fract_x
_atom_site_fract_y
_atom_site_fract_z
_atom_type_partial_charge
C1    C     C_R   0.726209 0.949464 0.359477 0.552211
C2    C     C_3   0.268614 0.341251 0.559842 0.052488
C3    C     C_3   0.222243 0.167859 0.008236 -0.353211
C4    C     C_3   0.108678 0.791994 0.941436 -0.011816
C5    C     C_3   0.149963 0.702937 0.903370 -0.366658
C6    C     C_3   0.790093 0.688063 0.979737 -0.007065
C7    C     C_3   0.722243 0.667853 0.008236 -0.353217
C8    C     C_3   0.231967 0.843352 0.440749 0.053579
C9    C     C_3   0.756674 0.884737 0.564495 0.063723
C10   C     C_3   0.720188 0.478169 0.467114 -0.116854
C11   C     C_3   0.243379 0.467576 0.536145 -0.114545
C12   C     C_3   0.208982 0.964077 0.469954 -0.116598
C13   C     C_3   0.721106 0.994327 0.529612 -0.151624
C14   C     C_3   0.789533 0.471180 0.513888 -0.107922
C15   C     C_3   0.191806 0.405892 0.480494 -0.107630
C16   C     C_3   0.279741 0.974506 0.513871 -0.113305
C17   C     C_R   0.272834 0.946841 0.641694 0.537391
C18   C     C_3   0.682742 0.907453 0.475407 -0.105975
C19   C     C_3   0.802776 0.343281 0.486092 -0.104591
C20   C     C_3   0.217065 0.278800 0.504821 -0.118451
C21   C     C_3   0.302595 0.853605 0.484222 -0.098569
C22   C     C_3   0.718570 0.796276 0.511002 -0.110608
C23   C     C_3   0.766547 0.283962 0.543171 -0.141166
C24   C     C_3   0.271271 0.280580 0.453883 -0.144090
C25   C     C_3   0.274898 0.781796 0.542578 -0.130146
C26   C     C_3   0.777707 0.807036 0.466374 -0.147098
C27   C     C_3   0.753442 0.410795 0.570320 0.058843
C28   C     C_R   0.225857 0.450653 0.360256 0.550320
C29   C     C_3   0.246137 0.407361 0.430453 0.055412
C30   C     C_3   0.252082 0.902408 0.571818 0.057986
C31   C     C_3   0.742129 0.918117 0.431606 0.061317
C32   C     C_3   0.470523 0.287803 0.981318 -0.151064
C33   C     C_3   0.434011 0.248006 0.043458 -0.153043
C34   C     C_3   0.970519 0.787805 0.981320 -0.150805
C35   C     C_3   0.934007 0.748003 0.043460 -0.153030
C36   C     C_3   0.532016 0.209425 0.008744 0.281303
C37   C     C_3   0.404285 0.136936 0.000169 0.254858
C38   C     C_3   0.032014 0.709431 0.008747 0.281293
C39   C     C_R   0.773564 0.449627 0.640725 0.543706
C40   C     C_3   0.904284 0.636931 0.000169 0.254813
C41   C     C_3   0.496151 0.170612 0.070412 0.025838
C42   C     C_3   0.441830 0.175109 0.938346 -0.015890
C43   C     C_3   0.996148 0.670612 0.070413 0.025800
C44   C     C_3   0.941830 0.675110 0.938347 -0.015525
C45   C     C_R   0.535255 0.180138 0.337839 0.536379
C46   C     C_R   0.465282 0.179802 0.662553 0.540125
C47   C     C_R   0.035151 0.680162 0.337734 0.536053
C48   C     C_R   0.964970 0.679893 0.662337 0.548799
C49   C     C_3   0.465737 0.058143 0.030067 -0.117011
C50   C     C_3   0.696846 0.290745 0.496087 -0.147168
C51   C     C_3   0.503503 0.096677 0.968328 -0.123085
C52   C     C_3   0.965738 0.558143 0.030067 -0.117097
C53   C     C_3   0.003504 0.596683 0.968330 -0.123076
C54   C     C_1   0.764651 0.414551 0.902376 0.002461
C55   C     C_1   0.214076 0.488667 0.082806 0.006163
C56   C     C_1   0.264653 0.914556 0.902378 0.002436
C57   C     C_1   0.714075 0.988670 0.082807 0.006294
C58   C     C_1   0.751493 0.387871 0.033234 0.023463
C59   C     C_1   0.236611 0.459686 0.952910 -0.085899
C60   C     C_1   0.251495 0.887878 0.033236 0.023482
C61   C     C_3   0.323345 0.342408 0.510568 -0.135967
C62   C     C_1   0.736611 0.959685 0.952913 -0.085488
C63   C     C_1   0.759334 0.395752 0.962354 -0.002880
C64   C     C_1   0.223991 0.479942 0.022627 -0.049552
C65   C     C_1   0.259337 0.895758 0.962356 -0.002916
C66   C     C_1   0.723991 0.979943 0.022629 -0.049642
C67   C     C_1   0.743469 0.382395 0.093396 0.035834
C68   C     C_1   0.248209 0.426950 0.895845 -0.040078
C69   C     C_1   0.243471 0.882401 0.093398 0.035846
C70   C     C_1   0.748211 0.926946 0.895848 -0.039600
C71   C     C_R   0.725350 0.312695 0.367721 0.559800
C72   C     C_3   0.203817 0.770804 0.498185 -0.148113
C73   C     C_R   0.275587 0.308412 0.632703 0.563041
C74   C     C_R   0.224708 0.810162 0.367444 0.561282
C75   C     C_R   0.761614 0.859557 0.637267 0.550243
C76   C     C_R   0.703603 0.000785 0.154860 0.573900
C77   C     C_R   0.278147 0.950686 0.835291 0.532330
C78   C     C_R   0.203604 0.500783 0.154860 0.574072
C79   C     C_R   0.778146 0.450682 0.835289 0.530276
C80   C     C_R   0.530938 0.178712 0.140599 0.569724
C81   C     C_R   0.431547 0.183212 0.861388 0.560764
C82   C     C_R   0.030937 0.678712 0.140599 0.569746
C83   C     C_3   0.816454 0.893841 0.521545 -0.117527
C84   C     C_R   0.931547 0.683212 0.861388 0.559471
C85   C     C_R   0.735656 0.357286 0.163719 0.553922
C86   C     C_R   0.262223 0.367351 0.832679 0.532848
C87   C     C_R   0.235656 0.857288 0.163720 0.553981
C88   C     C_R   0.762226 0.867342 0.832686 0.522944
C89   C     C_1   0.487385 0.171144 0.595697 -0.019943
C90   C     C_1   0.514494 0.172367 0.405278 -0.011236
C91   C     C_1   0.986284 0.671643 0.595150 -0.016109
C92   C     C_1   0.013934 0.672577 0.404943 -0.009501
C93   C     C_1   0.505137 0.168330 0.465137 -0.061506
C94   C     C_3   0.733480 0.350276 0.439985 0.056550
C95   C     C_1   0.497538 0.167632 0.536038 -0.065224
C96   C     C_1   0.004115 0.668900 0.464651 -0.058590
C97   C     C_1   0.996165 0.668417 0.535432 -0.061051
C98   C     C_3   0.684012 0.419469 0.524950 -0.120539
C99   C     C_3   0.297721 0.470146 0.485568 -0.116481
C100  C     C_3   0.181214 0.892848 0.529097 -0.122245
C101  C     C_3   0.780603 0.005483 0.485249 -0.122847
C102  C     C_3   0.608679 0.291974 0.941428 -0.011341
C103  C     C_3   0.649965 0.202918 0.903362 -0.367352
C104  C     C_3   0.290094 0.188071 0.979738 -0.007224
Cr1   Cr    Cr6+3 0.765830 0.160660 0.268180 1.022166
Cr2   Cr    Cr6+3 0.384070 0.324050 0.751550 1.007132
Cr3   Cr    Cr6+3 0.115930 0.824050 0.248450 1.036071
Cr4   Cr    Cr6+3 0.884070 0.824050 0.751550 1.007551
Cr5   Cr    Cr6+3 0.234170 0.160660 0.731820 1.003249
Cr6   Cr    Cr6+3 0.265830 0.660660 0.268180 1.022263
Cr7   Cr    Cr6+3 0.734170 0.660660 0.731820 1.008086
Cr8   Cr    Cr6+3 0.612110 0.009150 0.248770 1.019372
Cr9   Cr    Cr6+3 0.387890 0.009150 0.751230 1.020342
Cr10  Cr    Cr6+3 0.112110 0.509150 0.248770 1.020666
Cr11  Cr    Cr6+3 0.887890 0.509150 0.751230 1.026500
Cr12  Cr    Cr6+3 0.615930 0.324050 0.248450 1.037300
H1    H     H_    0.657386 0.218627 0.484821 0.110156
H2    H     H_    0.230933 0.539707 0.572792 0.120678
H3    H     H_    0.181833 0.036399 0.437543 0.125602
H4    H     H_    0.696862 0.063841 0.560045 0.105098
H5    H     H_    0.312011 0.057736 0.522428 0.108017
H6    H     H_    0.627391 0.912535 0.455781 0.137316
H7    H     H_    0.827845 0.545928 0.523227 0.115371
H8    H     H_    0.137493 0.432881 0.467268 0.128339
H9    H     H_    0.851872 0.312479 0.469803 0.133378
H10   H     H_    0.183325 0.202234 0.515816 0.125083
H11   H     H_    0.352844 0.838218 0.465751 0.136968
H12   H     H_    0.377468 0.316385 0.525043 0.125467
H13   H     H_    0.692325 0.711320 0.523878 0.132962
H14   H     H_    0.787213 0.209464 0.578194 0.120833
H15   H     H_    0.282441 0.205577 0.418318 0.120386
H16   H     H_    0.303202 0.710219 0.574566 0.121192
H17   H     H_    0.800420 0.731696 0.438586 0.111403
H18   H     H_    0.471986 0.383709 0.963281 0.130208
H19   H     H_    0.406814 0.309079 0.076555 0.124507
H20   H     H_    0.971979 0.883711 0.963283 0.130163
H21   H     H_    0.906808 0.809073 0.076556 0.124464
H22   H     H_    0.463019 0.964455 0.051033 0.135766
H23   H     H_    0.171562 0.687754 0.488800 0.104466
H24   H     H_    0.532722 0.031756 0.939589 0.131964
H25   H     H_    0.963022 0.464454 0.051032 0.135776
H26   H     H_    0.032725 0.531764 0.939591 0.132043
H27   H     H_    0.632807 0.382810 0.947076 0.135504
H28   H     H_    0.561663 0.310703 0.906002 0.160873
H29   H     H_    0.622131 0.115491 0.893043 0.155053
H30   H     H_    0.659114 0.241891 0.852605 0.104232
H31   H     H_    0.699592 0.185499 0.934960 0.171701
H32   H     H_    0.280902 0.186188 0.922225 0.160135
H33   H     H_    0.308932 0.279065 0.998503 0.133074
H34   H     H_    0.871337 0.888754 0.542967 0.135146
H35   H     H_    0.231339 0.149350 0.064968 0.170159
H36   H     H_    0.189252 0.249032 0.999782 0.120942
H37   H     H_    0.192500 0.092857 0.980348 0.135102
H38   H     H_    0.132807 0.882827 0.947087 0.135473
H39   H     H_    0.061662 0.810728 0.906010 0.160820
H40   H     H_    0.122126 0.615515 0.893045 0.155531
H41   H     H_    0.159118 0.741916 0.852616 0.105379
H42   H     H_    0.199587 0.685507 0.934972 0.171758
H43   H     H_    0.780900 0.686176 0.922223 0.160880
H44   H     H_    0.808931 0.779058 0.998499 0.133242
H45   H     H_    0.635993 0.450953 0.543302 0.122628
H46   H     H_    0.731340 0.649345 0.064969 0.170102
H47   H     H_    0.689252 0.749028 0.999783 0.121013
H48   H     H_    0.692498 0.592851 0.980350 0.135118
H49   H     H_    0.330551 0.549102 0.476018 0.124968
H50   H     H_    0.132041 0.909055 0.549601 0.122327
H51   H     H_    0.807844 0.088446 0.471356 0.129498
H52   H     H_    0.701219 0.555725 0.433514 0.124069
O1    O     O_R   0.783230 0.287800 0.346510 -0.521284
O2    O     O_R   0.454570 0.285140 0.836900 -0.538333
O3    O     O_R   0.045430 0.785140 0.163100 -0.496590
O4    O     O_R   0.954570 0.785140 0.836900 -0.538754
O5    O     O_R   0.677850 0.374730 0.185500 -0.481033
O6    O     O_R   0.322150 0.374730 0.814500 -0.507838
O7    O     O_R   0.177850 0.874730 0.185500 -0.480793
O8    O     O_R   0.822150 0.874730 0.814500 -0.511734
O9    O     O_3   0.664630 0.164620 0.255130 -0.302108
O10   O     O_3   0.335370 0.164620 0.744870 -0.300475
O11   O     O_3   0.164630 0.664620 0.255130 -0.304115
O12   O     O_R   0.216770 0.287800 0.653490 -0.510617
O13   O     O_3   0.835370 0.664620 0.744870 -0.278655
O14   O     O_R   0.760130 0.037060 0.338610 -0.518336
O15   O     O_R   0.239870 0.037060 0.661390 -0.521830
O16   O     O_R   0.260130 0.537060 0.338610 -0.517816
O17   O     O_R   0.739870 0.537060 0.661390 -0.507526
O18   O     O_R   0.666620 0.921370 0.332440 -0.517018
O19   O     O_R   0.333380 0.921370 0.667560 -0.512869
O20   O     O_R   0.166620 0.421370 0.332440 -0.512931
O21   O     O_R   0.833380 0.421370 0.667560 -0.514583
O22   O     O_R   0.557170 0.082420 0.312350 -0.501094
O23   O     O_R   0.283230 0.787800 0.346510 -0.520627
O24   O     O_R   0.442830 0.082420 0.687650 -0.489470
O25   O     O_R   0.057170 0.582420 0.312350 -0.500777
O26   O     O_R   0.942830 0.582420 0.687650 -0.487833
O27   O     O_R   0.548310 0.285980 0.316250 -0.514120
O28   O     O_R   0.451690 0.285980 0.683750 -0.515413
O29   O     O_R   0.048310 0.785980 0.316250 -0.515007
O30   O     O_R   0.951690 0.785980 0.683750 -0.512171
O31   O     O_R   0.680520 0.375500 0.327470 -0.497796
O32   O     O_R   0.319480 0.375500 0.672530 -0.498015
O33   O     O_R   0.180520 0.875500 0.327470 -0.499327
O34   O     O_R   0.716770 0.787800 0.653490 -0.518712
O35   O     O_R   0.819480 0.875500 0.672530 -0.505053
O36   O     O_R   0.780350 0.286970 0.193350 -0.513329
O37   O     O_R   0.219650 0.286970 0.806650 -0.509390
O38   O     O_R   0.280350 0.786970 0.193350 -0.513622
O39   O     O_R   0.719650 0.786970 0.806650 -0.512764
O40   O     O_R   0.757460 0.036290 0.196640 -0.494040
O41   O     O_R   0.242540 0.036290 0.803360 -0.510000
O42   O     O_R   0.257460 0.536290 0.196640 -0.493590
O43   O     O_R   0.742540 0.536290 0.803360 -0.510203
O44   O     O_R   0.663740 0.920540 0.179290 -0.507495
O45   O     O_R   0.554500 0.081650 0.170370 -0.518787
O46   O     O_R   0.336260 0.920540 0.820710 -0.506715
O47   O     O_R   0.163740 0.420540 0.179290 -0.507081
O48   O     O_R   0.836260 0.420540 0.820710 -0.508663
O49   O     O_3   0.600069 0.248423 0.008844 -0.556881
O50   O     O_3   0.337049 0.095546 0.002013 -0.564340
O51   O     O_3   0.100065 0.748437 0.008850 -0.556865
O52   O     O_3   0.837048 0.595538 0.002012 -0.564459
O53   O     O_R   0.445500 0.081650 0.829630 -0.496775
O54   O     O_R   0.054500 0.581650 0.170370 -0.518731
O55   O     O_R   0.945500 0.581650 0.829630 -0.498318
O56   O     O_R   0.545430 0.285140 0.163100 -0.496653

loop_
_geom_bond_atom_site_label_1
_geom_bond_atom_site_label_2
_ccdc_geom_bond_type
C3    C104  S    
C45   O27   A    
C4    H38   S    
C27   C98   S    
C89   C95   T    
C16   C21   S    
Cr10  O25   S    
C50   H1    S    
C68   C86   S    
C47   C92   S    
C104  H32   S    
Cr5   O12   S    
C92   C96   T    
C57   C66   T    
C100  H50   S    
C70   C88   S    
C98   H45   S    
C41   C80   S    
C6    H43   S    
C103  H31   S    
C71   C94   S    
Cr3   O3    S    
C1    O18   A    
C61   C99   S    
C79   O43   A    
C3    H36   S    
C24   C61   S    
Cr1   O1    S    
C13   C18   S    
C90   C93   T    
C26   C83   S    
C32   C36   S    
C57   C76   S    
Cr11  O55   S    
C28   C29   S    
C17   O19   A    
C53   H26   S    
Cr4   O35   S    
C28   O20   A    
Cr8   O18   S    
C39   O21   A    
C43   C52   S    
C54   C63   T    
C10   C94   S    
C16   C30   S    
C56   C65   T    
Cr9   O19   S    
C73   O32   A    
C30   C100  S    
Cr6   O23   S    
C3    H37   S    
Cr10  O20   S    
C62   C70   T    
C11   C99   S    
C34   C35   S    
C37   C42   S    
C10   C98   S    
Cr8   O44   S    
C24   C29   S    
C9    C13   S    
C85   O36   A    
Cr12  O27   S    
C11   C15   S    
C44   C53   S    
C72   H23   S    
C12   C16   S    
C27   C39   S    
C49   C51   S    
C48   C91   S    
C85   O5    A    
C71   O1    A    
C23   C27   S    
Cr1   O14   S    
C21   H11   S    
C35   C43   S    
C78   O42   A    
C69   C87   S    
C2    C61   S    
C77   O41   A    
C42   C51   S    
C83   H34   S    
C48   O26   A    
C51   H24   S    
C76   O44   A    
Cr9   O10   S    
Cr6   O16   S    
C26   C31   S    
C93   C95   S    
C18   C22   S    
Cr12  O9    S    
C40   O52   S    
C17   C30   S    
C73   O12   A    
C36   C41   S    
Cr6   O42   S    
C42   C81   S    
C102  H28   S    
C37   O50   S    
Cr5   O41   S    
C2    C11   S    
Cr5   O10   S    
C86   O37   A    
C41   C49   S    
Cr11  O13   S    
C75   O34   A    
C77   O46   A    
C15   C29   S    
C76   O40   A    
C1    C31   S    
C15   C20   S    
C7    H46   S    
Cr7   O17   S    
C67   C85   S    
C15   H8    S    
C29   C99   S    
C2    C20   S    
C20   C24   S    
C34   C44   S    
C10   C14   S    
C50   C98   S    
Cr1   O9    S    
Cr5   O15   S    
Cr3   O29   S    
Cr12  O31   S    
C62   C66   S    
C50   C94   S    
Cr1   O36   S    
Cr2   O28   S    
C102  O49   S    
C84   O4    A    
C40   C52   S    
C7    H47   S    
C19   H9    S    
C33   C37   S    
C56   C77   S    
C23   H14   S    
C48   O30   A    
C86   O6    A    
Cr4   O13   S    
C104  H33   S    
Cr12  O56   S    
C19   C23   S    
C16   H5    S    
C87   O38   A    
C20   H10   S    
C46   C89   S    
C59   C68   T    
C80   O56   A    
C12   H3    S    
C37   C49   S    
C33   H19   S    
C34   H20   S    
C8    C12   S    
C4    O51   S    
C104  O50   S    
C55   C64   T    
C8    C74   S    
C8    C21   S    
Cr2   O6    S    
Cr6   O38   S    
C25   C72   S    
C81   O2    A    
C91   C97   T    
Cr5   O37   S    
C45   C90   S    
C19   C94   S    
Cr9   O53   S    
C80   O45   A    
C2    C73   S    
C18   H6    S    
C6    O52   S    
Cr12  O5    S    
C60   C69   T    
C79   O48   A    
Cr11  O26   S    
C9    C83   S    
C60   C65   S    
Cr10  O11   S    
C5    H41   S    
Cr4   O4    S    
C22   H13   S    
C22   C26   S    
C14   C27   S    
Cr9   O46   S    
C102  H27   S    
C88   O39   A    
C13   C101  S    
Cr7   O39   S    
C36   C51   S    
C13   H4    S    
C87   O7    A    
C52   C53   S    
C103  H29   S    
Cr1   O40   S    
Cr2   O32   S    
C54   C79   S    
C72   C100  S    
C25   C30   S    
C55   C78   S    
Cr9   O24   S    
C21   C25   S    
C82   O3    A    
C75   O35   A    
C14   H7    S    
C83   C101  S    
C96   C97   S    
Cr3   O11   S    
C34   C38   S    
C8    C72   S    
C14   C19   S    
C47   O25   A    
C58   C63   S    
C46   O24   A    
C4    C5    S    
C23   C50   S    
C84   O55   A    
C36   O49   S    
C6    H44   S    
C1    O14   A    
C71   O31   A    
C6    C7    S    
C82   O54   A    
C74   O33   A    
C5    H40   S    
C101  H51   S    
C7    H48   S    
C3    H35   S    
C52   H25   S    
C88   O8    A    
C17   O15   A    
C44   C84   S    
C33   C41   S    
C32   C33   S    
C35   C40   S    
C28   O16   A    
C38   C43   S    
C26   H17   S    
C35   H21   S    
C32   H18   S    
C11   H2    S    
C24   H15   S    
Cr8   O45   S    
C38   C53   S    
Cr3   O7    S    
Cr6   O11   S    
C31   C101  S    
Cr4   O8    S    
Cr11  O21   S    
Cr11  O48   S    
Cr7   O34   S    
C61   H12   S    
Cr3   O33   S    
Cr4   O30   S    
C102  C103  S    
C9    C22   S    
Cr7   O43   S    
C12   C100  S    
Cr8   O22   S    
C74   O23   A    
C39   O17   A    
C59   C64   S    
C58   C67   T    
C40   C44   S    
C4    H39   S    
C81   O53   A    
Cr10  O47   S    
C10   H52   S    
C5    H42   S    
Cr2   O2    S    
C78   O47   A    
C46   O28   A    
C43   C82   S    
C32   C42   S    
Cr7   O13   S    
C47   O29   A    
C18   C31   S    
C9    C75   S    
C99   H49   S    
C49   H22   S    
C25   H16   S    
Cr2   O10   S    
C45   O22   A    
C38   O51   S    
C103  H30   S    
Cr8   O9    S    
Cr10  O54   S    
