data_mof_unit_47533.cif
_audit_creation_date              2012-10-26T21:25:51-0400
_audit_creation_method            fapswitch 2.2
_symmetry_space_group_name_H-M    P1
_symmetry_Int_Tables_number       1
_space_group_crystal_system       triclinic
_cell_length_a                    10.927223
_cell_length_b                    10.942495
_cell_length_c                    12.692032
_cell_angle_alpha                 92.213415
_cell_angle_beta                  92.132346
_cell_angle_gamma                 90.580397
_cell_volume                      1515.31598231

loop_
_atom_site_label
_atom_site_type_symbol
_atom_type_description
_atom_site_fract_x
_atom_site_fract_y
_atom_site_fract_z
_atom_type_partial_charge
C1    C     C_R   0.261846 0.498119 0.501291 0.564523
C2    C     C_R   0.842978 0.693525 0.298379 -0.148126
C3    C     C_R   0.124735 0.429703 0.692314 0.020916
C4    C     C_R   0.875263 0.570542 0.307893 0.020908
C5    C     C_R   0.126597 0.508687 0.782225 -0.017864
C6    C     C_R   0.873496 0.492032 0.217689 -0.017260
C7    C     C_R   0.154967 0.463847 0.881660 0.478991
C8    C     C_R   0.844834 0.537333 0.118509 0.478822
C9    C     C_R   0.180667 0.339977 0.891902 0.458578
C10   C     C_R   0.818826 0.661224 0.108827 0.458485
C11   C     C_R   0.937490 0.471558 0.589708 0.358588
C12   C     C_R   0.738155 0.501818 0.498714 0.564523
C13   C     C_R   0.062493 0.528141 0.410268 0.358625
C14   C     C_R   0.871672 0.501999 0.497390 -0.053424
C15   C     C_R   0.128326 0.497810 0.502618 -0.053470
C16   C     C_R   0.500202 0.261811 0.501335 0.560889
C17   C     C_R   0.499758 0.738187 0.498666 0.560861
C18   C     C_R   0.935222 0.530794 0.406804 -0.056544
C19   C     C_R   0.064772 0.469022 0.593220 -0.056553
C20   C     C_2   0.467256 0.464476 0.031117 -0.074220
C21   C     C_2   0.532762 0.535627 0.968880 -0.074379
C22   C     C_1   0.524518 0.525534 0.852865 0.257540
C23   C     C_R   0.499774 0.871703 0.496966 -0.061319
C24   C     C_1   0.475494 0.474516 0.147134 0.257944
C25   C     C_R   0.719341 0.213593 0.822780 0.291018
C26   C     C_R   0.279774 0.786696 0.177530 0.291338
C27   C     C_R   0.682497 0.175038 0.719839 -0.084566
C28   C     C_R   0.316957 0.825085 0.280437 -0.084845
C29   C     C_R   0.564395 0.126423 0.698987 0.001996
C30   C     C_R   0.435144 0.873576 0.301069 0.001789
C31   C     C_R   0.483761 0.117231 0.781964 -0.087834
C32   C     C_R   0.515508 0.882795 0.217904 -0.087761
C33   C     C_R   0.520356 0.156407 0.884578 0.226661
C34   C     C_R   0.500125 0.128293 0.503035 -0.061284
C35   C     C_R   0.478586 0.843733 0.115331 0.226806
C36   C     C_R   0.638090 0.205087 0.905019 0.463494
C37   C     C_R   0.360772 0.795190 0.095113 0.464010
C38   C     C_R   0.532341 0.938460 0.590986 0.355052
C39   C     C_R   0.467542 0.061539 0.409016 0.355047
C40   C     C_R   0.468143 0.934446 0.404689 -0.062476
C41   C     C_R   0.531678 0.065548 0.595320 -0.062477
C42   C     C_R   0.184269 0.262068 0.802158 -0.113388
C43   C     C_R   0.815222 0.738663 0.198873 -0.113473
C44   C     C_R   0.156709 0.306715 0.702390 -0.148041
Cl1   Cl    Cl    0.870481 0.263214 0.850112 -0.334519
Cl2   Cl    Cl    0.128495 0.737410 0.150455 -0.334981
Cl3   Cl    Cl    0.421818 0.135126 0.988561 -0.389342
Cl4   Cl    Cl    0.576756 0.865056 0.011109 -0.388323
Cu1   Cu    Cu3+1 0.492140 0.492110 0.395880 1.107211
Cu2   Cu    Cu3+1 0.507860 0.507890 0.604120 1.107052
F1    F     F_    0.674899 0.239977 0.005110 -0.522677
F2    F     F_    0.802683 0.707271 0.011770 -0.511983
F3    F     F_    0.323613 0.760490 0.995062 -0.521845
F4    F     F_    0.151171 0.539167 0.968672 -0.485552
F5    F     F_    0.848669 0.462490 0.031199 -0.486025
F6    F     F_    0.877986 0.440684 0.677177 -0.562253
F7    F     F_    0.121980 0.558961 0.322768 -0.562184
F8    F     F_    0.568447 0.880494 0.679797 -0.550939
F9    F     F_    0.431418 0.119515 0.320216 -0.550974
F10   F     F_    0.196543 0.294430 0.989204 -0.511893
H1    H     H_    0.099787 0.603218 0.775744 0.188762
H2    H     H_    0.796819 0.834863 0.191102 0.179689
H3    H     H_    0.153000 0.244142 0.634070 0.138917
H4    H     H_    0.846576 0.755738 0.366939 0.138801
H5    H     H_    0.900510 0.397510 0.223743 0.189185
H6    H     H_    0.594154 0.604101 0.005411 0.197104
H7    H     H_    0.405920 0.395975 0.994572 0.196804
H8    H     H_    0.747051 0.178187 0.657216 0.162755
H9    H     H_    0.252578 0.821972 0.343197 0.162542
H10   H     H_    0.394605 0.074599 0.767364 0.164568
H11   H     H_    0.604681 0.925409 0.232331 0.164712
H12   H     H_    0.202561 0.165907 0.810363 0.180481
N1    N     N_1   0.480320 0.480250 0.239400 -0.163083
N2    N     N_1   0.519680 0.519750 0.760600 -0.163173
O1    O     O_R   0.313000 0.493330 0.412070 -0.408961
O2    O     O_R   0.687000 0.506670 0.587930 -0.409009
O3    O     O_R   0.326280 0.506660 0.587930 -0.538702
O4    O     O_R   0.673720 0.493340 0.412070 -0.538643
O5    O     O_R   0.493370 0.312980 0.412070 -0.406588
O6    O     O_R   0.506630 0.687020 0.587930 -0.406622
O7    O     O_R   0.506650 0.326310 0.587930 -0.544222
O8    O     O_R   0.493350 0.673690 0.412070 -0.544193

loop_
_geom_bond_atom_site_label_1
_geom_bond_atom_site_label_2
_ccdc_geom_bond_type
C21   H6    S    
C27   C29   A    
C1    O3    A    
C14   C18   A    
C20   H7    S    
C28   H9    S    
C10   F2    S    
C15   C19   A    
C11   C19   A    
C9    C42   A    
C17   C23   S    
C13   C18   A    
C35   C37   A    
Cu2   N2    S    
C11   C14   A    
C24   N1    T    
C13   F7    S    
C23   C40   A    
C33   C36   A    
Cu1   O4    S    
C17   O8    A    
C27   H8    S    
C16   C34   S    
C38   F8    S    
C31   H10   S    
C20   C24   S    
C12   O4    A    
Cu1   O1    S    
C3    C19   S    
C1    C15   S    
C4    C18   S    
C21   C22   S    
C34   C41   A    
C42   C44   A    
C35   Cl4   S    
C8    F5    S    
C2    H4    S    
C32   H11   S    
C6    H5    S    
C44   H3    S    
C3    C44   A    
C31   C33   A    
C30   C40   S    
C34   C39   A    
C1    O1    A    
C32   C35   A    
C38   C41   A    
C4    C6    A    
C39   C40   A    
C5    C7    A    
C6    C8    A    
C17   O6    A    
Cu1   O5    S    
Cu1   O8    S    
C2    C4    A    
Cu2   O2    S    
C2    C43   A    
C39   F9    S    
C42   H12   S    
C5    H1    S    
C36   F1    S    
C12   C14   S    
C13   C15   A    
C12   O2    A    
C33   Cl3   S    
Cu1   N1    S    
C22   N2    T    
Cu2   O3    S    
C25   Cl1   S    
C7    C9    A    
C29   C41   S    
C10   C43   A    
C3    C5    A    
Cu2   O6    S    
C26   C37   A    
C25   C27   A    
C23   C38   A    
C26   C28   A    
C16   O5    A    
C9    F10   S    
C28   C30   A    
C37   F3    S    
C29   C31   A    
C30   C32   A    
C16   O7    A    
C26   Cl2   S    
C25   C36   A    
C20   C21   D    
Cu2   O7    S    
C8    C10   A    
Cu1   Cu2   S    
C7    F4    S    
C11   F6    S    
C43   H2    S    
