data_mof_unit_46206.cif
_audit_creation_date              2012-12-10T18:45:11-0500
_audit_creation_method            fapswitch 2.2
_symmetry_space_group_name_H-M    P1
_symmetry_Int_Tables_number       1
_space_group_crystal_system       triclinic
_cell_length_a                    10.712592
_cell_length_b                    9.883774
_cell_length_c                    10.614508
_cell_angle_alpha                 90.053654
_cell_angle_beta                  90.561287
_cell_angle_gamma                 89.940404
_cell_volume                      1123.81798766

loop_
_atom_site_label
_atom_site_type_symbol
_atom_type_description
_atom_site_fract_x
_atom_site_fract_y
_atom_site_fract_z
_atom_type_partial_charge
C1    C     C_R   0.260005 0.500002 0.500152 0.871839
C2    C     C_R   0.739954 0.499895 0.500323 0.831002
C3    C     C_R   0.935629 0.621278 0.479851 -0.178554
C4    C     C_R   0.063442 0.621375 0.480053 -0.165435
C5    C     C_R   0.577942 0.072479 0.578175 -0.134786
C6    C     C_R   0.422319 0.072407 0.421492 -0.136407
C7    C     C_R   0.578275 0.929209 0.578412 0.389526
C8    C     C_R   0.422189 0.929060 0.421035 0.386421
C9    C     C_R   0.501350 0.499992 0.260586 0.874180
C10   C     C_R   0.501825 0.499942 0.739460 0.860533
C11   C     C_R   0.728923 0.574278 0.133967 -0.165862
C12   C     C_R   0.730761 0.568124 0.871309 -0.108927
C13   C     C_R   0.837494 0.607360 0.069380 -0.129916
C14   C     C_R   0.838509 0.603909 0.938224 -0.094908
C15   C     C_R   0.619593 0.536098 0.935404 0.088377
C16   C     C_R   0.618994 0.537829 0.067351 0.089036
C17   C     C_R   0.508288 0.499858 0.128463 -0.073070
C18   C     C_R   0.508736 0.499245 0.871782 -0.080366
C19   C     C_R   0.401568 0.459120 0.063379 -0.169941
C20   C     C_R   0.401655 0.459246 0.934493 -0.192568
C21   C     C_R   0.064208 0.378760 0.522052 -0.189763
C22   C     C_R   0.936340 0.378723 0.522195 -0.180840
C23   C     C_R   0.872434 0.499928 0.500791 -0.029063
C24   C     C_R   0.127434 0.500064 0.500759 -0.032936
H1    H     H_    0.317800 0.429188 0.112684 0.148256
H2    H     H_    0.317891 0.429599 0.883322 0.145946
H3    H     H_    0.732235 0.576331 0.235762 0.131830
H4    H     H_    0.735562 0.564567 0.769672 0.154168
H5    H     H_    0.921271 0.634677 0.121267 0.155334
H6    H     H_    0.923101 0.628398 0.888182 0.153697
H7    H     H_    0.113109 0.284417 0.539130 0.170328
H8    H     H_    0.887982 0.284399 0.539468 0.169561
H9    H     H_    0.886757 0.715607 0.462612 0.188073
H10   H     H_    0.111610 0.715835 0.463332 0.204079
H11   H     H_    0.640301 0.127444 0.640555 0.176443
H12   H     H_    0.360334 0.127346 0.358710 0.178304
N1    N     N_R   0.500000 0.857200 0.500000 -0.143424
N2    N     N_R   0.500000 0.142810 0.500000 -0.125841
O1    O     O_R   0.316770 0.614620 0.499990 -0.582399
O2    O     O_R   0.683230 0.614620 0.500010 -0.591885
O3    O     O_R   0.316800 0.385290 0.500000 -0.632491
O4    O     O_R   0.683200 0.385290 0.500000 -0.628230
O5    O     O_R   0.500010 0.614690 0.316770 -0.563795
O6    O     O_R   0.499990 0.614690 0.683230 -0.564674
O7    O     O_R   0.500040 0.385360 0.316770 -0.618076
O8    O     O_R   0.499960 0.385360 0.683230 -0.619634
Zn1   Zn    Zn3+2 0.500000 0.653120 0.500000 1.044792
Zn2   Zn    Zn3+2 0.500000 0.346880 0.500000 0.959326
Cl1   Cl    Cl    0.682135 0.846790 0.681119 -0.621742
Cl2   Cl    Cl    0.320721 0.846072 0.316014 -0.615518

loop_
_geom_bond_atom_site_label_1
_geom_bond_atom_site_label_2
_ccdc_geom_bond_type
C10   O8    A    
C15   C18   A    
C6    N2    A    
C9    O7    A    
C2    O2    A    
N1    Zn1   S    
O6    Zn1   S    
C11   C13   A    
C11   C16   A    
C3    C23   A    
C19   C20   A    
C12   C15   A    
C11   H3    S    
C13   H5    S    
C6    H12   S    
C7    N1    A    
O4    Zn2   S    
C21   C22   A    
C21   H7    S    
C22   H8    S    
C14   H6    S    
C4    C24   A    
C5    H11   S    
C10   C18   S    
C9    C17   S    
C17   C19   A    
O3    Zn2   S    
C2    O4    A    
C18   C20   A    
C19   H1    S    
C4    H10   S    
C9    O5    A    
C8    N1    A    
C3    H9    S    
C10   O6    A    
C3    C4    A    
O8    Zn2   S    
C8    Cl2   S    
C7    Cl1   S    
C1    C24   S    
O1    Zn1   S    
C21   C24   A    
C1    O3    A    
C2    C23   S    
C5    C7    A    
C1    O1    A    
C22   C23   A    
C16   C17   A    
C6    C8    A    
O7    Zn2   S    
C13   C14   A    
C12   H4    S    
C5    N2    A    
O2    Zn1   S    
N2    Zn2   S    
C15   C16   A    
C12   C14   A    
O5    Zn1   S    
C20   H2    S    
