data_mof_unit_10364.cif
_audit_creation_date              2012-12-11T15:15:49-0500
_audit_creation_method            fapswitch 2.2
_symmetry_space_group_name_H-M    P1
_symmetry_Int_Tables_number       1
_space_group_crystal_system       triclinic
_cell_length_a                    20.660749
_cell_length_b                    22.652571
_cell_length_c                    6.935674
_cell_angle_alpha                 89.996215
_cell_angle_beta                  86.882623
_cell_angle_gamma                 90.000291
_cell_volume                      3241.22438562

loop_
_atom_site_label
_atom_site_type_symbol
_atom_type_description
_atom_site_fract_x
_atom_site_fract_y
_atom_site_fract_z
_atom_type_partial_charge
O1    O     O_R   0.387100 0.552640 0.378490 -0.532977
O2    O     O_R   0.612900 0.052640 0.621510 -0.534327
O3    O     O_R   0.249610 0.559600 0.072250 -0.549842
O4    O     O_R   0.750390 0.059600 0.927750 -0.549870
O5    O     O_R   0.249120 0.447360 0.902040 -0.545270
O6    O     O_R   0.750880 0.947360 0.097960 -0.545178
C1    C     C_R   0.226714 0.573140 0.244319 0.672915
C2    C     C_R   0.773285 0.073140 0.755674 0.673767
O7    O     O_R   0.386610 0.559560 0.048860 -0.533505
O8    O     O_R   0.613390 0.059560 0.951140 -0.533204
O9    O     O_R   0.387100 0.447320 0.878470 -0.524255
O10   O     O_R   0.612900 0.947320 0.121530 -0.524126
C3    C     C_R   0.407923 0.574859 0.214111 0.769274
C4    C     C_R   0.592076 0.074854 0.785877 0.766968
O11   O     O_R   0.249120 0.552680 0.402050 -0.549045
O12   O     O_R   0.750880 0.052680 0.597950 -0.548767
O13   O     O_3   0.318110 0.463180 0.223790 -0.362793
O14   O     O_3   0.681890 0.963180 0.776210 -0.362517
V1    V     V_3+5 0.318110 0.506830 0.948930 1.467758
V2    V     V_3+5 0.681890 0.006830 0.051070 1.467011
O15   O     O_R   0.386610 0.440400 0.548840 -0.530087
O16   O     O_R   0.613390 0.940400 0.451160 -0.530130
C5    C     C_R   0.407922 0.425112 0.714279 0.732060
C6    C     C_R   0.592074 0.925114 0.285735 0.731284
O17   O     O_R   0.249610 0.440440 0.572240 -0.547257
O18   O     O_R   0.750390 0.940440 0.427760 -0.547036
C7    C     C_R   0.226614 0.426941 0.744500 0.691303
C8    C     C_R   0.773383 0.926938 0.255506 0.692217
V3    V     V_3+5 0.318110 0.493170 0.448930 1.472590
V4    V     V_3+5 0.681890 0.993170 0.551070 1.471306
O19   O     O_3   0.318110 0.536820 0.723940 -0.375440
O20   O     O_3   0.681890 0.036820 0.276060 -0.375753
C9    C     C_R   0.170442 0.386510 0.762199 -0.046023
C10   C     C_R   0.829548 0.886499 0.237813 -0.046148
C11   C     C_R   0.139621 0.367810 0.596975 -0.139541
C12   C     C_R   0.860379 0.867802 0.403030 -0.138388
C13   C     C_R   0.084255 0.332532 0.614513 -0.120658
C14   C     C_R   0.915738 0.832515 0.385483 -0.118767
C15   C     C_R   0.058775 0.315012 0.797577 0.125092
C16   C     C_R   0.941201 0.814986 0.202418 0.123048
C17   C     C_R   0.089930 0.332999 0.962348 -0.086174
C18   C     C_R   0.910034 0.832970 0.037657 -0.087037
C19   C     C_R   0.145231 0.368344 0.945046 -0.144353
C20   C     C_R   0.854741 0.868322 0.054967 -0.143012
C21   C     C_R   0.916547 0.164992 0.889969 -0.073627
C22   C     C_R   0.083427 0.664963 0.110026 -0.077849
C23   C     C_R   0.863742 0.126722 0.903295 -0.163485
C24   C     C_R   0.136240 0.626703 0.096699 -0.163923
C25   C     C_R   0.847491 0.141285 0.562932 -0.170446
C26   C     C_R   0.152509 0.641280 0.437039 -0.171060
C27   C     C_R   0.900098 0.180155 0.550484 -0.111557
C28   C     C_R   0.099893 0.680141 0.449487 -0.111245
C29   C     C_R   0.933953 0.193215 0.714889 0.179748
C30   C     C_R   0.066024 0.693188 0.285094 0.180107
C31   C     C_2   0.999154 0.278868 0.818820 0.132280
C32   C     C_2   0.000818 0.778839 0.181159 0.134972
C33   C     C_2   0.990341 0.233056 0.698576 -0.219044
C34   C     C_2   0.009633 0.733024 0.301404 -0.224718
C35   C     C_R   0.828448 0.114600 0.740163 -0.047312
C36   C     C_R   0.171546 0.614593 0.259819 -0.046927
H1    H     H_    0.157452 0.381337 0.454067 0.123259
H2    H     H_    0.842562 0.881339 0.545937 0.123311
H3    H     H_    0.851302 0.105876 0.040905 0.123641
H4    H     H_    0.148675 0.605855 0.959100 0.123110
H5    H     H_    0.821661 0.132355 0.434331 0.128326
H6    H     H_    0.178349 0.632360 0.565630 0.128537
H7    H     H_    0.026262 0.223970 0.582104 0.134171
H8    H     H_    0.973714 0.723934 0.417885 0.131826
H9    H     H_    0.071656 0.319526 0.104877 0.128756
H10   H     H_    0.928294 0.819488 0.895129 0.127709
H11   H     H_    0.944169 0.172201 0.016182 0.132629
H12   H     H_    0.055795 0.672164 0.983823 0.130259
H13   H     H_    0.167833 0.381829 0.075221 0.125221
H14   H     H_    0.832131 0.881804 0.924797 0.125211
H15   H     H_    0.060542 0.320090 0.485137 0.120385
H16   H     H_    0.939459 0.820073 0.514851 0.120503
H17   H     H_    0.914101 0.200420 0.412980 0.137091
H18   H     H_    0.085896 0.700408 0.586981 0.136595
C37   C     C_R   0.577101 0.362243 0.683401 -0.115466
C38   C     C_R   0.422912 0.862206 0.317897 -0.108106
H19   H     H_    0.535351 0.448509 0.661128 0.158460
H20   H     H_    0.464672 0.948471 0.340096 0.152964
H21   H     H_    0.667035 0.278452 0.668759 0.140515
H22   H     H_    0.333013 0.778378 0.333305 0.143290
H23   H     H_    0.625891 0.378788 0.654566 0.151790
H24   H     H_    0.374145 0.878726 0.347359 0.156744
C39   C     C_R   0.461840 0.382059 0.714897 -0.070147
C40   C     C_R   0.538152 0.882062 0.285198 -0.070645
C41   C     C_R   0.473510 0.094727 0.825987 0.021809
C42   C     C_R   0.526472 0.594784 0.173146 0.040648
C43   C     C_R   0.421184 0.134032 0.862989 0.369702
C44   C     C_R   0.578744 0.634127 0.135644 0.449712
C45   C     C_R   0.433309 0.195217 0.875342 0.056262
C46   C     C_R   0.566541 0.695311 0.123596 0.042104
C47   C     C_R   0.492856 0.218678 0.798083 -0.029757
C48   C     C_R   0.507082 0.718712 0.201724 -0.032507
C49   C     C_R   0.546195 0.178888 0.767602 0.011394
C50   C     C_R   0.453794 0.678889 0.232687 0.010438
C51   C     C_R   0.502202 0.280465 0.757743 0.127002
C52   C     C_R   0.497759 0.780478 0.242383 0.129872
C53   C     C_R   0.566028 0.301766 0.715916 0.113270
C54   C     C_R   0.433967 0.801743 0.285037 0.110490
C55   C     C_R   0.618245 0.262458 0.701929 -0.169929
C56   C     C_R   0.381775 0.762412 0.299502 -0.166574
C57   C     C_R   0.608391 0.201984 0.722412 -0.136306
C58   C     C_R   0.391631 0.701947 0.278686 -0.132546
C59   C     C_R   0.450224 0.321344 0.745127 -0.169890
C60   C     C_R   0.549751 0.821365 0.254534 -0.169008
C61   C     C_R   0.525559 0.402035 0.685563 -0.102536
C62   C     C_R   0.474450 0.902011 0.315324 -0.101779
C63   C     C_R   0.536688 0.116956 0.789378 -0.194423
C64   C     C_R   0.463308 0.616972 0.210531 -0.207350
H25   H     H_    0.400515 0.306467 0.751667 0.146959
H26   H     H_    0.599467 0.806498 0.247337 0.147783
H27   H     H_    0.650255 0.173406 0.703256 0.100478
H28   H     H_    0.349798 0.673348 0.298233 0.100521
I1    I     I_    0.460235 0.000762 0.845913 -0.270562
I2    I     I_    0.539748 0.500825 0.152809 -0.267062
I3    I     I_    0.377766 0.243810 0.093938 -0.274260
I4    I     I_    0.621665 0.744030 0.904345 -0.256735
S1    S     S_3+6 0.340509 0.106931 0.896035 0.118692
O21   O     O_2   0.331375 0.080544 0.094430 -0.265023
O22   O     O_2   0.291713 0.155406 0.875078 -0.284545
O23   O     O_3   0.326558 0.054638 0.731255 -0.440088
H29   H     H_    0.336229 0.073925 0.604751 0.360557
S2    S     S_3+6 0.659354 0.607066 0.100808 0.099148
O24   O     O_2   0.668122 0.580975 0.901833 -0.285628
O25   O     O_2   0.707903 0.655699 0.122598 -0.289375
O26   O     O_3   0.673171 0.554798 0.265866 -0.463218
H30   H     H_    0.716486 0.538643 0.227015 0.383805
I5    I     I_    0.927150 0.305924 0.034089 -0.413289
I6    I     I_    0.072814 0.805896 0.965859 -0.389224

loop_
_geom_bond_atom_site_label_1
_geom_bond_atom_site_label_2
_ccdc_geom_bond_type
C19   H13   S    
V4    O20   S    
S2    O24   D    
C21   H11   S    
O13   V3    S    
C42   C64   A    
O4    C2    A    
V1    O19   S    
C56   C58   A    
C15   C17   A    
C14   H16   S    
C7    C9    S    
O9    V1    S    
C25   H5    S    
H20   C62   S    
C11   C13   A    
O26   H30   S    
C3    C64   S    
O3    C1    A    
C2    C35   S    
C23   H3    S    
C49   C63   A    
C47   C51   A    
C24   H4    S    
O12   V4    S    
C18   H10   S    
C60   H26   S    
O7    C3    A    
C59   H25   S    
S1    O23   S    
C38   H24   S    
C9    C11   A    
O5    C7    A    
C46   I4    S    
O7    V1    S    
O6    C8    A    
O8    V2    S    
C25   C27   A    
C48   C50   A    
C26   C28   A    
O3    V1    S    
O14   V4    S    
C41   C43   A    
C22   H12   S    
C25   C35   A    
C24   C36   A    
C40   C62   A    
C16   C18   A    
C13   H15   S    
C8    C10   S    
C2    O12   A    
C5    C39   S    
C17   C19   A    
O10   V2    S    
C18   C20   A    
C33   H7    S    
C28   H18   S    
O1    V3    S    
C28   C30   A    
O11   V3    S    
C21   C23   A    
O17   V3    S    
C4    C63   S    
C13   C15   A    
C22   C24   A    
C52   C60   A    
C23   C35   A    
C50   C64   A    
C37   C61   A    
C9    C19   A    
C10   C20   A    
C11   H1    S    
O8    C4    A    
C29   C33   S    
C1    O11   A    
S2    O26   S    
C16   C32   S    
O15   V3    S    
C58   H28   S    
C12   H2    S    
C46   C48   A    
C27   H17   S    
C43   C45   A    
C6    C40   S    
C42   C44   A    
C22   C30   A    
C44   C46   A    
C39   C59   A    
C55   C57   A    
C20   H14   S    
C26   H6    S    
S1    O21   D    
C32   I6    S    
H21   C55   S    
O5    V1    S    
C34   H8    S    
C51   C53   A    
H19   C61   S    
O18   V4    S    
C31   I5    S    
C31   C33   D    
O17   C7    A    
H22   C56   S    
O16   C6    A    
O1    C3    A    
C38   C62   A    
C12   C14   A    
C42   I2    S    
C1    C36   S    
C37   H23   S    
C51   C59   A    
C17   H9    S    
C52   C54   A    
V2    O20   S    
C41   C63   A    
S2    O25   D    
O16   V4    S    
C57   H27   S    
C41   I1    S    
C44   S2    S    
C47   C49   A    
C39   C61   A    
C15   C31   S    
O6    V2    S    
O10   C6    A    
O18   C8    A    
C50   C58   A    
C54   C56   A    
O2    V4    S    
C26   C36   A    
O15   C5    A    
C49   C57   A    
V3    O19   S    
C14   C16   A    
C45   C47   A    
C40   C60   A    
C48   C52   A    
O9    C5    A    
O13   V1    S    
C10   C12   A    
C32   C34   D    
O14   V2    S    
O2    C4    A    
S1    O22   D    
C21   C29   A    
O4    V2    S    
C30   C34   S    
C53   C55   A    
C43   S1    S    
C38   C54   A    
C37   C53   A    
C45   I3    S    
C27   C29   A    
O23   H29   S    
