data_mof_unit_60094.cif
_audit_creation_date              2013-03-05T15:41:26-0500
_audit_creation_method            fapswitch 2.2
_symmetry_space_group_name_H-M    P1
_symmetry_Int_Tables_number       1
_space_group_crystal_system       triclinic
_cell_length_a                    8.242047
_cell_length_b                    15.016471
_cell_length_c                    15.026643
_cell_angle_alpha                 97.669087
_cell_angle_beta                  99.485623
_cell_angle_gamma                 97.836016
_cell_volume                      1793.95131285

loop_
_atom_site_label
_atom_site_type_symbol
_atom_site_description
_atom_site_fract_x
_atom_site_fract_y
_atom_site_fract_z
_atom_type_partial_charge
P1    P     P_3+3 0.004160 0.709210 0.580280 0.497529
O1    O     O_2   0.174040 0.723040 0.553850 -0.331421
O2    O     O_3   0.901550 0.609570 0.550800 -0.424426
O3    O     O_3   0.370320 0.665070 0.388210 -0.343700
O4    O     O_2   0.304275 0.822289 0.461916 -0.355732
O5    O     O_3   0.051491 0.735707 0.699673 -0.525725
O6    O     O_3   0.317183 0.811554 0.291604 -0.539105
C1    C     C_3   0.380239 0.902019 0.179554 -0.751518
H1    H     H_    0.259857 0.876033 0.131916 0.250097
H2    H     H_    0.363755 0.962214 0.226403 0.257958
P2    P     P_3+3 0.305010 0.425580 0.290930 0.491791
P3    P     P_3+3 0.887370 0.620258 0.224597 0.523176
O7    O     O_2   0.134800 0.452800 0.278160 -0.402548
O8    O     O_3   0.937630 0.618610 0.340820 -0.398252
O9    O     O_2   0.000363 0.562025 0.177885 -0.329070
O10   O     O_3   0.286834 0.305324 0.271168 -0.572152
O11   O     O_3   0.946458 0.731292 0.205122 -0.455130
C2    C     C_3   0.906874 0.791562 0.275322 0.420507
H3    H     H_    0.994747 0.793407 0.340390 0.136101
H4    H     H_    0.777125 0.771338 0.285328 0.008693
C3    C     C_3   0.922798 0.886913 0.250742 -0.740297
H5    H     H_    0.052298 0.909988 0.242376 0.277855
H6    H     H_    0.835739 0.887453 0.186072 0.273173
C4    C     C_3   0.664050 0.312342 0.252305 0.852993
H7    H     H_    0.587597 0.345051 0.296407 0.041867
C5    C     C_3   0.771482 0.384627 0.217449 -1.053292
H8    H     H_    0.867319 0.356255 0.185646 0.256099
H9    H     H_    0.696531 0.409706 0.161378 0.224602
H10   H     H_    0.829230 0.439917 0.274722 0.278107
Ba1   Ba    Ba6+2 0.154720 0.543770 0.458160 1.625428
C6    C     C_3   0.083346 0.658245 0.737313 0.397987
H11   H     H_    0.190351 0.633228 0.712674 0.091802
H12   H     H_    0.972990 0.603721 0.719050 0.117687
C7    C     C_3   0.124212 0.683984 0.840900 -0.829548
H13   H     H_    0.241838 0.733546 0.861759 0.294936
H14   H     H_    0.139050 0.622905 0.873360 0.209170
H15   H     H_    0.021527 0.714891 0.865596 0.258408
C8    C     C_3   0.122726 0.258526 0.245693 0.800077
H16   H     H_    0.040613 0.295551 0.281504 0.038625
C9    C     C_3   0.066260 0.245728 0.141422 -0.814107
H17   H     H_    0.075516 0.311696 0.116540 0.194120
H18   H     H_    0.934407 0.211643 0.121892 0.260643
H19   H     H_    0.143825 0.202819 0.106520 0.312040
P4    P     P_3+3 0.806120 0.290780 0.419650 0.513570
O12   O     O_2   0.636250 0.276900 0.446120 -0.328807
O13   O     O_3   0.908740 0.390420 0.449120 -0.407537
O14   O     O_3   0.439970 0.334920 0.611710 -0.385283
O15   O     O_3   0.767618 0.260834 0.299699 -0.580448
P5    P     P_3+3 0.917335 0.383785 0.777386 0.459068
O16   O     O_3   0.402050 0.547860 0.609740 -0.392828
O17   O     O_3   0.872650 0.381380 0.659100 -0.403887
O18   O     O_2   0.796211 0.439015 0.820233 -0.384424
O19   O     O_3   0.864952 0.273684 0.801471 -0.507203
Ba2   Ba    Ba6+2 0.655440 0.456220 0.541760 1.614059
P6    P     P_3+3 0.411313 0.783589 0.395773 0.483648
C10   C     C_3   0.432778 0.828363 0.233893 0.780285
H20   H     H_    0.561259 0.853599 0.272055 -0.093603
H21   H     H_    0.476511 0.923392 0.139521 0.259395
O20   O     O_3   0.408230 0.452130 0.390190 -0.365543
C11   C     C_3   0.598884 0.735829 0.681805 0.258678
H22   H     H_    0.713129 0.709376 0.668286 0.062206
H23   H     H_    0.502429 0.719842 0.618310 0.115664
C12   C     C_3   0.642935 0.839281 0.709067 -0.122525
H24   H     H_    0.723670 0.856760 0.777930 0.163779
H25   H     H_    0.714647 0.867451 0.659971 0.080446
P7    P     P_3+3 0.501818 0.578867 0.723749 0.453363
O21   O     O_2   0.675480 0.547140 0.721810 -0.367418
O22   O     O_3   0.541132 0.697674 0.753438 -0.547371
H26   H     H_    0.892161 0.934929 0.305957 0.217320
C13   C     C_3   0.879288 0.210563 0.726302 0.298788
H27   H     H_    0.782243 0.213708 0.666667 0.124915
H28   H     H_    0.003874 0.224318 0.707335 -0.004079
C14   C     C_3   0.852794 0.114231 0.749379 -0.090641
H29   H     H_    0.738875 0.102772 0.779631 0.183642
H30   H     H_    0.833700 0.064488 0.685322 0.087403
P8    P     P_3+3 0.395635 0.217546 0.607747 0.510942
C15   C     C_3   0.421206 0.258167 0.781415 0.352878
H31   H     H_    0.285753 0.261410 0.767011 0.040556
O23   O     O_2   0.507807 0.173703 0.547517 -0.359771
O24   O     O_3   0.462854 0.192421 0.716947 -0.512038
H32   H     H_    0.493686 0.326290 0.781636 0.136782
H33   H     H_    0.430535 0.284755 0.927444 0.219948
C16   C     C_3   0.464069 0.233256 0.876349 -0.696540
H34   H     H_    0.599717 0.231494 0.893972 0.262018
H35   H     H_    0.393661 0.165392 0.878840 0.295098
C17   C     C_R   0.632906 0.829135 0.448081 0.163687
H36   H     H_    0.674967 0.695213 0.470914 0.174918
H37   H     H_    0.484477 0.963025 0.388577 0.176642
C18   C     C_R   0.892296 0.793933 0.526722 0.272779
C19   C     C_R   0.075833 0.234564 0.524204 -0.394332
C20   C     C_R   0.174517 0.174721 0.559980 0.271686
C21   C     C_R   0.108805 0.083158 0.555271 -0.203775
C22   C     C_R   0.943089 0.047646 0.510835 0.014151
C23   C     C_R   0.847121 0.108042 0.466386 -0.151129
C24   C     C_R   0.872804 0.952821 0.504570 0.028462
C25   C     C_R   0.703549 0.922585 0.460831 -0.025820
C26   C     C_R   0.611479 0.984597 0.424047 -0.252362
C27   C     C_R   0.687593 0.070202 0.414964 0.385373
C28   C     C_R   0.963658 0.886622 0.539671 -0.243013
C29   C     C_R   0.729536 0.766255 0.479535 -0.528067
C30   C     C_R   0.914796 0.203482 0.474845 0.246753
H38   H     H_    0.089589 0.904518 0.577270 0.202603
H39   H     H_    0.129295 0.305447 0.529710 0.163817
H40   H     H_    0.191270 0.041370 0.585984 0.186642
C31   C     C_R   0.233594 0.467887 0.765390 -0.534233
C32   C     C_R   0.135331 0.435140 0.824656 0.254663
C33   C     C_R   0.200224 0.446654 0.918524 -0.249625
C34   C     C_R   0.363530 0.495130 0.955142 0.068193
C35   C     C_R   0.454803 0.532568 0.893050 -0.225769
C36   C     C_R   0.390559 0.518933 0.799783 0.280283
C37   C     C_R   0.600197 0.557186 0.091077 -0.150800
C38   C     C_R   0.665240 0.574011 0.184490 0.215592
C39   C     C_R   0.414533 0.487724 0.213649 0.320370
C40   C     C_R   0.345963 0.475404 0.120165 -0.115272
C41   C     C_R   0.436259 0.510073 0.056396 0.110596
C42   C     C_R   0.569709 0.542348 0.246253 -0.438742
H41   H     H_    0.683699 0.579746 0.047776 0.140044
H42   H     H_    0.118929 0.419031 0.960746 0.155563
H43   H     H_    0.222728 0.437628 0.098996 0.111834
H44   H     H_    0.574343 0.575314 0.914536 0.151708
H45   H     H_    0.622959 0.552280 0.318331 0.157334
H46   H     H_    0.183380 0.459190 0.692976 0.169471
N1    N     N_R   0.431955 0.746107 0.169991 0.212866
O25   O     O_R   0.534244 0.747366 0.112666 -0.448150
O26   O     O_R   0.312758 0.677155 0.159637 -0.342791
N2    N     N_R   0.117091 0.169512 0.275987 0.248589
O27   O     O_R   0.181923 0.164915 0.359694 -0.385223
O28   O     O_R   0.049897 0.094330 0.220826 -0.359808
N3    N     N_R   0.492759 0.880742 0.709202 0.278389
O29   O     O_R   0.458513 0.938038 0.653816 -0.381048
O30   O     O_R   0.398432 0.865490 0.768712 -0.301775
N4    N     N_R   0.996670 0.099271 0.813082 0.260990
O31   O     O_R   0.032835 0.143970 0.896035 -0.341493
O32   O     O_R   0.086185 0.038769 0.788199 -0.361588
N5    N     N_R   0.624497 0.101623 0.333141 0.239049
O33   O     O_R   0.475130 0.122077 0.321008 -0.325360
O34   O     O_R   0.688433 0.077591 0.261833 -0.345645
N6    N     N_R   0.556245 0.253379 0.172768 0.255412
O35   O     O_R   0.441186 0.286305 0.123342 -0.470321
O36   O     O_R   0.602902 0.179691 0.136704 -0.292261

loop_
_geom_bond_atom_site_label_1
_geom_bond_atom_site_label_2
_geom_bond_distance
_ccdc_geom_bond_type
C1    H1    1.111264 S    
P7    O22   1.751906 S    
C31   C36   1.389911 A    
C12   H25   1.109680 S    
N2    O27   1.297744 A    
C2    C3    1.519767 S    
C14   H29   1.111460 S    
C24   C25   1.424639 A    
P8    O23   1.545978 D    
O6    P6    1.758548 S    
C1    C10   1.527315 S    
C40   C41   1.416227 A    
N5    O33   1.298929 A    
C15   H31   1.110667 S    
C34   C35   1.417239 A    
Ba1   Ba2   4.572740 S    
C5    H8    1.093470 S    
O16   Ba2   2.900072 S    
C18   C28   1.409911 A    
C11   C12   1.529798 S    
C34   C41   1.515327 S    
C4    C5    1.509684 S    
O14   P8    1.741497 S    
P1    O1    1.512387 D    
C8    H16   1.095216 S    
O2    Ba2   2.826276 S    
C24   C28   1.428229 A    
N1    O26   1.300276 A    
C38   C42   1.401407 A    
C32   C33   1.402332 A    
C15   C16   1.520559 S    
C7    H15   1.110876 S    
C10   H20   1.107352 S    
C11   H23   1.112112 S    
C7    H13   1.110353 S    
C21   C22   1.414743 A    
C1    H21   1.110814 S    
C39   C40   1.402643 A    
C9    H19   1.109758 S    
C16   H34   1.110466 S    
C23   C30   1.446123 A    
N4    O31   1.301087 A    
P5    O17   1.749202 S    
P3    O11   1.748894 S    
N2    O28   1.302602 A    
C33   C34   1.423426 A    
C6    H12   1.108002 S    
C13   H27   1.109219 S    
C17   C29   1.396202 A    
C33   H42   1.076163 S    
C2    H4    1.111338 S    
H37   C26   1.078092 S    
C39   C42   1.395987 A    
C9    H18   1.110058 S    
O5    C6    1.397077 S    
Ba1   O16   2.783073 S    
C14   N4    1.459057 S    
C22   C24   1.446852 A    
C3    H5    1.109096 S    
Ba1   O20   2.900848 S    
C14   H30   1.111471 S    
O6    C10   1.410193 S    
O8    Ba1   2.758765 S    
P2    O20   1.561402 S    
O19   C13   1.406065 S    
C8    N2    1.465793 S    
P4    O13   1.582669 S    
C26   C27   1.385567 A    
Ba2   O20   2.782382 S    
C42   H45   1.081805 S    
C18   C29   1.389561 A    
P1    O5    1.750901 S    
C4    O15   1.400280 S    
C10   N1    1.458355 S    
O7    Ba1   2.831124 S    
N1    O25   1.300964 A    
C4    H7    1.101206 S    
P2    Ba1   3.381424 S    
C20   C21   1.395420 A    
C2    H3    1.111401 S    
Ba2   O21   2.831361 S    
C4    N6    1.467961 S    
C27   N5    1.419792 S    
C3    H26   1.109546 S    
C11   H22   1.108690 S    
P1    O2    1.582650 S    
O2    Ba1   2.901844 S    
C19   C30   1.394215 A    
P2    O10   1.772027 S    
C6    H11   1.103123 S    
P3    O9    1.548676 D    
C15   H32   1.111368 S    
P5    O18   1.547282 D    
C25   C26   1.392961 A    
O13   Ba2   2.902752 S    
C13   C14   1.527481 S    
O11   C2    1.406208 S    
C6    C7    1.522118 S    
C22   C23   1.441328 A    
P7    C36   1.830567 S    
O16   P7    1.745371 S    
C17   C25   1.419023 A    
O14   Ba2   2.796565 S    
N4    O32   1.300992 A    
C9    H17   1.102066 S    
C16   H35   1.110295 S    
P3    O8    1.731511 S    
O12   Ba2   2.849106 S    
C3    H6    1.110461 S    
O3    P6    1.750411 S    
P3    C38   1.837192 S    
P4    O12   1.512604 D    
H36   C29   1.081752 S    
C15   O24   1.406326 S    
N5    O34   1.300322 A    
P1    C18   1.861435 S    
C37   C38   1.393532 A    
O4    P6    1.542237 D    
P8    O24   1.750564 S    
C37   C41   1.416558 A    
P4    C30   1.890555 S    
P5    C32   1.839248 S    
N6    O36   1.300243 A    
C31   C32   1.391719 A    
C5    H9    1.099965 S    
Ba1   O13   2.825636 S    
O1    Ba1   2.848561 S    
O17   Ba2   2.759358 S    
P6    C17   1.861183 S    
N3    O29   1.300980 A    
C35   C36   1.391311 A    
C8    C9    1.537347 S    
P2    O7    1.503507 D    
C19   C20   1.393635 A    
C40   H43   1.069049 S    
P5    O19   1.751423 S    
P1    Ba1   3.384313 S    
C31   H46   1.082260 S    
P7    O21   1.572430 D    
C7    H14   1.106540 S    
C12   N3    1.459547 S    
P2    C39   1.854529 S    
C19   H39   1.081928 S    
N6    O35   1.299662 A    
C21   H40   1.076534 S    
P8    C20   1.837441 S    
C37   H41   1.074537 S    
C12   H24   1.111468 S    
P4    Ba2   3.384790 S    
C28   H38   1.076502 S    
C11   O22   1.404499 S    
C5    H10   1.105911 S    
C1    H2    1.107384 S    
H33   C16   1.110715 S    
C23   C27   1.411727 A    
C13   H28   1.110248 S    
O3    Ba1   2.797216 S    
P4    O15   1.762949 S    
C35   H44   1.074419 S    
O10   C8    1.402935 S    
N3    O30   1.300687 A    
