data_mof_unit_12663.cif
_audit_creation_date              2012-12-10T19:47:23-0500
_audit_creation_method            fapswitch 2.2
_symmetry_space_group_name_H-M    P1
_symmetry_Int_Tables_number       1
_space_group_crystal_system       triclinic
_cell_length_a                    10.909355
_cell_length_b                    10.889803
_cell_length_c                    12.722435
_cell_angle_alpha                 91.851933
_cell_angle_beta                  90.982163
_cell_angle_gamma                 90.148135
_cell_volume                      1510.41567349

loop_
_atom_site_label
_atom_site_type_symbol
_atom_type_description
_atom_site_fract_x
_atom_site_fract_y
_atom_site_fract_z
_atom_type_partial_charge
C1    C     C_R   0.261907 0.499476 0.502300 0.789465
C2    C     C_R   0.738093 0.500521 0.497700 0.789464
C3    C     C_R   0.496328 0.871709 0.496496 -0.087443
C4    C     C_R   0.503663 0.128291 0.503505 -0.087440
C5    C     C_R   0.476475 0.936331 0.403271 -0.011006
C6    C     C_R   0.523509 0.063668 0.596731 -0.011012
C7    C     C_R   0.200626 0.448605 0.862639 -0.191398
C8    C     C_R   0.799327 0.551452 0.137390 -0.191357
C9    C     C_R   0.167610 0.436240 0.756384 -0.097173
C10   C     C_R   0.832373 0.563786 0.243641 -0.097146
C11   C     C_R   0.116293 0.535777 0.704308 0.102337
C12   C     C_R   0.883708 0.464235 0.295687 0.102319
C13   C     C_R   0.097087 0.647226 0.760063 -0.203977
C14   C     C_R   0.902919 0.352804 0.239903 -0.203979
C15   C     C_R   0.127574 0.659403 0.867462 0.215855
C16   C     C_R   0.872404 0.340658 0.132508 0.215946
C17   C     C_R   0.180775 0.559461 0.918252 -0.125205
C18   C     C_R   0.819167 0.440611 0.081752 -0.125285
C19   C     C_R   0.934427 0.519325 0.591352 -0.240431
C20   C     C_R   0.065574 0.480653 0.408647 -0.240432
C21   C     C_R   0.871690 0.501709 0.494966 -0.091728
C22   C     C_R   0.128311 0.498276 0.505033 -0.091724
C23   C     C_R   0.502099 0.261945 0.501537 0.789755
C24   C     C_R   0.497897 0.738055 0.498463 0.789755
C25   C     C_R   0.938610 0.482470 0.401993 0.004062
C26   C     C_R   0.061391 0.517514 0.598005 0.004054
C27   C     C_2   0.471006 0.461480 0.032065 -0.282407
C28   C     C_2   0.528974 0.538539 0.967935 -0.282416
C29   C     C_1   0.523044 0.526468 0.852505 0.217426
C30   C     C_1   0.476948 0.473541 0.147495 0.217426
C31   C     C_R   0.689875 0.234739 0.820225 -0.132792
C32   C     C_R   0.310070 0.765255 0.179807 -0.132735
C33   C     C_R   0.663063 0.183441 0.720352 -0.088064
C34   C     C_R   0.336905 0.816551 0.279676 -0.088055
C35   C     C_R   0.550675 0.123044 0.700679 0.134071
C36   C     C_R   0.449285 0.876956 0.299328 0.134054
C37   C     C_R   0.466805 0.112515 0.782447 -0.153155
C38   C     C_R   0.533124 0.887493 0.217543 -0.153169
C39   C     C_R   0.494525 0.162827 0.882374 -0.152730
C40   C     C_R   0.505379 0.837188 0.117620 -0.152748
C41   C     C_R   0.605846 0.223919 0.901171 -0.128064
C42   C     C_R   0.394066 0.776091 0.098842 -0.128067
C43   C     C_R   0.518859 0.936476 0.591869 -0.237827
C44   C     C_R   0.481129 0.063523 0.408133 -0.237827
Cu1   Cu    Cu3+1 0.492140 0.492110 0.395880 0.975172
Cu2   Cu    Cu3+1 0.507860 0.507890 0.604120 0.975175
H1    H     H_    0.626574 0.263133 0.978555 0.132963
H2    H     H_    0.373320 0.736885 0.021461 0.132968
H3    H     H_    0.053201 0.722566 0.720589 0.123675
H4    H     H_    0.946818 0.277451 0.279353 0.123665
H5    H     H_    0.884424 0.533802 0.663662 0.168818
H6    H     H_    0.115577 0.466178 0.336337 0.168821
H7    H     H_    0.581604 0.614654 0.001965 0.153189
H8    H     H_    0.418376 0.385365 0.998035 0.153191
H9    H     H_    0.775908 0.282367 0.834898 0.124271
H10   H     H_    0.224046 0.717615 0.165154 0.124185
H11   H     H_    0.729324 0.190884 0.658409 0.106695
H12   H     H_    0.270667 0.809101 0.341631 0.106691
H13   H     H_    0.380422 0.064868 0.768789 0.119776
H14   H     H_    0.619501 0.935143 0.231186 0.119783
H15   H     H_    0.429785 0.154313 0.945275 0.122767
H16   H     H_    0.570094 0.845711 0.054705 0.122784
H17   H     H_    0.535409 0.887990 0.663873 0.166491
H18   H     H_    0.464576 0.112010 0.336130 0.166489
H19   H     H_    0.204565 0.566507 0.001177 0.132114
H20   H     H_    0.795334 0.433583 0.998833 0.132097
H21   H     H_    0.237987 0.370590 0.902469 0.132292
H22   H     H_    0.761945 0.629476 0.097585 0.132279
H23   H     H_    0.178770 0.348307 0.715445 0.123484
H24   H     H_    0.821214 0.651707 0.284600 0.123472
N1    N     N_1   0.480320 0.480250 0.239400 -0.156215
N2    N     N_1   0.519680 0.519750 0.760600 -0.156214
O1    O     O_R   0.313000 0.493330 0.412070 -0.587973
O2    O     O_R   0.687000 0.506670 0.587930 -0.587970
O3    O     O_R   0.326280 0.506660 0.587930 -0.571165
O4    O     O_R   0.673720 0.493340 0.412070 -0.571166
O5    O     O_R   0.493370 0.312980 0.412070 -0.585852
O6    O     O_R   0.506630 0.687020 0.587930 -0.585850
O7    O     O_R   0.506650 0.326310 0.587930 -0.570012
O8    O     O_R   0.493350 0.673690 0.412070 -0.570014
C45   C     C_3   0.098477 0.776865 0.927931 -0.435035
C46   C     C_3   0.995292 0.757517 0.005244 -0.844812
H25   H     H_    0.911239 0.724592 0.962417 0.250931
H26   H     H_    0.022425 0.689366 0.064318 0.251525
H27   H     H_    0.974425 0.845807 0.047195 0.239802
H28   H     H_    0.181326 0.811412 0.970927 0.199183
H29   H     H_    0.069759 0.849711 0.873498 0.198424
C47   C     C_3   0.901465 0.223203 0.072009 -0.434988
C48   C     C_3   0.004602 0.242554 0.994643 -0.845080
H30   H     H_    0.977604 0.310980 0.935777 0.251616
H31   H     H_    0.088779 0.275104 0.037466 0.250930
H32   H     H_    0.025167 0.154368 0.952447 0.239844
H33   H     H_    0.930202 0.150341 0.126420 0.198419
H34   H     H_    0.818585 0.188674 0.029045 0.199165

loop_
_geom_bond_atom_site_label_1
_geom_bond_atom_site_label_2
_ccdc_geom_bond_type
Cu1   N1    S    
C11   C13   A    
C30   N1    T    
C27   H8    S    
C43   H17   S    
C39   C41   A    
Cu1   Cu2   S    
C44   H18   S    
C3    C43   A    
Cu1   O4    S    
C28   C29   S    
C35   C37   A    
C9    H23   S    
Cu2   O7    S    
C20   C25   A    
C5    C36   S    
C40   H16   S    
C6    C35   S    
Cu1   O1    S    
C19   C26   A    
C24   O8    A    
C7    C17   A    
C31   C33   A    
C48   H31   S    
Cu2   N2    S    
C45   H28   S    
C2    O2    A    
C29   N2    T    
C40   C42   A    
C1    C22   S    
C27   C30   S    
C3    C24   S    
Cu2   O3    S    
C45   C46   S    
C39   H15   S    
C47   H34   S    
C15   C45   S    
C1    O3    A    
C4    C6    A    
Cu2   O6    S    
C4    C23   S    
C4    C44   A    
C11   C26   S    
C8    C18   A    
C32   C34   A    
C19   H5    S    
C2    C21   S    
C41   H1    S    
C42   H2    S    
C23   O5    A    
C48   H32   S    
C13   H3    S    
C9    C11   A    
C37   H13   S    
C10   C12   A    
C38   H14   S    
C10   H24   S    
C24   O6    A    
C5    C44   A    
C20   C22   A    
C8    H22   S    
C46   H26   S    
C6    C43   A    
C13   C15   A    
C14   C16   A    
Cu2   O2    S    
C2    O4    A    
C34   H12   S    
C15   C17   A    
C21   C25   A    
C47   H33   S    
C33   H11   S    
C31   C41   A    
C19   C21   A    
C8    C10   A    
C12   C14   A    
C3    C5    A    
C28   H7    S    
C23   O7    A    
C18   H20   S    
C46   H27   S    
C17   H19   S    
C12   C25   S    
C20   H6    S    
C1    O1    A    
C36   C38   A    
C37   C39   A    
C38   C40   A    
C45   H29   S    
C14   H4    S    
C33   C35   A    
Cu1   O8    S    
C34   C36   A    
C7    H21   S    
C7    C9    A    
C47   C48   S    
C16   C18   A    
C46   H25   S    
C22   C26   A    
C27   C28   D    
C16   C47   S    
C32   C42   A    
Cu1   O5    S    
C31   H9    S    
C48   H30   S    
C32   H10   S    
