data_mof_unit_17017.cif
_audit_creation_date              2012-12-11T15:48:06-0500
_audit_creation_method            fapswitch 2.2
_symmetry_space_group_name_H-M    P1
_symmetry_Int_Tables_number       1
_space_group_crystal_system       triclinic
_cell_length_a                    6.913169
_cell_length_b                    17.637461
_cell_length_c                    19.546541
_cell_angle_alpha                 108.683135
_cell_angle_beta                  89.474036
_cell_angle_gamma                 90.760214
_cell_volume                      2257.5048662

loop_
_atom_site_label
_atom_site_type_symbol
_atom_type_description
_atom_site_fract_x
_atom_site_fract_y
_atom_site_fract_z
_atom_type_partial_charge
O1    O     O_R   0.494330 0.415710 0.413720 -0.519045
O2    O     O_R   0.819360 0.430070 0.560210 -0.514038
O3    O     O_R   0.994320 0.584290 0.586280 -0.523734
C1    C     C_R   0.649620 0.414654 0.581697 0.820068
O4    O     O_R   0.823740 0.406290 0.412670 -0.556469
O5    O     O_R   0.998730 0.560340 0.437690 -0.554123
C2    C     C_R   0.654608 0.383770 0.384357 0.771165
O6    O     O_R   0.489920 0.439660 0.562310 -0.530439
O7    O     O_3   0.662330 0.550570 0.508380 -0.359900
V1    V     V_3+5 0.935370 0.490620 0.498440 1.649707
O8    O     O_R   0.328720 0.569930 0.439790 -0.501982
C3    C     C_R   0.161271 0.583465 0.416922 0.775753
O9    O     O_R   0.324340 0.593710 0.587330 -0.507170
C4    C     C_R   0.155422 0.616950 0.615353 0.830748
V2    V     V_3+5 0.435940 0.509380 0.501560 1.723941
O10   O     O_3   0.159110 0.449430 0.491620 -0.374488
C5    C     C_R   0.296698 0.741692 0.706393 0.367901
C6    C     C_R   0.282220 0.804494 0.772499 -0.241909
H1    H     H_    0.397014 0.849071 0.787623 0.154572
C7    C     C_R   0.120817 0.811459 0.818336 -0.269733
C8    C     C_R   0.972333 0.752266 0.797646 0.292766
C9    C     C_R   0.983177 0.691448 0.730800 0.590002
C10   C     C_R   0.145006 0.684676 0.684733 -0.286510
C11   C     C_R   0.010917 0.614709 0.311262 0.323828
C12   C     C_R   0.155864 0.629553 0.364974 -0.287304
C13   C     C_R   0.296516 0.689313 0.369601 0.604120
C14   C     C_R   0.297569 0.733867 0.320952 -0.129208
C15   C     C_R   0.142097 0.724371 0.272169 -0.142285
C16   C     C_R   0.998184 0.664753 0.267562 -0.037910
C17   C     C_R   0.446088 0.790352 0.321941 0.391610
C18   C     C_R   0.429353 0.842095 0.281087 0.342187
C19   C     C_R   0.274861 0.833333 0.231518 -0.077564
C20   C     C_R   0.130617 0.774135 0.227525 -0.028699
C21   C     C_R   0.973787 0.764606 0.179225 -0.011472
C22   C     C_R   0.835503 0.704031 0.174554 -0.231340
C23   C     C_R   0.846338 0.655246 0.217810 0.679864
C24   C     C_R   0.263366 0.881049 0.185264 0.272431
C25   C     C_R   0.109760 0.869441 0.134930 -0.192895
C26   C     C_R   0.960927 0.813722 0.134573 0.336637
H2    H     H_    0.717581 0.692460 0.136488 0.171983
C27   C     C_R   0.479560 0.191423 0.873165 0.659575
C28   C     C_R   0.625700 0.135536 0.869939 -0.273053
C29   C     C_R   0.775499 0.124902 0.818282 0.366375
C30   C     C_R   0.784073 0.173321 0.772403 -0.109971
C31   C     C_R   0.632140 0.227442 0.774625 -0.145138
C32   C     C_R   0.479815 0.236330 0.825225 -0.149123
C33   C     C_R   0.942162 0.170371 0.725410 0.543695
C34   C     C_R   0.943704 0.215664 0.678601 0.609100
C35   C     C_R   0.789469 0.266689 0.677914 -0.143943
C36   C     C_R   0.633328 0.273379 0.726612 -0.136366
C37   C     C_R   0.479578 0.326418 0.727917 -0.098719
C38   C     C_R   0.332359 0.335940 0.780559 0.548643
C39   C     C_R   0.331967 0.291209 0.827824 0.654734
C40   C     C_R   0.791132 0.312249 0.630526 0.595310
C41   C     C_R   0.639571 0.364993 0.630899 -0.258790
C42   C     C_R   0.480767 0.370349 0.678207 0.380459
C43   C     C_R   0.795672 0.262477 0.293527 -0.306421
H3    H     H_    0.922316 0.270410 0.327462 0.180828
C44   C     C_R   0.786423 0.197236 0.229099 0.336521
C45   C     C_R   0.621103 0.185976 0.184311 -0.188953
C46   C     C_R   0.466677 0.240810 0.205611 0.227821
C47   C     C_R   0.478199 0.305101 0.271045 0.536647
C48   C     C_R   0.642478 0.316194 0.315387 -0.209796
O11   O     O_R   0.774940 0.060470 0.937800 -0.517268
O12   O     O_R   0.440880 0.093730 0.087350 -0.519902
O13   O     O_R   0.266130 0.939630 0.062280 -0.547441
C49   C     C_R   0.609904 0.117040 0.115508 0.812771
O14   O     O_R   0.445480 0.069960 0.939820 -0.512796
O15   O     O_R   0.270770 0.915690 0.913690 -0.547514
C50   C     C_R   0.615196 0.085445 0.918523 0.792292
O16   O     O_R   0.770300 0.084410 0.086380 -0.520260
O17   O     O_3   0.602600 0.949510 0.991670 -0.384133
V3    V     V_3+5 0.329470 0.009370 0.001550 1.640208
O18   O     O_R   0.940760 0.906160 0.912560 -0.545360
C51   C     C_R   0.109851 0.881560 0.885762 0.742529
O19   O     O_R   0.936150 0.929930 0.060100 -0.513978
C52   C     C_R   0.103602 0.916240 0.083079 0.746128
V4    V     V_3+5 0.828930 0.990450 0.998310 1.623418
O20   O     O_3   0.105670 0.050490 0.008320 -0.340759
O21   O     O_3   0.455448 0.736425 0.661672 -0.592989
H4    H     H_    0.548720 0.780029 0.685103 0.309977
O22   O     O_3   0.807907 0.805865 0.087842 -0.624091
H5    H     H_    0.687080 0.804560 0.115127 0.315737
F1    F     F_    0.704536 0.599265 0.210784 -0.621281
F2    F     F_    0.337199 0.202344 0.923776 -0.584459
O23   O     O_3   0.906293 0.064613 0.811774 -0.596746
H6    H     H_    0.916817 0.033671 0.759726 0.330452
F3    F     F_    0.101710 0.126604 0.726288 -0.646350
F4    F     F_    0.100122 0.210098 0.634744 -0.604888
F5    F     F_    0.938219 0.303535 0.582041 -0.634531
O24   O     O_3   0.330908 0.420196 0.676028 -0.586909
H7    H     H_    0.210198 0.387954 0.670544 0.377267
F6    F     F_    0.190128 0.390603 0.789118 -0.623733
F7    F     F_    0.184906 0.302491 0.876529 -0.565577
O25   O     O_3   0.935904 0.143022 0.209985 -0.622881
H8    H     H_    0.039428 0.159465 0.246770 0.299160
O26   O     O_3   0.308017 0.231412 0.160888 -0.599669
H9    H     H_    0.211155 0.273065 0.183151 0.361233
F8    F     F_    0.330602 0.358077 0.290319 -0.694748
O27   O     O_3   0.816672 0.750052 0.841637 -0.589741
H10   H     H_    0.860775 0.769278 0.892411 0.310841
F9    F     F_    0.838005 0.635995 0.713028 -0.622761
O28   O     O_3   0.881541 0.551553 0.300071 -0.570011
H11   H     H_    0.948854 0.506192 0.308597 0.309793
F10   F     F_    0.423762 0.707478 0.425301 -0.651495
O29   O     O_3   0.611034 0.797562 0.362768 -0.577116
H12   H     H_    0.657207 0.742805 0.356473 0.340068
O30   O     O_3   0.571463 0.899677 0.289775 -0.586703
H13   H     H_    0.505432 0.951901 0.308803 0.332767
O31   O     O_3   0.403892 0.938583 0.189465 -0.624339
H14   H     H_    0.338054 0.988142 0.189361 0.285290

loop_
_geom_bond_atom_site_label_1
_geom_bond_atom_site_label_2
_ccdc_geom_bond_type
C41   C42   A    
C18   O30   S    
O25   H8    S    
C1    O6    A    
O26   H9    S    
C31   C32   A    
C38   C39   A    
C16   C23   A    
C13   C14   A    
C47   C48   A    
C15   C16   A    
O19   V4    S    
C40   F5    S    
O5    C3    A    
C17   C18   A    
C43   C44   A    
O29   H12   S    
C35   C40   A    
C28   C50   S    
O12   V3    S    
O30   H13   S    
C21   C22   A    
C27   C28   A    
C11   C16   A    
O17   V4    S    
O31   H14   S    
O8    V2    S    
C42   O24   S    
C33   C34   A    
C45   C49   S    
O12   C49   A    
C27   C32   A    
O15   V3    S    
O1    V2    S    
O11   C50   A    
O7    V1    S    
C49   O16   A    
C30   C33   A    
C44   C45   A    
O1    C2    A    
C8    C9    A    
C17   O29   S    
C14   C17   A    
C44   O25   S    
C13   F10   S    
C43   C48   A    
O18   C51   A    
C37   C38   A    
C11   C12   A    
O24   H7    S    
O4    C2    A    
C8    O27   S    
V4    O20   S    
O21   H4    S    
C36   C37   A    
C12   C13   A    
O13   V3    S    
C5    O21   S    
C21   C26   A    
C7    C51   S    
C45   C46   A    
C22   C23   A    
C4    C10   S    
O2    C1    A    
C29   C30   A    
C24   C25   A    
C18   C19   A    
C5    C6    A    
V3    O20   S    
C38   F6    S    
C5    C10   A    
C19   C24   A    
O19   C52   A    
C2    C48   S    
C24   O31   S    
O3    C4    A    
C34   C35   A    
C15   C20   A    
C35   C36   A    
O6    V2    S    
C34   F4    S    
O9    V2    S    
C1    C41   S    
C28   C29   A    
O2    V1    S    
C14   C15   A    
C30   C31   A    
O13   C52   A    
C40   C41   A    
C39   F7    S    
O23   H6    S    
C29   O23   S    
O11   V4    S    
C46   O26   S    
C37   C42   A    
C26   O22   S    
O17   V3    S    
O5    V1    S    
O8    C3    A    
C25   C52   S    
C27   F2    S    
C9    F9    S    
C3    C12   S    
C11   O28   S    
C33   F3    S    
C22   H2    S    
O14   V3    S    
O4    V1    S    
O3    V1    S    
V1    O10   S    
C19   C20   A    
C43   H3    S    
C25   C26   A    
C31   C36   A    
C23   F1    S    
C32   C39   A    
O27   H10   S    
C20   C21   A    
O15   C51   A    
C6    C7    A    
O7    V2    S    
C46   C47   A    
C47   F8    S    
C7    C8    A    
O14   C50   A    
O22   H5    S    
O18   V4    S    
O28   H11   S    
C6    H1    S    
C9    C10   A    
O9    C4    A    
O16   V4    S    
V2    O10   S    
