data_mof_unit_62099.cif
_audit_creation_date              2013-03-05T15:42:39-0500
_audit_creation_method            fapswitch 2.2
_symmetry_space_group_name_H-M    P1
_symmetry_Int_Tables_number       1
_space_group_crystal_system       triclinic
_cell_length_a                    18.528922
_cell_length_b                    18.521212
_cell_length_c                    42.986192
_cell_angle_alpha                 89.998003
_cell_angle_beta                  90.001104
_cell_angle_gamma                 89.975976
_cell_volume                      14751.9180656

loop_
_atom_site_label
_atom_site_type_symbol
_atom_site_description
_atom_site_fract_x
_atom_site_fract_y
_atom_site_fract_z
_atom_type_partial_charge
Zn1   Zn    Zn3+2 0.414160 0.000000 0.474030 0.980423
Zn2   Zn    Zn3+2 0.000000 0.414160 0.474030 0.969582
Zn3   Zn    Zn3+2 0.585840 0.000000 0.474030 0.980101
Zn4   Zn    Zn3+2 1.000000 0.585840 0.474030 0.969504
Zn5   Zn    Zn3+2 0.914160 0.500000 0.974030 0.982059
Zn6   Zn    Zn3+2 0.500000 0.914160 0.974030 0.981330
Zn7   Zn    Zn3+2 0.085840 0.500000 0.974030 0.982058
Zn8   Zn    Zn3+2 0.500000 0.085840 0.974030 0.981333
Zn9   Zn    Zn3+2 0.500000 0.085780 0.525960 0.966725
Zn10  Zn    Zn3+2 0.914220 0.500000 0.525960 0.967915
Zn11  Zn    Zn3+2 0.500000 0.914220 0.525960 0.966542
Zn12  Zn    Zn3+2 0.085780 0.500000 0.525960 0.967854
Zn13  Zn    Zn3+2 1.000000 0.585780 0.025960 0.966495
Zn14  Zn    Zn3+2 0.414220 0.000000 0.025960 0.966448
Zn15  Zn    Zn3+2 0.000000 0.414220 0.025960 0.966493
Zn16  Zn    Zn3+2 0.585780 0.000000 0.025960 0.966454
O1    O     O_3   0.500000 0.000000 0.500000 -0.490707
O2    O     O_3   1.000000 0.500000 0.500000 -0.488052
O3    O     O_3   0.000000 0.500000 0.000000 -0.491548
O4    O     O_3   0.500000 0.000000 0.000000 -0.491161
O5    O     O_R   0.500000 0.939850 0.569320 -0.643441
O6    O     O_R   0.060150 0.500000 0.569320 -0.643325
O7    O     O_R   0.500000 0.060150 0.569320 -0.643725
O8    O     O_R   0.939850 0.500000 0.569320 -0.643605
O9    O     O_R   1.000000 0.439850 0.069320 -0.643123
O10   O     O_R   0.560150 0.000000 0.069320 -0.643287
O11   O     O_R   0.000000 0.560150 0.069320 -0.643115
O12   O     O_R   0.439850 0.000000 0.069320 -0.643290
O13   O     O_R   0.439930 0.000000 0.430670 -0.606307
O14   O     O_R   1.000000 0.439930 0.430670 -0.603456
O15   O     O_R   0.560070 0.000000 0.430670 -0.606362
O16   O     O_R   1.000000 0.560070 0.430670 -0.603797
O17   O     O_R   0.939930 0.500000 0.930670 -0.605464
O18   O     O_R   0.500000 0.939930 0.930670 -0.604530
O19   O     O_R   0.060070 0.500000 0.930670 -0.605480
O20   O     O_R   0.500000 0.060070 0.930670 -0.604542
O21   O     O_R   0.415450 0.144560 0.518170 -0.642798
O22   O     O_R   0.855440 0.415450 0.518170 -0.643920
O23   O     O_R   0.584550 0.855440 0.518170 -0.642625
O24   O     O_R   0.144560 0.584550 0.518170 -0.644237
O25   O     O_R   0.584550 0.144560 0.518170 -0.645643
O26   O     O_R   0.144560 0.415450 0.518170 -0.644687
O27   O     O_R   0.415450 0.855440 0.518170 -0.646004
O28   O     O_R   0.855440 0.584550 0.518170 -0.644593
O29   O     O_R   0.915450 0.644560 0.018170 -0.642532
O30   O     O_R   0.355440 0.915450 0.018170 -0.646191
O31   O     O_R   0.084550 0.355440 0.018170 -0.642552
O32   O     O_R   0.644560 0.084550 0.018170 -0.646187
O33   O     O_R   0.084550 0.644560 0.018170 -0.646329
O34   O     O_R   0.644560 0.915450 0.018170 -0.642976
O35   O     O_R   0.915450 0.355440 0.018170 -0.646333
O36   O     O_R   0.355440 0.084550 0.018170 -0.642970
O37   O     O_R   0.644640 0.915430 0.481820 -0.641314
O38   O     O_R   0.084570 0.644640 0.481820 -0.654326
O39   O     O_R   0.355360 0.084570 0.481820 -0.640718
O40   O     O_R   0.915430 0.355360 0.481820 -0.654633
O41   O     O_R   0.355360 0.915430 0.481820 -0.641896
O42   O     O_R   0.915430 0.644640 0.481820 -0.639225
O43   O     O_R   0.644640 0.084570 0.481820 -0.642049
O44   O     O_R   0.084570 0.355360 0.481820 -0.639253
O45   O     O_R   0.144640 0.415430 0.981820 -0.640279
O46   O     O_R   0.584570 0.144640 0.981820 -0.641144
O47   O     O_R   0.855360 0.584570 0.981820 -0.640297
O48   O     O_R   0.415430 0.855360 0.981820 -0.641142
O49   O     O_R   0.855360 0.415430 0.981820 -0.641059
O50   O     O_R   0.415430 0.144640 0.981820 -0.641718
O51   O     O_R   0.144640 0.584570 0.981820 -0.641060
O52   O     O_R   0.584570 0.855360 0.981820 -0.641709
C1    C     C_R   0.500000 0.999999 0.584220 0.784290
C2    C     C_R   0.000000 0.500000 0.584220 0.784071
C3    C     C_R   0.000000 0.499999 0.084139 0.783483
C4    C     C_R   0.500000 0.999994 0.084221 0.784633
C5    C     C_R   0.500005 0.999993 0.415799 0.861856
C6    C     C_R   0.999999 0.500001 0.415593 0.859702
C7    C     C_R   0.999999 0.500000 0.915795 0.860970
C8    C     C_R   0.500000 0.000001 0.915783 0.858141
C9    C     C_R   0.361333 0.138521 0.500084 0.846453
C10   C     C_R   0.861199 0.361601 0.499905 0.852887
C11   C     C_R   0.638358 0.861158 0.499892 0.847554
C12   C     C_R   0.138801 0.638399 0.499905 0.852912
C13   C     C_R   0.638706 0.138503 0.500102 0.850040
C14   C     C_R   0.138781 0.361594 0.499917 0.855818
C15   C     C_R   0.361293 0.861496 0.500102 0.849771
C16   C     C_R   0.861496 0.638700 0.500088 0.855651
C17   C     C_R   0.861334 0.638532 0.000079 0.846009
C18   C     C_R   0.361222 0.861582 0.999925 0.851211
C19   C     C_R   0.138665 0.361467 0.000080 0.846069
C20   C     C_R   0.638778 0.138419 0.999925 0.851235
C21   C     C_R   0.138704 0.638494 0.000109 0.850636
C22   C     C_R   0.638821 0.861630 0.999892 0.847488
C23   C     C_R   0.861295 0.361505 0.000109 0.850650
C24   C     C_R   0.361181 0.138371 0.999892 0.847491
C25   C     C_2   0.191935 0.751944 0.482378 -0.167637
C26   C     C_2   0.249256 0.193080 0.481679 -0.168711
C27   C     C_2   0.808066 0.248057 0.482380 -0.167872
C28   C     C_2   0.751555 0.807726 0.482156 -0.168535
C29   C     C_2   0.806399 0.750280 0.481379 -0.152029
C30   C     C_2   0.750644 0.193207 0.481611 -0.160450
C31   C     C_2   0.192026 0.248161 0.482326 -0.150258
C32   C     C_2   0.249357 0.806793 0.481610 -0.160309
C33   C     C_2   0.691878 0.252011 0.982450 -0.157999
C34   C     C_2   0.749269 0.693114 0.981658 -0.162884
C35   C     C_2   0.308121 0.747992 0.982450 -0.157996
C36   C     C_2   0.250740 0.306901 0.981665 -0.162904
C37   C     C_2   0.308027 0.251899 0.982360 -0.163070
C38   C     C_2   0.250780 0.693053 0.981726 -0.158994
C39   C     C_2   0.691980 0.748112 0.982355 -0.163073
C40   C     C_2   0.749219 0.306949 0.981725 -0.158990
C41   C     C_2   0.196210 0.691591 0.499524 -0.293615
C42   C     C_2   0.305757 0.193568 0.501184 -0.298323
C43   C     C_2   0.803791 0.308409 0.499525 -0.293486
C44   C     C_2   0.691479 0.803658 0.499472 -0.300950
C45   C     C_2   0.806644 0.694488 0.501272 -0.296696
C46   C     C_2   0.694488 0.193351 0.501308 -0.295096
C47   C     C_2   0.196068 0.308273 0.499633 -0.296534
C48   C     C_2   0.305513 0.806647 0.501308 -0.295107
C49   C     C_2   0.696086 0.191716 0.999636 -0.298142
C50   C     C_2   0.805733 0.693568 0.001184 -0.298277
C51   C     C_2   0.303914 0.808284 0.999637 -0.298133
C52   C     C_2   0.194263 0.306428 0.001183 -0.298279
C53   C     C_2   0.303771 0.191565 0.999513 -0.300951
C54   C     C_2   0.194434 0.693375 0.001315 -0.297345
C55   C     C_2   0.696233 0.808439 0.999512 -0.300961
C56   C     C_2   0.805565 0.306625 0.001315 -0.297355
H1    H     H_    0.144860 0.761766 0.467924 0.171920
H2    H     H_    0.243696 0.150158 0.464623 0.180198
H3    H     H_    0.855141 0.238236 0.467927 0.171728
H4    H     H_    0.761101 0.854615 0.467541 0.180421
H5    H     H_    0.848577 0.755129 0.463948 0.180148
H6    H     H_    0.755804 0.150708 0.464334 0.177327
H7    H     H_    0.145212 0.238664 0.467670 0.178985
H8    H     H_    0.244197 0.849293 0.464332 0.177444
H9    H     H_    0.644920 0.261686 0.967898 0.179953
H10   H     H_    0.743708 0.650209 0.964596 0.180195
H11   H     H_    0.355077 0.738320 0.967898 0.179956
H12   H     H_    0.256315 0.349824 0.964611 0.180164
H13   H     H_    0.355067 0.261649 0.967873 0.179974
H14   H     H_    0.256110 0.650381 0.964537 0.180040
H15   H     H_    0.644941 0.738367 0.967866 0.179980
H16   H     H_    0.743889 0.349622 0.964536 0.180040
H17   H     H_    0.242922 0.678754 0.513540 0.150132
H18   H     H_    0.312475 0.234141 0.519014 0.153138
H19   H     H_    0.757079 0.321244 0.513539 0.150219
H20   H     H_    0.678804 0.757046 0.513580 0.153322
H21   H     H_    0.766875 0.688647 0.519495 0.151089
H22   H     H_    0.688343 0.233437 0.519392 0.150764
H23   H     H_    0.242395 0.320804 0.513916 0.150202
H24   H     H_    0.311658 0.766561 0.519392 0.150728
H25   H     H_    0.742629 0.179011 0.013774 0.150314
H26   H     H_    0.812329 0.734069 0.019056 0.153411
H27   H     H_    0.257373 0.820986 0.013775 0.150314
H28   H     H_    0.187652 0.265909 0.019048 0.153400
H29   H     H_    0.257167 0.178777 0.013587 0.152767
H30   H     H_    0.188035 0.733661 0.019296 0.150634
H31   H     H_    0.742840 0.821224 0.013585 0.152769
H32   H     H_    0.811964 0.266337 0.019297 0.150632
C57   C     C_R   0.447877 0.040243 0.365040 0.413438
C58   C     C_R   0.000410 0.434021 0.364222 0.404009
C59   C     C_R   0.552191 0.959497 0.365075 0.412973
C60   C     C_R   0.999576 0.565986 0.364220 0.403825
C61   C     C_R   0.947507 0.539950 0.865045 0.413586
C62   C     C_R   0.538654 0.946523 0.865008 0.413921
C63   C     C_R   0.052481 0.460026 0.865048 0.413545
C64   C     C_R   0.461343 0.053483 0.865007 0.413918
C65   C     C_R   0.446023 0.038246 0.332257 0.054305
C66   C     C_R   0.005088 0.434059 0.331500 0.048096
C67   C     C_R   0.553949 0.961247 0.332287 0.054751
C68   C     C_R   0.994893 0.565950 0.331498 0.048211
C69   C     C_R   0.945694 0.538009 0.832258 0.054844
C70   C     C_R   0.536705 0.944800 0.832222 0.054842
C71   C     C_R   0.054283 0.461949 0.832260 0.054883
C72   C     C_R   0.463287 0.055206 0.832221 0.054844
C73   C     C_R   0.499966 0.999687 0.315858 -0.078982
C74   C     C_R   0.999989 0.500005 0.315061 -0.073581
C75   C     C_R   0.999988 0.499978 0.815847 -0.078413
C76   C     C_R   0.499995 0.000002 0.815812 -0.078640
C77   C     C_R   0.500019 0.999894 0.381442 -0.326589
C78   C     C_R   0.999995 0.500003 0.380898 -0.331910
C79   C     C_R   0.999996 0.499992 0.881435 -0.326331
C80   C     C_R   0.499999 0.000003 0.881410 -0.327039
N1    N     N_R   0.556395 0.027873 0.265509 -0.173337
N2    N     N_R   0.046279 0.542827 0.264705 -0.174684
N3    N     N_R   0.443598 0.971480 0.265493 -0.173336
N4    N     N_R   0.953701 0.457183 0.264705 -0.174715
N5    N     N_R   0.056144 0.528665 0.765491 -0.172347
N6    N     N_R   0.529741 0.055615 0.765456 -0.172364
N7    N     N_R   0.943840 0.471294 0.765489 -0.172348
N8    N     N_R   0.470245 0.944388 0.765458 -0.172365
N9    N     N_R   0.056227 0.528501 0.734530 -0.182389
N10   N     N_R   0.529570 0.055702 0.734496 -0.182320
N11   N     N_R   0.943763 0.471463 0.734528 -0.182388
N12   N     N_R   0.470417 0.944299 0.734498 -0.182321
N13   N     N_R   0.556481 0.027741 0.234548 -0.183105
N14   N     N_R   0.046075 0.543073 0.233767 -0.181616
N15   N     N_R   0.443529 0.971677 0.234532 -0.183096
N16   N     N_R   0.953910 0.456933 0.233767 -0.181622
C81   C     C_R   0.999996 0.499984 0.718421 0.275142
C82   C     C_R   0.499994 1.000000 0.718392 0.275046
C83   C     C_R   0.500008 0.999730 0.218431 0.275723
C84   C     C_R   0.999994 0.500002 0.217733 0.274209
C85   C     C_R   0.499992 0.999661 0.281514 0.367644
C86   C     C_R   0.999989 0.500005 0.280724 0.366547
C87   C     C_R   0.999991 0.499978 0.781503 0.366999
C88   C     C_R   0.499993 0.000002 0.781469 0.366896
C89   C     C_R   0.936130 0.486089 0.667514 -0.165294
C90   C     C_R   0.485527 0.936227 0.667501 -0.165270
C91   C     C_R   0.063868 0.513892 0.667516 -0.165293
C92   C     C_R   0.514465 0.063769 0.667500 -0.165267
C93   C     C_R   0.436080 0.986195 0.167516 -0.165574
C94   C     C_R   0.975469 0.439327 0.167129 -0.165327
C95   C     C_R   0.563929 0.013473 0.167525 -0.165556
C96   C     C_R   0.024527 0.560671 0.167127 -0.165332
H33   H     H_    0.885993 0.475452 0.679616 0.151159
H34   H     H_    0.474455 0.886171 0.679609 0.151093
H35   H     H_    0.114003 0.524526 0.679620 0.151162
H36   H     H_    0.525536 0.113826 0.679606 0.151089
H37   H     H_    0.385900 0.975735 0.179613 0.150729
H38   H     H_    0.956622 0.391759 0.179322 0.149195
H39   H     H_    0.614111 0.023881 0.179629 0.150727
H40   H     H_    0.043372 0.608240 0.179319 0.149195
C97   C     C_R   0.936050 0.486492 0.635050 -0.189106
C98   C     C_R   0.485943 0.936139 0.635040 -0.189069
C99   C     C_R   0.063949 0.513498 0.635053 -0.188993
C100  C     C_R   0.514052 0.063857 0.635038 -0.189180
C101  C     C_R   0.435999 0.986660 0.135051 -0.188896
C102  C     C_R   0.976139 0.439060 0.134710 -0.189702
C103  C     C_R   0.564003 0.013156 0.135061 -0.188907
C104  C     C_R   0.023861 0.560936 0.134708 -0.189695
H41   H     H_    0.885980 0.475753 0.622907 0.161217
H42   H     H_    0.474767 0.886148 0.622894 0.161033
H43   H     H_    0.114020 0.524240 0.622910 0.161235
H44   H     H_    0.525230 0.113848 0.622891 0.161013
H45   H     H_    0.385883 0.976146 0.122906 0.161156
H46   H     H_    0.957246 0.391525 0.122503 0.158066
H47   H     H_    0.614117 0.023719 0.122922 0.161146
H48   H     H_    0.042755 0.608471 0.122500 0.158069
C105  C     C_R   0.000000 0.499997 0.618520 -0.004038
C106  C     C_R   0.499999 0.999998 0.618512 -0.003715
C107  C     C_R   0.500000 0.999945 0.118523 -0.003909
C108  C     C_R   0.000000 0.499998 0.118277 0.001412
C109  C     C_R   0.999998 0.499988 0.684077 0.088409
C110  C     C_R   0.499995 0.999999 0.684057 0.088524
C111  C     C_R   0.500006 0.999795 0.184084 0.088585
C112  C     C_R   0.999996 0.500000 0.183572 0.090904
O53   O     O_3   0.396940 0.080061 0.381210 -0.575914
C113  C     C_3   0.425474 0.149465 0.387121 0.100240
H49   H     H_    0.438620 0.177960 0.365005 0.140402
H50   H     H_    0.474992 0.146212 0.401748 0.117623
C114  C     C_3   0.369641 0.193955 0.404580 -0.800715
H51   H     H_    0.356281 0.167400 0.426990 0.265055
H52   H     H_    0.391399 0.248678 0.409398 0.200479
H53   H     H_    0.319760 0.199153 0.390427 0.254385
O54   O     O_3   0.000212 0.368847 0.379989 -0.576480
C115  C     C_3   0.928249 0.344027 0.382158 0.140042
H54   H     H_    0.905530 0.332588 0.358688 0.134448
H55   H     H_    0.893238 0.384319 0.394145 0.129167
C116  C     C_3   0.926849 0.274481 0.400957 -0.797975
H56   H     H_    0.949496 0.284096 0.424514 0.276897
H57   H     H_    0.870416 0.255059 0.403314 0.193599
H58   H     H_    0.959391 0.232333 0.389072 0.246922
O55   O     O_3   0.603455 0.920144 0.381268 -0.575649
C117  C     C_3   0.575308 0.850719 0.387461 0.099893
H59   H     H_    0.561379 0.822011 0.365483 0.139712
H60   H     H_    0.526353 0.854004 0.402429 0.117672
C118  C     C_3   0.631915 0.806483 0.404583 -0.798902
H61   H     H_    0.646430 0.833435 0.426773 0.267660
H62   H     H_    0.610333 0.751880 0.409785 0.199988
H63   H     H_    0.681092 0.800952 0.390002 0.253521
O56   O     O_3   0.999772 0.631158 0.379987 -0.576895
C119  C     C_3   0.071734 0.655981 0.382155 0.139938
H64   H     H_    0.094449 0.667424 0.358685 0.134543
H65   H     H_    0.106749 0.615691 0.394142 0.129297
C120  C     C_3   0.073133 0.725527 0.400952 -0.798163
H66   H     H_    0.050489 0.715909 0.424510 0.277002
H67   H     H_    0.129565 0.744951 0.403309 0.193673
H68   H     H_    0.040587 0.767674 0.389067 0.246882
O57   O     O_3   0.896072 0.579143 0.881215 -0.574719
C121  C     C_3   0.923616 0.648983 0.887054 0.104492
H69   H     H_    0.937462 0.677193 0.864946 0.138797
H70   H     H_    0.972507 0.646461 0.902089 0.118409
C122  C     C_3   0.866564 0.693304 0.903870 -0.808880
H71   H     H_    0.852479 0.667106 0.926274 0.266591
H72   H     H_    0.887540 0.748355 0.908640 0.199643
H73   H     H_    0.817260 0.697724 0.889294 0.251536
O58   O     O_3   0.576413 0.893957 0.881148 -0.573937
C123  C     C_3   0.646874 0.919639 0.887122 0.105044
H74   H     H_    0.645502 0.967952 0.902531 0.118804
H75   H     H_    0.675334 0.933767 0.865106 0.137669
C124  C     C_3   0.689913 0.860844 0.903452 -0.806148
H76   H     H_    0.693542 0.812248 0.888392 0.250416
H77   H     H_    0.745284 0.880505 0.908525 0.199436
H78   H     H_    0.663232 0.846008 0.925661 0.269927
O59   O     O_3   0.103928 0.420847 0.881219 -0.574718
C125  C     C_3   0.076381 0.351020 0.887085 0.104561
H79   H     H_    0.062400 0.322813 0.864992 0.138713
H80   H     H_    0.027572 0.353571 0.902167 0.118444
C126  C     C_3   0.133500 0.306669 0.903846 -0.808871
H81   H     H_    0.147762 0.332888 0.926225 0.266642
H82   H     H_    0.112501 0.251646 0.908659 0.199652
H83   H     H_    0.182702 0.302177 0.889211 0.251453
O60   O     O_3   0.423589 0.106051 0.881146 -0.573937
C127  C     C_3   0.353128 0.080373 0.887121 0.105041
H84   H     H_    0.354499 0.032061 0.902532 0.118804
H85   H     H_    0.324665 0.066244 0.865106 0.137666
C128  C     C_3   0.310094 0.139171 0.903449 -0.806133
H86   H     H_    0.306463 0.187766 0.888387 0.250418
H87   H     H_    0.254722 0.119512 0.908524 0.199434
H88   H     H_    0.336778 0.154008 0.925657 0.269931
C129  C     C_3   0.387907 0.079043 0.314773 -0.821988
H89   H     H_    0.351182 0.109662 0.330279 0.266044
H90   H     H_    0.413119 0.118210 0.298517 0.226268
H91   H     H_    0.353947 0.040637 0.301453 0.248867
C130  C     C_3   0.016943 0.363582 0.314323 -0.825474
H92   H     H_    0.032470 0.318712 0.330053 0.268018
H93   H     H_    0.966782 0.347514 0.302055 0.237013
H94   H     H_    0.061492 0.369646 0.297241 0.236599
C131  C     C_3   0.612035 0.920347 0.314832 -0.821596
H95   H     H_    0.648725 0.889732 0.330356 0.265980
H96   H     H_    0.586792 0.881148 0.298599 0.226145
H97   H     H_    0.646026 0.958683 0.301487 0.248851
C132  C     C_3   0.983034 0.636427 0.314321 -0.825686
H98   H     H_    0.967509 0.681296 0.330050 0.267946
H99   H     H_    0.033193 0.652496 0.302051 0.237070
H100  H     H_    0.938482 0.630363 0.297239 0.236578
C133  C     C_3   0.887199 0.578286 0.814782 -0.820914
H101  H     H_    0.912046 0.617708 0.798535 0.225567
H102  H     H_    0.853600 0.539582 0.801451 0.249884
H103  H     H_    0.850178 0.608541 0.830289 0.265675
C134  C     C_3   0.575610 0.885368 0.814744 -0.820010
H104  H     H_    0.605111 0.847714 0.830242 0.265710
H105  H     H_    0.536144 0.852581 0.801456 0.249864
H106  H     H_    0.615496 0.909315 0.798462 0.225455
C135  C     C_3   0.112765 0.421653 0.814787 -0.820836
H107  H     H_    0.149775 0.391385 0.830296 0.265687
H108  H     H_    0.087906 0.382236 0.798543 0.225557
H109  H     H_    0.146375 0.460345 0.801454 0.249872
C136  C     C_3   0.424381 0.114638 0.814741 -0.820019
H110  H     H_    0.394883 0.152293 0.830238 0.265710
H111  H     H_    0.463846 0.147424 0.801451 0.249864
H112  H     H_    0.384492 0.090691 0.798460 0.225453

loop_
_geom_bond_atom_site_label_1
_geom_bond_atom_site_label_2
_geom_bond_distance
_ccdc_geom_bond_type
C71   C135  1.514871 S    
C126  H82   1.110420 S    
C136  H110  1.108418 S    
C70   C76   1.415988 A    
C135  H107  1.108439 S    
C82   C110  1.475961 S    
C122  H73   1.110749 S    
C58   C66   1.409260 A    
C91   C109  1.404946 A    
C30   C46   1.341481 D    
C120  H68   1.110668 S    
C73   C85   1.476309 S    
Zn12  O26   1.936289 S    
O34   C22   1.273748 A    
Zn14  O36   1.936261 S    
O52   C22   1.275719 A    
O41   C15   1.275690 A    
C18   C51   1.450169 S    
N2    N14   1.329903 A    
C2    C105  1.474426 S    
N12   C82   1.358071 A    
C7    C79   1.477006 S    
Zn4   O2    1.942620 S    
C90   H34   1.082873 S    
O53   C113  1.413170 S    
O47   C17   1.275684 A    
C40   C56   1.341321 D    
C36   C37   1.471202 S    
C66   C74   1.414196 A    
C114  H52   1.110410 S    
N3    C85   1.356117 A    
C96   H40   1.083088 S    
O28   C16   1.273820 A    
O60   C127  1.413224 S    
O46   C20   1.275818 A    
C97   C105  1.404208 A    
Zn12  O24   1.937007 S    
C131  H97   1.109153 S    
C6    C78   1.491410 S    
Zn16  O4    1.942019 S    
C65   C129  1.514782 S    
Zn1   O13   1.924081 S    
Zn3   O15   1.924063 S    
C25   C32   1.471752 S    
C60   C78   1.416843 A    
Zn4   O16   1.924039 S    
Zn7   O3    1.943212 S    
C101  C107  1.404228 A    
C119  H65   1.114834 S    
C136  H112  1.110428 S    
O11   C3    1.283304 A    
C135  H109  1.109145 S    
N9    C81   1.358123 A    
O49   C23   1.275732 A    
C123  C124  1.521084 S    
N1    C85   1.356114 A    
C92   C110  1.404871 A    
C32   H8    1.086398 S    
C33   H9    1.086396 S    
Zn9   O25   1.937284 S    
Zn10  O22   1.937020 S    
C93   H37   1.082859 S    
C3    C108  1.467476 S    
C58   C78   1.416845 A    
C33   C49   1.341209 D    
Zn13  O29   1.936536 S    
Zn6   O4    1.942686 S    
Zn10  O2    1.942056 S    
Zn11  O5    1.923397 S    
Zn3   O1    1.943212 S    
C68   C132  1.515604 S    
C60   C68   1.409262 A    
C126  H81   1.109602 S    
C69   C133  1.514867 S    
C132  H98   1.109222 S    
Zn4   O42   1.937069 S    
C70   C134  1.514979 S    
C49   H25   1.080838 S    
C100  C106  1.404154 A    
Zn8   O46   1.937795 S    
C123  H75   1.114578 S    
C91   C99   1.395520 A    
C47   H23   1.080649 S    
O27   C15   1.273813 A    
C22   C55   1.449685 S    
O8    C2    1.285441 A    
C68   C74   1.414199 A    
C28   H4    1.086407 S    
C114  H51   1.109597 S    
C14   C47   1.449574 S    
C104  C108  1.403088 A    
O16   C6    1.287574 A    
O55   C117  1.413080 S    
O14   C6    1.287569 A    
C130  H93   1.109413 S    
C21   C54   1.450195 S    
Zn6   O48   1.937794 S    
Zn12  O6    1.923439 S    
O40   C10   1.275679 A    
C131  H96   1.110428 S    
C116  H56   1.110528 S    
C133  H102  1.109145 S    
O45   C19   1.275668 A    
O17   C7    1.283616 A    
N14   C84   1.356862 A    
C59   C67   1.410188 A    
C128  H87   1.110445 S    
Zn5   O17   1.924081 S    
C13   C46   1.450449 S    
C115  H55   1.114833 S    
C10   C43   1.450248 S    
O9    C3    1.283309 A    
C61   C79   1.410439 A    
C84   C112  1.468421 S    
C62   C80   1.410914 A    
C43   H19   1.080928 S    
C61   C69   1.410248 A    
O57   C121  1.413229 S    
C94   C102  1.393647 A    
C133  H101  1.110427 S    
C89   C109  1.404944 A    
N15   C83   1.358152 A    
C129  H90   1.110427 S    
C127  H85   1.114573 S    
Zn10  O28   1.936261 S    
C99   C105  1.404210 A    
C57   C65   1.410156 A    
Zn9   O7    1.923365 S    
O50   C24   1.275718 A    
C115  C116  1.520776 S    
Zn10  O8    1.923421 S    
N8    C88   1.356112 A    
O5    C1    1.285047 A    
O31   C19   1.273843 A    
O59   C125  1.413225 S    
Zn1   O41   1.937517 S    
C132  H100  1.110530 S    
C38   C54   1.341319 D    
C124  H76   1.110726 S    
C4    C107  1.474517 S    
C34   C39   1.471200 S    
C118  H62   1.110411 S    
Zn15  O35   1.937288 S    
C63   C79   1.410441 A    
C64   C72   1.410179 A    
N1    N13   1.330899 A    
C113  H49   1.114344 S    
C114  H53   1.110651 S    
C36   H12   1.086335 S    
N5    N9    1.330900 A    
C117  H59   1.114432 S    
C92   C100  1.395427 A    
C95   H39   1.082858 S    
Zn1   O1    1.943178 S    
C102  H46   1.083182 S    
Zn2   O14   1.924006 S    
C116  H58   1.110667 S    
Zn1   O39   1.936796 S    
C61   O57   1.384871 S    
Zn3   O37   1.936771 S    
C90   C98   1.395436 A    
C120  H67   1.110558 S    
C39   H15   1.086393 S    
Zn7   O51   1.937527 S    
C98   H42   1.083034 S    
C121  H69   1.114468 S    
C41   H17   1.080927 S    
C57   O53   1.384654 S    
O6    C2    1.285448 A    
C72   C76   1.415989 A    
O18   C8    1.283470 A    
C113  C114  1.520470 S    
O10   C4    1.285475 A    
C76   C88   1.476245 S    
C32   C48   1.341480 D    
C39   C55   1.341147 D    
C93   C111  1.404966 A    
C117  C118  1.520625 S    
C83   C111  1.476443 S    
Zn14  O30   1.937020 S    
C55   H31   1.080725 S    
Zn15  O3    1.941466 S    
C81   C109  1.476331 S    
C60   O56   1.384361 S    
C53   H29   1.080722 S    
C11   C44   1.449956 S    
Zn16  O34   1.936289 S    
C31   C47   1.341183 D    
C125  H79   1.114486 S    
Zn2   O44   1.937044 S    
N7    C87   1.356116 A    
C74   C86   1.476000 S    
C124  H78   1.109691 S    
Zn5   O47   1.936796 S    
Zn8   O20   1.924039 S    
C45   H21   1.080938 S    
C50   H26   1.080718 S    
Zn7   O45   1.936771 S    
C63   O59   1.384871 S    
C121  C122  1.520922 S    
C12   C41   1.450241 S    
N3    N15   1.330918 A    
O32   C20   1.273528 A    
C63   C71   1.410242 A    
C1    C106  1.474091 S    
C64   C80   1.410915 A    
C67   C73   1.416149 A    
C33   C40   1.471762 S    
C89   H33   1.082863 S    
O56   C119  1.413666 S    
C119  C120  1.520775 S    
O12   C4    1.285462 A    
C93   C101  1.395539 A    
O48   C18   1.275844 A    
C136  H111  1.109138 S    
C99   H43   1.083026 S    
O38   C12   1.275652 A    
C135  H108  1.110425 S    
Zn16  O10   1.923439 S    
C102  C108  1.403086 A    
Zn13  O3    1.941528 S    
C95   C111  1.404978 A    
C125  C126  1.520924 S    
C48   H24   1.080934 S    
N4    N16   1.329904 A    
O21   C9    1.273756 A    
C26   C42   1.341300 D    
Zn6   O18   1.924006 S    
O23   C11   1.273844 A    
O58   C123  1.413225 S    
Zn14  O4    1.942056 S    
C62   C70   1.410174 A    
C59   O55   1.384693 S    
O25   C13   1.273844 A    
C30   H6    1.086399 S    
C91   H35   1.082864 S    
C69   C75   1.416094 A    
O36   C24   1.273727 A    
C122  H72   1.110429 S    
N10   C82   1.358071 A    
Zn11  O1    1.941466 S    
N2    C86   1.356241 A    
Zn12  O2    1.942019 S    
O43   C13   1.275720 A    
C8    C80   1.477569 S    
Zn5   O3    1.943178 S    
O22   C10   1.273777 A    
N8    N12   1.330853 A    
C101  H45   1.083023 S    
N5    C87   1.356119 A    
C115  H54   1.113559 S    
C75   C87   1.476301 S    
C64   O60   1.384939 S    
N13   C83   1.358131 A    
C130  H92   1.109222 S    
O54   C115  1.413666 S    
C17   C50   1.449752 S    
C25   H1    1.086176 S    
C38   H14   1.086396 S    
C94   C112  1.403370 A    
C96   C104  1.393641 A    
C62   O58   1.384939 S    
C27   H3    1.086174 S    
C128  H86   1.110727 S    
C97   H41   1.083029 S    
C119  H64   1.113556 S    
Zn2   O40   1.937794 S    
N6    N10   1.330849 A    
C36   C52   1.341306 D    
Zn8   O50   1.937069 S    
C16   C45   1.449930 S    
Zn2   O2    1.942686 S    
C134  H104  1.108416 S    
O7    C1    1.285039 A    
O26   C14   1.273657 A    
Zn15  O31   1.936558 S    
N16   C84   1.356861 A    
Zn16  O32   1.937007 S    
C27   C30   1.471756 S    
C129  H89   1.108456 S    
C28   C44   1.341246 D    
C127  C128  1.521092 S    
O19   C7    1.283619 A    
Zn8   O4    1.942620 S    
O37   C11   1.275732 A    
C100  H44   1.083034 S    
C123  H74   1.113618 S    
O39   C9    1.275651 A    
O15   C5    1.283460 A    
O13   C5    1.283634 A    
C65   C73   1.416121 A    
O51   C21   1.275766 A    
C42   H18   1.080607 S    
C35   H11   1.086397 S    
O20   C8    1.283472 A    
O44   C14   1.275751 A    
C132  H99   1.109414 S    
O24   C12   1.273744 A    
Zn11  O27   1.937288 S    
C118  H61   1.109723 S    
N7    N11   1.330900 A    
C34   C50   1.341300 D    
C5    C77   1.476874 S    
Zn6   O52   1.937044 S    
C103  C107  1.404218 A    
C92   H36   1.082875 S    
C95   C103  1.395539 A    
O35   C23   1.273629 A    
C54   H30   1.080837 S    
C90   C110  1.404873 A    
C59   C77   1.410218 A    
C26   H2    1.086384 S    
C51   H27   1.080841 S    
C113  H50   1.113892 S    
C52   H28   1.080716 S    
N4    C86   1.356242 A    
C46   H22   1.080933 S    
Zn5   O49   1.937517 S    
C40   H16   1.086398 S    
C130  H94   1.110531 S    
C117  H60   1.113756 S    
C126  H83   1.110753 S    
C122  H71   1.109582 S    
C71   C75   1.416092 A    
C98   C106  1.404153 A    
C116  H57   1.110558 S    
C133  H103  1.108438 S    
O29   C17   1.273843 A    
C34   H10   1.086337 S    
O42   C16   1.275766 A    
C128  H88   1.109691 S    
C28   C29   1.471359 S    
Zn9   O21   1.936536 S    
C120  H66   1.110529 S    
C134  H105  1.109139 S    
C37   C53   1.341136 D    
C57   C77   1.410067 A    
Zn11  O23   1.936558 S    
Zn13  O33   1.937284 S    
Zn9   O1    1.941528 S    
C23   C56   1.450191 S    
C56   H32   1.080838 S    
C134  H106  1.110430 S    
C121  H70   1.113760 S    
C29   C45   1.341248 D    
N6    C88   1.356111 A    
C72   C136  1.514978 S    
C129  H91   1.109153 S    
C127  H84   1.113616 S    
Zn4   O38   1.937795 S    
Zn7   O19   1.924063 S    
C15   C48   1.450445 S    
C35   C51   1.341210 D    
N11   C81   1.358126 A    
O33   C21   1.273655 A    
C66   C130  1.515607 S    
C103  H47   1.083024 S    
C94   H38   1.083088 S    
C31   H7    1.086441 S    
C44   H20   1.080919 S    
C37   H13   1.086391 S    
C58   O54   1.384362 S    
C29   H5    1.086448 S    
C19   C52   1.449750 S    
C96   C112  1.403367 A    
C27   C43   1.341228 D    
C24   C53   1.449673 S    
C125  H80   1.113746 S    
C26   C31   1.471410 S    
C67   C131  1.514795 S    
C89   C97   1.395516 A    
C124  H77   1.110446 S    
C35   C38   1.471764 S    
C131  H95   1.108440 S    
C118  H63   1.110652 S    
C104  H48   1.083184 S    
Zn15  O9    1.923397 S    
C25   C41   1.341224 D    
Zn13  O11   1.923365 S    
Zn14  O12   1.923421 S    
C20   C49   1.450161 S    
C9    C42   1.449545 S    
O30   C18   1.273561 A    
Zn3   O43   1.937527 S    
