data_mof_unit_58583.cif
_audit_creation_date              2012-12-11T16:52:32-0500
_audit_creation_method            fapswitch 2.2
_symmetry_space_group_name_H-M    P1
_symmetry_Int_Tables_number       1
_space_group_crystal_system       triclinic
_cell_length_a                    7.184912
_cell_length_b                    25.865587
_cell_length_c                    28.867107
_cell_angle_alpha                 90.005844
_cell_angle_beta                  89.974272
_cell_angle_gamma                 89.965753
_cell_volume                      5364.71840259

loop_
_atom_site_label
_atom_site_type_symbol
_atom_type_description
_atom_site_fract_x
_atom_site_fract_y
_atom_site_fract_z
_atom_type_partial_charge
O1    O     O_R   0.601030 0.796770 0.202460 -0.537361
O2    O     O_R   0.398970 0.203230 0.797540 -0.537294
O3    O     O_R   0.398970 0.203230 0.702460 -0.537179
O4    O     O_R   0.601030 0.796770 0.297540 -0.537007
O5    O     O_R   0.101030 0.703230 0.297540 -0.537443
O6    O     O_R   0.898970 0.296770 0.702460 -0.537280
O7    O     O_R   0.898970 0.296770 0.797540 -0.537276
O8    O     O_R   0.101030 0.703230 0.202460 -0.537247
O9    O     O_R   0.271290 0.802910 0.297210 -0.539179
O10   O     O_R   0.728710 0.197090 0.702790 -0.539136
O11   O     O_R   0.728710 0.197090 0.797210 -0.538868
O12   O     O_R   0.271290 0.802910 0.202790 -0.539203
O13   O     O_R   0.771290 0.697090 0.202790 -0.538847
O14   O     O_R   0.228710 0.302910 0.797210 -0.539133
O15   O     O_R   0.228710 0.302910 0.702790 -0.538840
O16   O     O_R   0.771290 0.697090 0.297210 -0.538505
C1    C     C_R   0.439799 0.815388 0.312538 0.685771
C2    C     C_R   0.560137 0.184498 0.687536 0.685677
C3    C     C_R   0.560148 0.184682 0.812606 0.686866
C4    C     C_R   0.439908 0.815403 0.187475 0.685802
C5    C     C_R   0.939902 0.684715 0.187370 0.687188
C6    C     C_R   0.060026 0.315420 0.812504 0.686213
C7    C     C_R   0.060124 0.315330 0.687385 0.686733
C8    C     C_R   0.939877 0.684767 0.312660 0.688810
O17   O     O_3   0.434520 0.717290 0.250000 -0.373556
O18   O     O_3   0.565480 0.282710 0.750000 -0.373825
O19   O     O_3   0.934520 0.782710 0.250000 -0.374081
O20   O     O_3   0.065480 0.217290 0.750000 -0.373850
V1    V     V_3+5 0.159680 0.756060 0.250000 1.389468
V2    V     V_3+5 0.840320 0.243940 0.750000 1.390275
V3    V     V_3+5 0.659680 0.743940 0.250000 1.391149
V4    V     V_3+5 0.340320 0.256060 0.750000 1.390252
C9    C     C_R   0.886775 0.382731 0.641948 -0.198938
C10   C     C_R   0.110242 0.615966 0.356947 -0.210871
C11   C     C_R   0.112392 0.617083 0.142001 -0.198796
C12   C     C_R   0.887466 0.383755 0.856951 -0.203962
C13   C     C_R   0.387809 0.116923 0.857773 -0.198725
C14   C     C_R   0.612246 0.883617 0.142891 -0.203954
C15   C     C_R   0.610468 0.884095 0.356910 -0.205735
C16   C     C_R   0.387849 0.115828 0.643531 -0.203908
H1    H     H_    0.766877 0.377684 0.664243 0.131726
H2    H     H_    0.227016 0.619425 0.333413 0.132271
H3    H     H_    0.231735 0.621706 0.164527 0.131896
H4    H     H_    0.768663 0.379042 0.834263 0.128905
H5    H     H_    0.268526 0.121620 0.835233 0.131897
H6    H     H_    0.731066 0.878950 0.165587 0.128807
H7    H     H_    0.728972 0.879779 0.334031 0.130685
H8    H     H_    0.268997 0.120774 0.666197 0.128787
C17   C     C_R   0.876468 0.418819 0.605956 -0.130274
C18   C     C_R   0.121176 0.580266 0.393232 -0.131096
C19   C     C_R   0.122560 0.581175 0.105856 -0.127548
C20   C     C_R   0.876882 0.420062 0.892758 -0.125287
C21   C     C_R   0.377623 0.080912 0.893825 -0.127717
C22   C     C_R   0.622761 0.919812 0.106998 -0.125357
C23   C     C_R   0.620379 0.920242 0.392879 -0.128104
C24   C     C_R   0.377316 0.079201 0.607989 -0.124399
H9    H     H_    0.749613 0.440867 0.601489 0.150531
H10   H     H_    0.245286 0.556873 0.396726 0.145735
H11   H     H_    0.248857 0.558852 0.101449 0.150217
H12   H     H_    0.750918 0.442606 0.896698 0.145480
H13   H     H_    0.251362 0.058598 0.898151 0.150105
H14   H     H_    0.748673 0.942322 0.103013 0.145395
H15   H     H_    0.745793 0.942983 0.396891 0.147610
H16   H     H_    0.251318 0.056683 0.604224 0.144951
C25   C     C_R   0.028150 0.426418 0.575965 0.150896
C26   C     C_R   0.973698 0.574846 0.424826 0.186529
C27   C     C_R   0.971526 0.574183 0.075585 0.149251
C28   C     C_R   0.026944 0.427121 0.923295 0.178315
C29   C     C_R   0.528536 0.073829 0.924125 0.149115
C30   C     C_R   0.472709 0.926808 0.076437 0.178084
C31   C     C_R   0.470792 0.926612 0.423712 0.163493
C32   C     C_R   0.527317 0.071819 0.577443 0.175613
C33   C     C_R   0.191736 0.397701 0.583285 -0.126255
C34   C     C_R   0.813298 0.605232 0.418811 -0.119013
C35   C     C_R   0.808828 0.603346 0.082706 -0.129807
C36   C     C_R   0.189486 0.397777 0.916595 -0.129283
C37   C     C_R   0.691213 0.102977 0.917093 -0.129727
C38   C     C_R   0.310229 0.897507 0.083206 -0.129040
C39   C     C_R   0.309134 0.896932 0.417107 -0.133441
C40   C     C_R   0.689982 0.101108 0.583955 -0.131946
H17   H     H_    0.310151 0.402452 0.560469 0.164200
H18   H     H_    0.698092 0.601971 0.442811 0.160150
H19   H     H_    0.691087 0.599092 0.059623 0.164345
H20   H     H_    0.306615 0.402106 0.939815 0.161491
H21   H     H_    0.808884 0.098642 0.940191 0.164511
H22   H     H_    0.193098 0.901776 0.059973 0.161653
H23   H     H_    0.192417 0.900850 0.440566 0.161813
H24   H     H_    0.807164 0.096489 0.560759 0.162128
C41   C     C_R   0.203379 0.362238 0.619837 -0.198515
C42   C     C_R   0.800678 0.640292 0.381963 -0.209682
C43   C     C_R   0.797263 0.638601 0.119408 -0.198265
C44   C     C_R   0.201698 0.362163 0.880206 -0.205731
C45   C     C_R   0.702804 0.138339 0.880478 -0.198300
C46   C     C_R   0.298080 0.862006 0.119682 -0.205608
C47   C     C_R   0.297686 0.861451 0.380600 -0.199724
C48   C     C_R   0.702146 0.137064 0.620104 -0.204847
H25   H     H_    0.331019 0.340530 0.624383 0.128851
H26   H     H_    0.675676 0.663377 0.378406 0.127536
H27   H     H_    0.670331 0.660672 0.123814 0.129345
H28   H     H_    0.328540 0.339962 0.876168 0.124376
H29   H     H_    0.829695 0.160403 0.876145 0.129319
H30   H     H_    0.171296 0.839833 0.123764 0.124338
H31   H     H_    0.171769 0.838865 0.376691 0.124993
H32   H     H_    0.829043 0.159222 0.623997 0.124212
C49   C     C_R   0.050461 0.354049 0.649420 -0.042385
C50   C     C_R   0.949717 0.646342 0.350799 -0.038902
C51   C     C_R   0.949488 0.646161 0.149302 -0.043244
C52   C     C_R   0.050081 0.354386 0.850200 -0.032786
C53   C     C_R   0.550628 0.146018 0.850582 -0.043203
C54   C     C_R   0.449699 0.854294 0.149713 -0.032789
C55   C     C_R   0.449024 0.854250 0.350332 -0.035302
C56   C     C_R   0.550392 0.145227 0.650051 -0.032698
C57   C     C_R   0.153004 0.502896 0.531166 0.324034
C58   C     C_R   0.847702 0.498981 0.469912 0.326309
C59   C     C_R   0.846222 0.498418 0.030075 0.336306
C60   C     C_R   0.152127 0.502672 0.969002 0.331297
C61   C     C_R   0.653640 0.997987 0.969632 0.336300
C62   C     C_R   0.347336 0.002272 0.030583 0.331285
C63   C     C_R   0.345884 0.001524 0.470360 0.337016
C64   C     C_R   0.651303 0.995876 0.531553 0.329901
C65   C     C_R   0.140305 0.538341 0.494210 0.332707
C66   C     C_R   0.862844 0.462432 0.505850 0.327837
C67   C     C_R   0.859609 0.462911 0.993258 0.324981
C68   C     C_R   0.137124 0.538791 0.005287 0.329722
C69   C     C_R   0.640147 0.962491 0.006451 0.324846
C70   C     C_R   0.362512 0.038407 0.994323 0.329651
C71   C     C_R   0.359511 0.036477 0.507546 0.327696
C72   C     C_R   0.636930 0.960523 0.494581 0.327018
C73   C     C_R   0.987015 0.536928 0.463621 -0.271570
C74   C     C_R   0.014994 0.464280 0.537076 -0.271207
C75   C     C_R   0.012893 0.464701 0.962430 -0.282051
C76   C     C_R   0.984754 0.536730 0.036426 -0.275172
C77   C     C_R   0.486696 0.964310 0.037235 -0.281984
C78   C     C_R   0.515105 0.036337 0.963248 -0.275159
C79   C     C_R   0.512558 0.034115 0.538376 -0.280750
C80   C     C_R   0.484768 0.963445 0.463355 -0.278538
O21   O     O_3   0.307584 0.504998 0.559751 -0.537470
C81   C     C_3   0.259039 0.529039 0.602083 0.110517
H33   H     H_    0.171815 0.502903 0.623545 0.128436
H34   H     H_    0.180953 0.565734 0.596414 0.076212
C82   C     C_3   0.437006 0.541046 0.628939 -0.277551
H35   H     H_    0.515493 0.504615 0.634935 0.193446
H36   H     H_    0.525821 0.567540 0.608187 0.192516
C83   C     C_3   0.394111 0.566133 0.675600 -0.867423
H37   H     H_    0.318168 0.603113 0.670476 0.230538
H38   H     H_    0.526185 0.574294 0.694167 0.233612
H39   H     H_    0.308433 0.539803 0.697273 0.236396
O22   O     O_3   0.688979 0.499186 0.442715 -0.533228
C84   C     C_3   0.724787 0.473230 0.400551 0.121663
H40   H     H_    0.723181 0.430799 0.406334 0.113649
H41   H     H_    0.861427 0.484249 0.385104 0.099999
C85   C     C_3   0.571459 0.486917 0.365999 -0.280237
H42   H     H_    0.434559 0.474625 0.380175 0.191736
H43   H     H_    0.568470 0.529497 0.360774 0.199065
C86   C     C_3   0.602881 0.460555 0.319346 -0.865789
H44   H     H_    0.737185 0.473223 0.304021 0.234184
H45   H     H_    0.488765 0.471151 0.295209 0.234249
H46   H     H_    0.604083 0.417873 0.323602 0.232187
O23   O     O_3   0.690478 0.496383 0.058305 -0.535594
C87   C     C_3   0.736569 0.472411 0.100831 0.116781
H47   H     H_    0.801225 0.501018 0.124578 0.130454
H48   H     H_    0.834863 0.439370 0.096367 0.075273
C88   C     C_3   0.558190 0.452317 0.123309 -0.276253
H49   H     H_    0.459143 0.484895 0.128172 0.192597
H50   H     H_    0.492322 0.423298 0.100118 0.197087
C89   C     C_3   0.597404 0.427459 0.170250 -0.869085
H51   H     H_    0.693701 0.394153 0.166155 0.231307
H52   H     H_    0.465112 0.413338 0.185586 0.233961
H53   H     H_    0.660176 0.456126 0.194267 0.236319
O24   O     O_3   0.310843 0.502910 0.941763 -0.533627
C90   C     C_3   0.274661 0.529102 0.899751 0.121081
H54   H     H_    0.275374 0.571494 0.905785 0.113415
H55   H     H_    0.138296 0.517985 0.884241 0.100761
C91   C     C_3   0.428415 0.515863 0.865128 -0.280727
H56   H     H_    0.565152 0.528060 0.879444 0.192725
H57   H     H_    0.431806 0.473341 0.859548 0.197843
C92   C     C_3   0.397161 0.542669 0.818681 -0.865352
H58   H     H_    0.263036 0.530096 0.803224 0.234368
H59   H     H_    0.511490 0.532359 0.794479 0.234523
H60   H     H_    0.395696 0.585307 0.823279 0.231966
O25   O     O_3   0.809509 0.995910 0.941443 -0.535486
C93   C     C_3   0.763561 0.971971 0.898895 0.116927
H61   H     H_    0.698155 0.000539 0.875222 0.130284
H62   H     H_    0.665974 0.938806 0.903365 0.075275
C94   C     C_3   0.942140 0.952127 0.876293 -0.275831
H63   H     H_    0.040630 0.984814 0.871503 0.192681
H64   H     H_    0.008590 0.923078 0.899369 0.196942
C95   C     C_3   0.903075 0.927417 0.829281 -0.870097
H65   H     H_    0.807282 0.894020 0.833293 0.231294
H66   H     H_    0.035497 0.913462 0.813859 0.233889
H67   H     H_    0.839774 0.956127 0.805376 0.236703
O26   O     O_3   0.188347 0.002488 0.057718 -0.533565
C96   C     C_3   0.223808 0.028833 0.099685 0.121318
H68   H     H_    0.223819 0.071198 0.093513 0.113527
H69   H     H_    0.359624 0.017583 0.115435 0.100921
C97   C     C_3   0.069022 0.015959 0.134108 -0.280672
H70   H     H_    0.932743 0.028127 0.119475 0.193127
H71   H     H_    0.065345 0.973483 0.139941 0.197383
C98   C     C_3   0.099049 0.043121 0.180435 -0.865447
H72   H     H_    0.232732 0.030610 0.196193 0.234009
H73   H     H_    0.984029 0.033058 0.204502 0.234164
H74   H     H_    0.100717 0.085720 0.175570 0.232150
O27   O     O_3   0.189700 0.003943 0.442322 -0.534671
C99   C     C_3   0.235007 0.028206 0.399866 0.116645
H75   H     H_    0.294642 0.999400 0.375477 0.130463
H76   H     H_    0.337145 0.060343 0.404148 0.074641
C100  C     C_3   0.057075 0.050108 0.378544 -0.275853
H77   H     H_    0.954414 0.018431 0.373756 0.192965
H78   H     H_    0.995885 0.079252 0.402428 0.197105
C101  C     C_3   0.095262 0.075429 0.331748 -0.869747
H79   H     H_    0.195190 0.107870 0.335798 0.231390
H80   H     H_    0.963332 0.090874 0.317263 0.234002
H81   H     H_    0.153280 0.046673 0.307051 0.236210
O28   O     O_3   0.810093 0.995091 0.558740 -0.533302
C102  C     C_3   0.771322 0.970993 0.601642 0.123118
H82   H     H_    0.767143 0.928430 0.597064 0.102117
H83   H     H_    0.636260 0.983678 0.616875 0.102283
C103  C     C_3   0.926462 0.984405 0.635787 -0.275639
H84   H     H_    0.061949 0.970600 0.621851 0.193845
H85   H     H_    0.933947 0.027077 0.639992 0.196350
C104  C     C_3   0.892800 0.959768 0.683091 -0.866836
H86   H     H_    0.760024 0.974021 0.698155 0.233927
H87   H     H_    0.008203 0.970153 0.706910 0.234193
H88   H     H_    0.887139 0.917000 0.679900 0.231826
O29   O     O_3   0.282402 0.573694 0.487157 -0.540691
C105  C     C_3   0.243197 0.620342 0.510978 0.122335
H89   H     H_    0.328600 0.621350 0.543025 0.134822
H90   H     H_    0.093657 0.625021 0.520934 0.079992
C106  C     C_3   0.298172 0.666320 0.480558 -0.296439
H91   H     H_    0.444701 0.661877 0.468889 0.195908
H92   H     H_    0.207243 0.667512 0.449490 0.204769
C107  C     C_3   0.278746 0.717358 0.506677 -0.873817
H93   H     H_    0.135162 0.721818 0.520355 0.238398
H94   H     H_    0.308170 0.750065 0.482866 0.233382
H95   H     H_    0.378993 0.718805 0.535930 0.233518
O30   O     O_3   0.721579 0.426418 0.510978 -0.541608
C108  C     C_3   0.782192 0.377638 0.494603 0.106226
H96   H     H_    0.864177 0.357560 0.521808 0.133590
H97   H     H_    0.869926 0.380810 0.462818 0.078958
C109  C     C_3   0.611830 0.344600 0.483361 -0.279914
H98   H     H_    0.524144 0.340497 0.514884 0.192090
H99   H     H_    0.527895 0.364063 0.456115 0.196920
C110  C     C_3   0.668116 0.290921 0.466405 -0.871790
H100  H     H_    0.757021 0.293971 0.435032 0.232824
H101  H     H_    0.541616 0.268430 0.457447 0.234776
H102  H     H_    0.745326 0.269937 0.493934 0.234762
O31   O     O_3   0.714362 0.428598 0.986052 -0.538811
C111  C     C_3   0.763209 0.379107 0.003012 0.114633
H103  H     H_    0.749151 0.378336 0.041311 0.110453
H104  H     H_    0.908380 0.367900 0.993761 0.108270
C112  C     C_3   0.630166 0.339123 0.982403 -0.283928
H105  H     H_    0.486545 0.346958 0.994898 0.187550
H106  H     H_    0.631196 0.342320 0.943997 0.198871
C113  C     C_3   0.685195 0.284166 0.995946 -0.866844
H107  H     H_    0.825918 0.274884 0.982317 0.238832
H108  H     H_    0.584252 0.256318 0.980950 0.231380
H109  H     H_    0.684775 0.279835 0.034230 0.230964
O32   O     O_3   0.278351 0.574766 0.010696 -0.541014
C114  C     C_3   0.217781 0.623688 0.994661 0.107304
H110  H     H_    0.137233 0.643714 0.022185 0.133848
H111  H     H_    0.128670 0.620783 0.963106 0.078701
C115  C     C_3   0.388093 0.656607 0.983061 -0.279907
H112  H     H_    0.476934 0.660595 0.014375 0.192042
H113  H     H_    0.470865 0.637127 0.955585 0.197226
C116  C     C_3   0.331731 0.710356 0.966315 -0.873157
H114  H     H_    0.241228 0.707424 0.935237 0.232902
H115  H     H_    0.458076 0.732711 0.956940 0.234771
H116  H     H_    0.256213 0.731412 0.994110 0.235036
O33   O     O_3   0.785445 0.928159 0.013703 -0.538791
C117  C     C_3   0.736707 0.878648 0.996795 0.114748
H117  H     H_    0.751171 0.877789 0.958506 0.110406
H118  H     H_    0.591422 0.867520 0.005965 0.108193
C118  C     C_3   0.869487 0.838652 0.017555 -0.283905
H119  H     H_    0.013230 0.846376 0.005118 0.187520
H120  H     H_    0.868154 0.841958 0.055954 0.198939
C119  C     C_3   0.814435 0.783684 0.004100 -0.867116
H121  H     H_    0.673555 0.774519 0.017666 0.238926
H122  H     H_    0.915146 0.755825 0.019220 0.231384
H123  H     H_    0.815219 0.779238 0.965827 0.230920
O34   O     O_3   0.221222 0.074404 0.988874 -0.541088
C120  C     C_3   0.281620 0.123337 0.004888 0.106892
H124  H     H_    0.361811 0.143374 0.977328 0.134106
H125  H     H_    0.371029 0.120455 0.036396 0.078761
C121  C     C_3   0.111201 0.156237 0.016571 -0.280191
H126  H     H_    0.022201 0.160251 0.985286 0.191974
H127  H     H_    0.028639 0.136730 0.044051 0.197279
C122  C     C_3   0.167383 0.209973 0.033351 -0.872608
H128  H     H_    0.257956 0.207014 0.064415 0.232981
H129  H     H_    0.040965 0.232322 0.042758 0.234853
H130  H     H_    0.242769 0.231046 0.005563 0.234817
O35   O     O_3   0.214881 0.070973 0.515027 -0.539356
C123  C     C_3   0.264000 0.120381 0.497953 0.113784
H131  H     H_    0.250313 0.121067 0.459650 0.110707
H132  H     H_    0.409137 0.131503 0.507238 0.108736
C124  C     C_3   0.130988 0.160509 0.518440 -0.284211
H133  H     H_    0.987293 0.152613 0.506084 0.187670
H134  H     H_    0.132304 0.157554 0.556861 0.198822
C125  C     C_3   0.185805 0.215367 0.504567 -0.866340
H135  H     H_    0.326767 0.224687 0.517967 0.238563
H136  H     H_    0.085097 0.243337 0.519551 0.231264
H137  H     H_    0.184754 0.219467 0.466264 0.230976
O36   O     O_3   0.781663 0.925938 0.487246 -0.538778
C126  C     C_3   0.727495 0.875384 0.500459 0.116767
H138  H     H_    0.580036 0.866378 0.491714 0.109430
H139  H     H_    0.744458 0.870650 0.538406 0.099531
C127  C     C_3   0.853428 0.836226 0.475955 -0.281706
H140  H     H_    0.855180 0.844295 0.438153 0.201971
H141  H     H_    0.997868 0.840085 0.489282 0.186596
C128  C     C_3   0.786792 0.780841 0.483501 -0.863073
H142  H     H_    0.785507 0.771383 0.521031 0.229286
H143  H     H_    0.881869 0.753626 0.465434 0.238259
H144  H     H_    0.644727 0.775768 0.469075 0.238945

loop_
_geom_bond_atom_site_label_1
_geom_bond_atom_site_label_2
_ccdc_geom_bond_type
O17   V3    S    
C66   O30   S    
C90   H54   S    
O18   V4    S    
C29   C78   S    
O12   V1    S    
C30   C38   A    
C101  H79   S    
C16   C24   A    
O7    C6    A    
C29   C37   A    
O35   C123  S    
C10   H2    S    
C24   C32   A    
O27   C99   S    
C114  C115  S    
C21   C29   A    
C36   H20   S    
C115  C116  S    
C39   H23   S    
C25   C74   S    
C103  H84   S    
C27   C35   A    
C25   C33   A    
O15   V4    S    
C16   C56   A    
O25   C93   S    
C120  C121  S    
C48   C56   A    
O11   C3    A    
C113  H107  S    
C17   C25   A    
C9    C17   A    
C95   H67   S    
O8    V1    S    
C95   H66   S    
C123  H131  S    
C88   H50   S    
C2    C56   S    
C104  H88   S    
C11   C51   A    
C82   H36   S    
O23   C87   S    
C61   O25   S    
C94   H64   S    
C84   H40   S    
O19   V1    S    
O24   C90   S    
C64   O28   S    
C110  H100  S    
C26   C34   A    
O1    V3    S    
C118  C119  S    
C65   O29   S    
O30   C108  S    
C68   C76   A    
O3    C2    A    
O2    V4    S    
C41   H25   S    
C93   H61   S    
C107  H93   S    
C126  H139  S    
C113  H108  S    
C20   H12   S    
C20   C28   A    
C91   H56   S    
C21   H13   S    
C44   C52   A    
C15   C23   A    
C88   H49   S    
O11   V2    S    
C111  H104  S    
C119  H123  S    
C110  H101  S    
C23   H15   S    
C100  C101  S    
C127  H141  S    
C24   H16   S    
C14   C54   A    
C11   H3    S    
C116  H114  S    
C65   C73   A    
C13   C53   A    
C12   C20   A    
C111  C112  S    
O9    V1    S    
O4    V3    S    
C26   C73   S    
C13   C21   A    
C38   H22   S    
O15   C7    A    
O2    C3    A    
C68   O32   S    
C98   H72   S    
O16   C8    A    
O7    V2    S    
C84   H41   S    
O33   C117  S    
C40   H24   S    
C86   H46   S    
C89   H52   S    
C109  H99   S    
C117  C118  S    
C125  H136  S    
C37   H21   S    
C34   H18   S    
C83   H39   S    
C61   C78   A    
C1    C55   S    
C33   H17   S    
C123  C124  S    
C47   H31   S    
C118  H119  S    
C124  C125  S    
O5    V1    S    
C59   C76   A    
C3    C53   S    
C128  H143  S    
C90   C91   S    
C10   C18   A    
C127  C128  S    
C59   C67   A    
C57   C74   A    
O13   C5    A    
C100  H77   S    
C10   C50   A    
C87   C88   S    
C43   C51   A    
C112  H105  S    
C88   C89   S    
C63   O27   S    
O22   C84   S    
C42   C50   A    
C83   H38   S    
C84   C85   S    
C45   H29   S    
C124  H133  S    
C116  H115  S    
O28   C102  S    
C97   H70   S    
C94   C95   S    
C115  H113  S    
C22   H14   S    
C113  H109  S    
C96   H69   S    
C120  H124  S    
C128  H142  S    
C70   O34   S    
C123  H132  S    
C46   C54   A    
C109  C110  S    
C114  H111  S    
C31   C39   A    
C32   C40   A    
C69   O33   S    
C95   H65   S    
O16   V3    S    
C125  H137  S    
C87   H48   S    
C40   C48   A    
C28   C75   S    
C102  H82   S    
C39   C47   A    
C106  H91   S    
C120  H125  S    
C98   H74   S    
C104  H86   S    
C90   H55   S    
O10   V2    S    
C72   O36   S    
C126  H138  S    
C22   C30   A    
C85   C86   S    
C8    C50   S    
C92   H60   S    
C67   C75   A    
O12   C4    A    
C122  H129  S    
C127  H140  S    
C119  H122  S    
C122  H130  S    
C60   O24   S    
C19   C27   A    
C100  H78   S    
C119  H121  S    
C86   H45   S    
C18   C26   A    
C91   C92   S    
C70   C78   A    
C5    C51   S    
C62   C77   A    
C81   H34   S    
C36   C44   A    
C4    C54   S    
O4    C1    A    
O1    C4    A    
O9    C1    A    
C18   H10   S    
O6    V2    S    
C72   C80   A    
C99   H76   S    
C96   H68   S    
C126  C127  S    
C101  H80   S    
C121  H127  S    
C108  H97   S    
C122  H128  S    
C11   C19   A    
C89   H51   S    
C58   C73   A    
C117  H118  S    
C12   H4    S    
C19   H11   S    
C125  H135  S    
C41   C49   A    
C114  H110  S    
C101  H81   S    
C31   C80   S    
C111  H103  S    
C44   H28   S    
C103  C104  S    
C15   H7    S    
C38   C46   A    
C85   H43   S    
C128  H144  S    
C69   C77   A    
C16   H8    S    
C48   H32   S    
O36   C126  S    
C121  H126  S    
C110  H102  S    
C102  C103  S    
C60   C68   A    
C93   H62   S    
C97   C98   S    
C107  H94   S    
C7    C49   S    
C97   H71   S    
O13   V3    S    
C121  C122  S    
O14   V4    S    
C83   H37   S    
C32   C79   S    
C81   C82   S    
O8    C5    A    
C66   C74   A    
C17   H9    S    
C71   O35   S    
O31   C111  S    
C64   C72   A    
C115  H112  S    
C82   C83   S    
C35   C43   A    
C28   C36   A    
C105  C106  S    
O21   C81   S    
C93   C94   S    
C105  H90   S    
C63   C80   A    
C9    C49   A    
C103  H85   S    
C60   C75   A    
C64   C79   A    
C9    H1    S    
C87   H47   S    
C34   C42   A    
O20   V2    S    
O32   C114  S    
C33   C41   A    
O34   C120  S    
C104  H87   S    
C47   C55   A    
C82   H35   S    
O26   C96   S    
C96   C97   S    
C67   O31   S    
C15   C55   A    
C124  H134  S    
O14   C6    A    
C94   H63   S    
C71   C79   A    
O5    C8    A    
C61   C69   A    
C12   C52   A    
O10   C2    A    
C30   C77   S    
C6    C52   S    
O6    C7    A    
C62   O26   S    
C37   C45   A    
C109  H98   S    
C118  H120  S    
C27   C76   S    
C92   H59   S    
C99   C100  S    
C57   O21   S    
C35   H19   S    
C107  H95   S    
O3    V4    S    
C112  C113  S    
C116  H116  S    
C91   H57   S    
C14   H6    S    
C102  H83   S    
C112  H106  S    
C81   H33   S    
C92   H58   S    
C58   O22   S    
C106  C107  S    
C58   C66   A    
C14   C22   A    
C57   C65   A    
C99   H75   S    
C46   H30   S    
C89   H53   S    
C106  H92   S    
C105  H89   S    
C108  C109  S    
C59   O23   S    
C86   H44   S    
C98   H73   S    
C117  H117  S    
C85   H42   S    
C62   C70   A    
C43   H27   S    
C108  H96   S    
C13   H5    S    
C42   H26   S    
C23   C31   A    
C45   C53   A    
O29   C105  S    
C63   C71   A    
