data_mof_unit_9163.cif
_audit_creation_date              2012-12-10T19:09:30-0500
_audit_creation_method            fapswitch 2.2
_symmetry_space_group_name_H-M    P1
_symmetry_Int_Tables_number       1
_space_group_crystal_system       triclinic
_cell_length_a                    14.955607
_cell_length_b                    15.185831
_cell_length_c                    9.69425
_cell_angle_alpha                 89.81834
_cell_angle_beta                  90.011716
_cell_angle_gamma                 90.00552
_cell_volume                      2201.68218399

loop_
_atom_site_label
_atom_site_type_symbol
_atom_type_description
_atom_site_fract_x
_atom_site_fract_y
_atom_site_fract_z
_atom_type_partial_charge
Br1   Br    Br    0.275717 0.612051 0.740487 -0.487875
Br2   Br    Br    0.084074 0.783066 0.277465 -0.577584
Br3   Br    Br    0.083694 0.221471 0.273121 -0.568905
Br4   Br    Br    0.277734 0.385346 0.739818 -0.494189
Br5   Br    Br    0.582091 0.279919 0.723713 -0.569859
Br6   Br    Br    0.779252 0.112883 0.263374 -0.493442
Br7   Br    Br    0.773725 0.886274 0.256113 -0.488111
Br8   Br    Br    0.585922 0.717910 0.725322 -0.576822
C1    C     C_R   0.119251 0.376697 0.500118 0.908852
C2    C     C_R   0.876560 0.618835 0.500309 0.872418
C3    C     C_R   0.376443 0.881298 0.499675 0.871659
C4    C     C_R   0.376184 0.118412 0.499415 0.874217
C5    C     C_3   0.764156 0.307662 0.647604 -0.410354
C6    C     C_3   0.850488 0.225985 0.466956 -0.400152
C7    C     C_3   0.849690 0.773802 0.458182 -0.398860
C8    C     C_3   0.768403 0.695934 0.648860 -0.406415
C9    C     C_3   0.349990 0.726019 0.539048 -0.399817
C10   C     C_3   0.266944 0.805488 0.351698 -0.406712
C11   C     C_3   0.265319 0.193538 0.351693 -0.410128
C12   C     C_R   0.119055 0.623461 0.500012 0.906396
C13   C     C_3   0.350283 0.273825 0.535375 -0.398799
C14   C     C_3   0.277206 0.655202 0.549692 0.106780
C15   C     C_3   0.195637 0.733626 0.351469 0.077689
C16   C     C_3   0.195748 0.267141 0.350886 0.080572
C17   C     C_3   0.277597 0.344444 0.548495 0.106181
C18   C     C_3   0.694681 0.233934 0.648573 0.079522
C19   C     C_3   0.777875 0.155261 0.453834 0.104648
C20   C     C_3   0.776807 0.844518 0.447737 0.108531
C21   C     C_3   0.696810 0.767459 0.648961 0.078158
C22   C     C_3   0.732853 0.338600 0.395827 -0.381756
C23   C     C_R   0.619057 0.876543 0.499984 0.905878
C24   C     C_3   0.730831 0.659564 0.400992 -0.381026
C25   C     C_3   0.231589 0.839668 0.601031 -0.381059
C26   C     C_3   0.232150 0.160670 0.602309 -0.381955
C27   C     C_3   0.806946 0.314978 0.502396 0.055032
C28   C     C_3   0.807385 0.685545 0.501680 0.052371
C29   C     C_3   0.307260 0.814603 0.498272 0.053678
C30   C     C_3   0.307018 0.185106 0.497526 0.053697
C31   C     C_3   0.185443 0.693928 0.500327 0.002201
C32   C     C_3   0.185559 0.306136 0.499995 0.000883
C33   C     C_3   0.685513 0.193906 0.500006 0.002374
C34   C     C_R   0.619217 0.123331 0.499892 0.909440
C35   C     C_3   0.685469 0.806106 0.499612 0.000820
C36   C     C_3   0.157500 0.769512 0.598916 -0.348450
C37   C     C_3   0.157475 0.230151 0.598345 -0.350153
C38   C     C_3   0.658119 0.269202 0.399871 -0.350358
C39   C     C_3   0.656806 0.729811 0.402862 -0.348029
C40   C     C_3   0.080832 0.458768 0.081457 -0.242563
C41   C     C_3   0.081097 0.459456 0.919205 -0.191493
C42   C     C_3   0.993089 0.590666 0.918149 -0.241488
C43   C     C_3   0.994370 0.590661 0.080626 -0.208685
C44   C     C_3   0.496462 0.909187 0.081850 -0.240998
C45   C     C_3   0.921262 0.450724 0.081476 -0.229591
C46   C     C_3   0.498088 0.909245 0.919381 -0.207184
C47   C     C_3   0.579067 0.044487 0.918587 -0.242778
C48   C     C_3   0.579552 0.043489 0.080839 -0.193205
C49   C     C_3   0.921716 0.450036 0.918915 -0.240245
C50   C     C_3   0.419886 0.047099 0.081059 -0.239349
C51   C     C_3   0.419310 0.046155 0.918499 -0.230695
C52   C     C_R   0.876118 0.381663 0.500556 0.873837
H1    H     H_    0.733668 0.372015 0.675714 0.218577
H2    H     H_    0.898604 0.206663 0.549416 0.147530
H3    H     H_    0.900781 0.794359 0.535284 0.150052
H4    H     H_    0.821811 0.714823 0.723270 0.162545
H5    H     H_    0.400296 0.706119 0.460346 0.148600
H6    H     H_    0.319675 0.787550 0.275620 0.163287
H7    H     H_    0.317435 0.209495 0.273432 0.165017
H8    H     H_    0.399039 0.293764 0.454205 0.148604
H9    H     H_    0.295962 0.598508 0.483129 0.110700
H10   H     H_    0.217279 0.680929 0.279089 0.134980
H11   H     H_    0.219381 0.319965 0.279693 0.130458
H12   H     H_    0.889912 0.231988 0.370144 0.253319
H13   H     H_    0.295903 0.401904 0.482674 0.111084
H14   H     H_    0.717923 0.181648 0.721046 0.130821
H15   H     H_    0.795704 0.098292 0.521009 0.109869
H16   H     H_    0.796112 0.901692 0.512927 0.112009
H17   H     H_    0.718677 0.820725 0.720170 0.134772
H18   H     H_    0.704385 0.404691 0.418779 0.163398
H19   H     H_    0.761454 0.341190 0.289857 0.200183
H20   H     H_    0.757087 0.653367 0.294001 0.197775
H21   H     H_    0.702289 0.594576 0.431113 0.166999
H22   H     H_    0.258735 0.844791 0.707657 0.198505
H23   H     H_    0.885460 0.765989 0.358395 0.252118
H24   H     H_    0.202865 0.904958 0.573030 0.166253
H25   H     H_    0.203806 0.094798 0.577506 0.163702
H26   H     H_    0.259996 0.157175 0.708712 0.199845
H27   H     H_    0.145866 0.744845 0.705471 0.206124
H28   H     H_    0.093350 0.799721 0.565525 0.196797
H29   H     H_    0.093987 0.199455 0.563261 0.197665
H30   H     H_    0.144654 0.254462 0.704552 0.205775
H31   H     H_    0.594439 0.300185 0.433420 0.197461
H32   H     H_    0.645967 0.244158 0.293892 0.205562
H33   H     H_    0.644497 0.753700 0.296055 0.205758
H34   H     H_    0.740780 0.631691 0.684439 0.220759
H35   H     H_    0.592834 0.699910 0.437690 0.197139
H36   H     H_    0.086142 0.389707 0.118240 0.201542
H37   H     H_    0.087734 0.390738 0.881288 0.179392
H38   H     H_    0.930890 0.623171 0.881222 0.156452
H39   H     H_    0.933996 0.625086 0.120083 0.175250
H40   H     H_    0.435433 0.874491 0.118567 0.155545
H41   H     H_    0.439361 0.872329 0.879483 0.177314
H42   H     H_    0.581360 0.113772 0.882103 0.202037
H43   H     H_    0.583894 0.112290 0.119198 0.175640
H44   H     H_    0.141016 0.493649 0.120918 0.160632
H45   H     H_    0.386790 0.733004 0.638133 0.251424
H46   H     H_    0.140550 0.496075 0.881605 0.228301
H47   H     H_    0.049608 0.631034 0.878453 0.176862
H48   H     H_    0.053103 0.628889 0.116401 0.201100
H49   H     H_    0.554339 0.870831 0.121744 0.180367
H50   H     H_    0.558550 0.873538 0.884077 0.200599
H51   H     H_    0.640640 0.012211 0.878841 0.160867
H52   H     H_    0.640290 0.008790 0.118051 0.228835
H53   H     H_    0.922379 0.381689 0.120174 0.185950
H54   H     H_    0.924230 0.380730 0.882379 0.158632
H55   H     H_    0.858039 0.478298 0.879207 0.157214
H56   H     H_    0.238735 0.869959 0.318328 0.220128
H57   H     H_    0.857852 0.480375 0.119353 0.145013
H58   H     H_    0.357320 0.016673 0.121030 0.156984
H59   H     H_    0.357158 0.013917 0.880796 0.145146
H60   H     H_    0.417511 0.115136 0.879661 0.184048
H61   H     H_    0.419919 0.116509 0.117278 0.158619
H62   H     H_    0.235140 0.129384 0.321707 0.218860
H63   H     H_    0.388927 0.267073 0.632821 0.254358
H64   H     H_    0.815664 0.292424 0.727187 0.165193
N1    N     N_3   0.998760 0.500000 0.138610 -0.054986
N2    N     N_3   0.998760 0.500000 0.861390 -0.057295
N3    N     N_3   0.498760 0.000000 0.138610 -0.056883
N4    N     N_3   0.498760 1.000000 0.861390 -0.055230
O1    O     O_R   0.092530 0.407440 0.616040 -0.594822
O2    O     O_R   0.907330 0.407420 0.383960 -0.623309
O3    O     O_R   0.907330 0.592580 0.383960 -0.624823
O4    O     O_R   0.907330 0.592580 0.616040 -0.643049
O5    O     O_R   0.407330 0.907420 0.616040 -0.624787
O6    O     O_R   0.407330 0.907420 0.383960 -0.642899
O7    O     O_R   0.407330 0.092580 0.383960 -0.643793
O8    O     O_R   0.407330 0.092580 0.616040 -0.623186
O9    O     O_R   0.092530 0.407440 0.383960 -0.619100
O10   O     O_R   0.092530 0.592560 0.383960 -0.620612
O11   O     O_R   0.092530 0.592560 0.616040 -0.590754
O12   O     O_R   0.592530 0.907440 0.616040 -0.620158
O13   O     O_R   0.592530 0.907440 0.383960 -0.590109
O14   O     O_R   0.592530 0.092560 0.383960 -0.595294
O15   O     O_R   0.592530 0.092560 0.616040 -0.619892
O16   O     O_R   0.907330 0.407420 0.616040 -0.643716
Zn1   Zn    Zn3+2 0.999890 0.500000 0.654960 0.935619
Zn2   Zn    Zn3+2 0.999890 0.500000 0.345040 0.935146
Zn3   Zn    Zn3+2 0.499890 1.000000 0.654960 0.935041
Zn4   Zn    Zn3+2 0.499890 1.000000 0.345040 0.935799

loop_
_geom_bond_atom_site_label_1
_geom_bond_atom_site_label_2
_ccdc_geom_bond_type
C47   C48   S    
C16   H11   S    
C11   H62   S    
C23   O13   A    
C51   H60   S    
O2    Zn2   S    
C33   C34   S    
C46   H41   S    
Br4   C17   S    
C49   H55   S    
O15   Zn3   S    
C24   H21   S    
C47   H42   S    
C23   C35   S    
C22   C27   S    
Br8   C21   S    
C24   C28   S    
C12   O11   A    
C10   C29   S    
C5    C27   S    
N1    Zn2   S    
C3    O5    A    
C17   C32   S    
C45   H57   S    
C38   H32   S    
C40   H44   S    
C39   H35   S    
C50   H58   S    
C46   H50   S    
O3    Zn2   S    
C26   H26   S    
C48   N3    S    
C12   O10   A    
C3    C29   S    
C2    O3    A    
O13   Zn4   S    
C16   C32   S    
C40   N1    S    
C1    O9    A    
C44   N3    S    
C13   C30   S    
C44   C46   S    
C43   H48   S    
C4    O7    A    
C34   O14   A    
C33   C38   S    
C11   H7    S    
C42   N2    S    
C6    C19   S    
C36   H27   S    
C37   H29   S    
C25   H22   S    
C14   H9    S    
O1    Zn1   S    
N3    Zn4   S    
C50   N3    S    
C21   C35   S    
C15   H10   S    
Br3   C16   S    
C19   H15   S    
O12   Zn3   S    
N2    Zn1   S    
C45   H53   S    
C43   H39   S    
C32   C37   S    
C42   H38   S    
C10   C15   S    
C43   N1    S    
O14   Zn4   S    
O9    Zn2   S    
C3    O6    A    
C52   O2    A    
C49   N2    S    
C12   C31   S    
C45   C49   S    
C7    H23   S    
C38   H31   S    
C50   C51   S    
C46   N4    S    
C44   H40   S    
C1    C32   S    
C25   C29   S    
Br7   C20   S    
C27   C52   S    
C26   H25   S    
C13   H63   S    
C41   N2    S    
C11   C30   S    
C9    H45   S    
C9    H5    S    
C24   H20   S    
C19   C33   S    
Br6   C19   S    
Br2   C15   S    
C42   C43   S    
C39   H33   S    
C21   H17   S    
C26   C37   S    
C9    C29   S    
C37   H30   S    
C31   C36   S    
C45   N1    S    
O5    Zn3   S    
C22   H19   S    
C40   C41   S    
C13   H8    S    
C42   H47   S    
C24   C39   S    
C5    C18   S    
O4    Zn1   S    
C10   H56   S    
C20   H16   S    
C7    C28   S    
C6    C27   S    
C5    H64   S    
C13   C17   S    
O11   Zn1   S    
C50   H61   S    
C51   H59   S    
C40   H36   S    
C47   H51   S    
C26   C30   S    
C25   C36   S    
C6    H12   S    
C22   C38   S    
C48   H43   S    
O16   Zn1   S    
N4    Zn3   S    
C41   H46   S    
C1    O1    A    
C10   H6    S    
O6    Zn4   S    
C20   C35   S    
C8    H34   S    
C9    C14   S    
C11   C16   S    
C51   N4    S    
C52   O16   A    
C7    C20   S    
C49   H54   S    
C44   H49   S    
O10   Zn2   S    
C15   C31   S    
C14   C31   S    
C18   H14   S    
C17   H13   S    
C4    C30   S    
C25   H24   S    
C2    O4    A    
O8    Zn3   S    
C41   H37   S    
Br5   C18   S    
C22   H18   S    
Br1   C14   S    
C5    H1    S    
C47   N4    S    
C8    C21   S    
O7    Zn4   S    
C4    O8    A    
C34   O15   A    
C7    H3    S    
C2    C28   S    
C8    H4    S    
C23   O12   A    
C36   H28   S    
C35   C39   S    
C48   H52   S    
C8    C28   S    
C18   C33   S    
C6    H2    S    
