data_mof_unit_47750.cif
_audit_creation_date              2012-12-10T18:06:07-0500
_audit_creation_method            fapswitch 2.2
_symmetry_space_group_name_H-M    P1
_symmetry_Int_Tables_number       1
_space_group_crystal_system       triclinic
_cell_length_a                    25.889126
_cell_length_b                    25.916288
_cell_length_c                    22.185692
_cell_angle_alpha                 90.071864
_cell_angle_beta                  54.339131
_cell_angle_gamma                 89.901356
_cell_volume                      12094.1270637

loop_
_atom_site_label
_atom_site_type_symbol
_atom_type_description
_atom_site_fract_x
_atom_site_fract_y
_atom_site_fract_z
_atom_type_partial_charge
C1    C     C_R   0.400405 0.250148 0.699325 0.823424
C2    C     C_3   0.249472 0.699199 0.977165 0.269988
C3    C     C_3   0.246291 0.206101 0.972273 0.306350
C4    C     C_3   0.777033 0.295790 0.974448 0.372661
C5    C     C_3   0.272992 0.715992 0.024361 0.269012
C6    C     C_3   0.257816 0.293063 0.027359 0.373698
C7    C     C_3   0.780956 0.707495 0.974453 0.282207
C8    C     C_3   0.705135 0.283902 0.024929 0.282003
C9    C     C_3   0.306279 0.763945 0.973551 0.256794
C10   C     C_3   0.313303 0.256137 0.973132 0.291267
C11   C     C_3   0.707015 0.710319 0.025764 0.276415
C12   C     C_3   0.188830 0.732378 0.027481 0.377743
C13   C     C_3   0.232149 0.289927 0.979845 0.350500
C14   C     C_3   0.798544 0.214505 0.975212 0.286333
C15   C     C_3   0.785121 0.791996 0.974478 0.281527
C16   C     C_3   0.191030 0.243440 0.025865 0.294811
C17   C     C_1   0.638671 0.249811 0.221700 -0.162766
C18   C     C_1   0.360796 0.749502 0.778300 -0.147865
C19   C     C_1   0.361397 0.250962 0.778293 -0.148014
C20   C     C_1   0.638839 0.750063 0.221629 -0.158523
C21   C     C_1   0.138948 0.749677 0.221712 -0.143918
C22   C     C_1   0.861819 0.249636 0.778223 -0.158486
C23   C     C_1   0.860033 0.750097 0.778495 -0.155349
C24   C     C_3   0.784361 0.748305 0.022652 0.271026
C25   C     C_1   0.139736 0.249477 0.221625 -0.147085
C26   C     C_3   0.650653 0.432966 0.440913 -0.681727
C27   C     C_3   0.442361 0.568534 0.407232 -0.811082
C28   C     C_3   0.346088 0.438309 0.568959 -0.732718
C29   C     C_3   0.649723 0.567091 0.446726 -0.689553
C30   C     C_3   0.155594 0.933805 0.423299 -0.680342
C31   C     C_3   0.927820 0.068443 0.423325 -0.810198
C32   C     C_3   0.842668 0.939073 0.588152 -0.717248
C33   C     C_3   0.155357 0.066515 0.424647 -0.685864
C34   C     C_3   0.598968 0.301919 0.077661 0.158818
C35   C     C_3   0.244897 0.795819 0.024138 0.356860
C36   C     C_3   0.546549 0.339894 0.131251 -0.367262
C37   C     C_3   0.481373 0.321418 0.154400 -0.981708
C38   C     C_3   0.397411 0.767052 0.971156 0.104749
C39   C     C_3   0.454105 0.801544 0.947486 -0.357036
C40   C     C_3   0.490356 0.781717 0.977776 -0.951954
C41   C     C_3   0.402684 0.239009 0.971271 0.133895
C42   C     C_3   0.465780 0.262642 0.948357 -0.372452
C43   C     C_3   0.493355 0.234281 0.983960 -0.977413
C44   C     C_3   0.646258 0.648381 0.016128 0.117816
C45   C     C_3   0.576547 0.662148 0.051428 -0.255960
C46   C     C_3   0.716644 0.236943 0.975406 0.277443
C47   C     C_3   0.556607 0.646648 0.001396 -0.991567
C48   C     C_3   0.117236 0.699259 0.006798 0.157103
C49   C     C_3   0.047055 0.702857 0.037163 -0.338198
C50   C     C_3   0.035703 0.681933 0.981444 -0.985445
C51   C     C_3   0.858368 0.160446 0.997215 0.131568
C52   C     C_3   0.923710 0.176320 0.976703 -0.284482
C53   C     C_3   0.932451 0.159184 0.036081 -0.995505
C54   C     C_3   0.854903 0.848463 0.974394 0.143563
C55   C     C_3   0.884303 0.902054 0.948636 -0.372875
C56   C     C_3   0.918482 0.917776 0.983196 -0.967215
C57   C     C_3   0.707929 0.754216 0.977725 0.327125
C58   C     C_3   0.115372 0.231699 0.001628 0.128772
C59   C     C_3   0.067904 0.273027 0.013689 -0.325580
C60   C     C_3   0.062556 0.275240 0.948724 -0.986826
C61   C     C_3   0.212029 0.824003 0.891549 0.091635
C62   C     C_3   0.263211 0.865906 0.860615 -0.292695
C63   C     C_3   0.291175 0.877540 0.779662 -0.996257
C64   C     C_3   0.727496 0.112386 0.016782 0.113386
C65   C     C_3   0.682445 0.067881 0.032912 -0.345840
C66   C     C_3   0.719064 0.020012 0.987484 -0.976196
C67   C     C_3   0.690284 0.873096 0.086512 0.098698
C68   C     C_3   0.271889 0.209174 0.019946 0.258662
C69   C     C_3   0.634096 0.908166 0.140180 -0.317938
C70   C     C_3   0.651695 0.947343 0.176804 -0.981412
C71   C     C_3   0.200957 0.124688 0.990322 0.146624
C72   C     C_3   0.236609 0.073744 0.975008 -0.326288
C73   C     C_3   0.194052 0.032813 0.032297 -0.986285
C74   C     C_3   0.781145 0.371093 0.915275 0.130753
C75   C     C_3   0.832586 0.405860 0.853822 -0.340011
C76   C     C_3   0.807122 0.437874 0.818712 -0.993732
C77   C     C_3   0.336252 0.646169 0.012526 0.118710
C78   C     C_3   0.304286 0.593679 0.042522 -0.285990
C79   C     C_3   0.715010 0.249745 0.074387 -0.251521
C80   C     C_3   0.348916 0.549555 0.994850 -0.987802
C81   C     C_3   0.299404 0.337544 0.080637 0.110045
C82   C     C_3   0.286437 0.383248 0.131244 -0.320551
C83   C     C_3   0.335561 0.385798 0.148434 -0.997487
C84   C     C_3   0.794137 0.618698 0.974954 0.104596
C85   C     C_3   0.844789 0.577153 0.950157 -0.346537
C86   C     C_3   0.814747 0.525053 0.985002 -0.965116
C87   C     C_3   0.288932 0.630890 0.890883 0.091469
C88   C     C_3   0.263076 0.633931 0.844034 -0.379961
C89   C     C_3   0.310509 0.611634 0.766569 -0.889377
C90   C     C_3   0.282734 0.747308 0.925660 -0.301851
C91   C     C_3   0.804421 0.296971 0.108886 0.086020
C92   C     C_3   0.776536 0.351145 0.117675 -0.305896
C93   C     C_3   0.750702 0.373874 0.193834 -0.985151
C94   C     C_3   0.819235 0.701559 0.082164 0.129341
C95   C     C_3   0.836487 0.711103 0.136412 -0.348403
C96   C     C_3   0.836582 0.661013 0.172408 -0.970286
C97   C     C_3   0.219824 0.338397 0.899382 0.087618
C98   C     C_3   0.275801 0.374680 0.849815 -0.319093
C99   C     C_3   0.286381 0.382958 0.775270 -0.966903
C100  C     C_3   0.697607 0.183412 0.905569 0.126264
C101  C     C_3   0.287667 0.252945 0.925615 -0.229876
C102  C     C_3   0.688985 0.192795 0.843909 -0.344560
C103  C     C_3   0.709688 0.145997 0.792834 -0.955731
C104  C     C_3   0.269519 0.853598 0.083932 0.111921
C105  C     C_3   0.238400 0.898488 0.138823 -0.324428
C106  C     C_3   0.268894 0.906743 0.179765 -0.985460
C107  C     C_3   0.258474 0.144530 0.102506 0.092537
C108  C     C_3   0.277755 0.164052 0.151953 -0.373688
C109  C     C_3   0.239968 0.137161 0.227197 -0.920111
C110  C     C_3   0.684805 0.778578 0.893522 0.077858
C111  C     C_3   0.700282 0.836369 0.887504 -0.300476
C112  C     C_R   0.599670 0.750007 0.300650 0.817772
C113  C     C_3   0.710656 0.750951 0.074303 -0.216511
C114  C     C_3   0.720888 0.857950 0.812631 -0.992061
C115  C     C_3   0.397440 0.212192 0.322153 -0.712731
C116  C     C_3   0.616765 0.667498 0.627565 -0.797840
C117  C     C_3   0.604747 0.202968 0.674535 -0.695286
C118  C     C_3   0.400692 0.698693 0.340695 -0.769067
C119  C     C_3   0.900524 0.732093 0.312694 -0.691786
C120  C     C_3   0.109969 0.178802 0.641092 -0.781647
C121  C     C_3   0.105793 0.699556 0.672130 -0.691057
C122  C     C_3   0.900080 0.196144 0.342482 -0.769481
C123  C     C_3   0.253495 0.318267 0.353104 -0.811584
C124  C     C_3   0.211852 0.748703 0.074405 -0.194057
C125  C     C_3   0.717873 0.771552 0.684326 -0.785651
C126  C     C_3   0.742665 0.306655 0.657224 -0.816008
C127  C     C_3   0.276926 0.797516 0.324167 -0.761231
C128  C     C_3   0.755576 0.830765 0.360976 -0.779199
C129  C     C_3   0.219156 0.288486 0.679845 -0.762564
C130  C     C_3   0.242358 0.803857 0.659133 -0.819219
C131  C     C_3   0.777660 0.294278 0.322471 -0.774425
C132  C     C_3   0.394375 0.059485 0.458531 -0.722867
C133  C     C_3   0.607256 0.929784 0.534535 -0.701707
C134  C     C_3   0.611895 0.061809 0.533339 -0.722789
C135  C     C_3   0.788823 0.248895 0.925484 -0.221246
C136  C     C_3   0.348299 0.930012 0.603490 -0.826554
C137  C     C_3   0.882198 0.559909 0.478922 -0.721216
C138  C     C_3   0.122775 0.433899 0.512090 -0.699178
C139  C     C_3   0.121127 0.564651 0.515359 -0.711839
C140  C     C_3   0.848129 0.432797 0.622306 -0.835969
C141  C     C_3   0.781832 0.751208 0.925907 -0.217782
C142  C     C_3   0.216094 0.246742 0.074290 -0.272684
C143  C     C_1   0.672477 0.249569 0.155180 0.060772
C144  C     C_1   0.326029 0.748585 0.844794 0.036125
C145  C     C_1   0.328299 0.251986 0.844788 0.104374
C146  C     C_1   0.671307 0.750455 0.155125 0.084132
C147  C     C_1   0.171884 0.749220 0.155210 0.132667
C148  C     C_R   0.599392 0.250098 0.300700 0.814445
C149  C     C_1   0.829242 0.249322 0.844696 0.080394
C150  C     C_1   0.825083 0.750505 0.845036 0.102381
C151  C     C_1   0.174136 0.248311 0.155126 0.081720
C152  C     C_R   0.310836 0.254625 0.432833 0.145981
C153  C     C_R   0.689875 0.738299 0.564987 0.164084
C154  C     C_R   0.688781 0.250298 0.567939 0.139363
C155  C     C_R   0.311200 0.751205 0.432401 0.154038
C156  C     C_R   0.810463 0.760879 0.433455 0.156681
C157  C     C_R   0.188724 0.244112 0.567190 0.161559
C158  C     C_R   0.188810 0.749205 0.567931 0.137831
C159  C     C_R   0.400535 0.749822 0.699300 0.807200
C160  C     C_R   0.811223 0.249976 0.432345 0.153761
C161  C     C_R   0.257149 0.256690 0.432314 0.110274
C162  C     C_R   0.743186 0.740546 0.566681 0.125241
C163  C     C_R   0.742382 0.251988 0.568592 0.113123
C164  C     C_R   0.257419 0.751408 0.431757 0.103943
C165  C     C_R   0.756580 0.761682 0.433231 0.137727
C166  C     C_R   0.242130 0.246599 0.568639 0.104599
C167  C     C_R   0.242354 0.751007 0.568673 0.113858
C168  C     C_R   0.757416 0.250171 0.431709 0.106111
C169  C     C_R   0.196412 0.250129 0.499343 -0.169829
C170  C     C_R   0.900318 0.750130 0.699396 0.818425
C171  C     C_R   0.803631 0.750536 0.500239 -0.206661
C172  C     C_R   0.803505 0.250582 0.500725 -0.167029
C173  C     C_R   0.196383 0.749641 0.499691 -0.185481
C174  C     C_R   0.696671 0.749929 0.498823 -0.190132
C175  C     C_R   0.303298 0.250006 0.500794 -0.187065
C176  C     C_R   0.303489 0.750689 0.500783 -0.167673
C177  C     C_R   0.696364 0.249608 0.499702 -0.184991
C178  C     C_R   0.448117 0.027386 0.510680 0.144874
C179  C     C_R   0.552261 0.972802 0.489014 0.143891
C180  C     C_R   0.552814 0.026893 0.488023 0.110787
C181  C     C_R   0.099755 0.249924 0.300647 0.815495
C182  C     C_R   0.446936 0.973413 0.512989 0.116770
C183  C     C_R   0.945186 0.527387 0.518834 0.145358
C184  C     C_R   0.054622 0.472729 0.481689 0.153123
C185  C     C_R   0.054707 0.526757 0.482026 0.139784
C186  C     C_R   0.944197 0.473334 0.521110 0.137022
C187  C     C_R   0.499550 0.946229 0.500912 -0.167745
C188  C     C_R   0.500622 0.053869 0.499003 -0.176473
C189  C     C_R   0.999563 0.446159 0.500572 -0.189990
C190  C     C_R   0.000208 0.553817 0.499717 -0.193463
C191  C     C_R   0.640174 0.249858 0.499819 0.855239
C192  C     C_R   0.099580 0.749963 0.300707 0.811005
C193  C     C_R   0.359623 0.750427 0.500663 0.867261
C194  C     C_R   0.359654 0.249889 0.500409 0.861212
C195  C     C_R   0.640519 0.750433 0.499059 0.868363
C196  C     C_R   0.140190 0.749849 0.499798 0.854254
C197  C     C_R   0.859626 0.250411 0.500650 0.864363
C198  C     C_R   0.859695 0.749925 0.500380 0.819584
C199  C     C_R   0.140391 0.250315 0.499324 0.870316
C200  C     C_R   0.500129 0.109936 0.499802 0.858820
C201  C     C_R   0.499963 0.890106 0.500109 0.870496
C202  C     C_R   0.000057 0.609919 0.499921 0.864712
C203  C     C_R   0.900497 0.249989 0.699276 0.817743
C204  C     C_R   0.999630 0.390071 0.500344 0.830291
C205  C     C_R   0.499870 0.390181 0.500440 0.901423
C206  C     C_R   0.500282 0.609910 0.500219 0.895430
C207  C     C_R   0.999890 0.890191 0.500487 0.892404
C208  C     C_R   0.000321 0.109904 0.500021 0.890477
C209  C     C_R   0.545601 0.472926 0.504119 0.105025
C210  C     C_R   0.455694 0.527421 0.494918 0.127060
C211  C     C_R   0.452893 0.473344 0.499755 0.096582
C212  C     C_R   0.545450 0.527050 0.504568 0.101904
C213  C     C_R   0.049553 0.972929 0.496284 0.105808
C214  C     C_3   0.787381 0.262140 0.023693 0.345585
C215  C     C_R   0.952130 0.027426 0.501758 0.127045
C216  C     C_R   0.949492 0.973433 0.507015 0.096148
C217  C     C_R   0.049802 0.026996 0.496010 0.102843
C218  C     C_R   0.500869 0.553851 0.499272 -0.141183
C219  C     C_R   0.499405 0.446380 0.501547 -0.154413
C220  C     C_R   0.001108 0.053848 0.498618 -0.147162
C221  C     C_R   0.999526 0.946400 0.501519 -0.155657
C222  C     C_3   0.221329 0.779904 0.977308 0.341194
C223  C     C_3   0.726046 0.202240 0.024993 0.266716
C224  C     C_3   0.711711 0.794374 0.026235 0.348416
H1    H     H_    0.593079 0.456012 0.552370 0.209236
H2    H     H_    0.319207 0.475116 0.589875 0.206998
H3    H     H_    0.746576 0.028516 0.927228 0.267407
H4    H     H_    0.685210 0.988370 0.000511 0.272390
H5    H     H_    0.752186 0.006937 0.000855 0.257961
H6    H     H_    0.729849 0.897285 0.042418 0.170910
H7    H     H_    0.705588 0.853236 0.118223 0.127347
H8    H     H_    0.618369 0.929028 0.109739 0.225047
H9    H     H_    0.593857 0.884259 0.183942 0.237622
H10   H     H_    0.665400 0.927227 0.209740 0.265544
H11   H     H_    0.610199 0.972655 0.214545 0.270627
H12   H     H_    0.691867 0.971750 0.134174 0.266645
H13   H     H_    0.353089 0.423577 0.610664 0.265138
H14   H     H_    0.162284 0.118315 0.983400 0.132281
H15   H     H_    0.177687 0.136429 0.049159 0.133132
H16   H     H_    0.254013 0.059504 0.918836 0.225965
H17   H     H_    0.278495 0.080059 0.976042 0.252682
H18   H     H_    0.177630 0.045640 0.088679 0.256130
H19   H     H_    0.221202 0.996270 0.019035 0.279556
H20   H     H_    0.152134 0.025403 0.031642 0.272867
H21   H     H_    0.740773 0.395385 0.958509 0.181384
H22   H     H_    0.763823 0.345087 0.890477 0.140491
H23   H     H_    0.850720 0.432214 0.877038 0.234791
H24   H     H_    0.317220 0.409843 0.563173 0.235352
H25   H     H_    0.872801 0.381599 0.810258 0.238086
H26   H     H_    0.789787 0.412239 0.793891 0.269199
H27   H     H_    0.845733 0.462491 0.774265 0.273398
H28   H     H_    0.767622 0.463187 0.861016 0.263486
H29   H     H_    0.378212 0.647503 0.014354 0.133592
H30   H     H_    0.355004 0.650590 0.953215 0.116433
H31   H     H_    0.290070 0.589081 0.100144 0.219793
H32   H     H_    0.260662 0.591490 0.044228 0.264331
H33   H     H_    0.363467 0.553005 0.937014 0.257309
H34   H     H_    0.324225 0.512123 0.017864 0.274823
H35   H     H_    0.588906 0.543602 0.557634 0.207839
H36   H     H_    0.391960 0.549987 0.994572 0.264723
H37   H     H_    0.349661 0.339637 0.031423 0.182618
H38   H     H_    0.291284 0.301431 0.112241 0.104112
H39   H     H_    0.288168 0.419778 0.103895 0.237662
H40   H     H_    0.238144 0.379346 0.183912 0.222194
H41   H     H_    0.337628 0.348632 0.171778 0.266208
H42   H     H_    0.322533 0.416998 0.189381 0.274406
H43   H     H_    0.383377 0.394155 0.097093 0.269381
H44   H     H_    0.763918 0.606819 0.956935 0.149807
H45   H     H_    0.765078 0.621697 0.036563 0.154314
H46   H     H_    0.687475 0.545672 0.445493 0.205860
H47   H     H_    0.874234 0.573329 0.888735 0.235806
H48   H     H_    0.876312 0.588649 0.966602 0.218818
H49   H     H_    0.785685 0.527789 0.046471 0.267460
H50   H     H_    0.852703 0.495832 0.966331 0.269297
H51   H     H_    0.784132 0.512192 0.967900 0.265257
H52   H     H_    0.299676 0.589807 0.893580 0.165247
H53   H     H_    0.334892 0.651517 0.864245 0.126076
H54   H     H_    0.218014 0.611788 0.871667 0.221264
H55   H     H_    0.252470 0.674636 0.839330 0.212522
H56   H     H_    0.357119 0.631290 0.738942 0.272578
H57   H     H_    0.658884 0.608944 0.446233 0.254754
H58   H     H_    0.292250 0.617115 0.732467 0.267178
H59   H     H_    0.317309 0.569692 0.770063 0.248791
H60   H     H_    0.842767 0.300355 0.117002 0.161265
H61   H     H_    0.769667 0.269898 0.152496 0.131875
H62   H     H_    0.814179 0.376889 0.074070 0.247237
H63   H     H_    0.737210 0.349720 0.111151 0.244947
H64   H     H_    0.711819 0.349365 0.238125 0.284950
H65   H     H_    0.731458 0.413125 0.198345 0.270138
H66   H     H_    0.789088 0.376735 0.201939 0.263793
H67   H     H_    0.853609 0.673570 0.039150 0.174245
H68   H     H_    0.652654 0.557504 0.395910 0.243166
H69   H     H_    0.770623 0.684656 0.113826 0.135875
H70   H     H_    0.884353 0.728995 0.106613 0.232043
H71   H     H_    0.801452 0.738297 0.180443 0.227896
H72   H     H_    0.788744 0.642985 0.203815 0.270152
H73   H     H_    0.849180 0.669325 0.211451 0.266144
H74   H     H_    0.872143 0.633588 0.129441 0.265775
H75   H     H_    0.177023 0.355311 0.906767 0.165435
H76   H     H_    0.227357 0.300363 0.872180 0.109882
H77   H     H_    0.266125 0.412613 0.878030 0.236646
H78   H     H_    0.319710 0.358510 0.840358 0.227410
H79   H     H_    0.104314 0.955646 0.535184 0.207660
H80   H     H_    0.293519 0.345456 0.747178 0.287575
H81   H     H_    0.329210 0.407172 0.739208 0.265161
H82   H     H_    0.244733 0.402901 0.783375 0.259079
H83   H     H_    0.666913 0.150777 0.940353 0.159697
H84   H     H_    0.748054 0.172349 0.879212 0.132100
H85   H     H_    0.638200 0.201343 0.868822 0.229228
H86   H     H_    0.717791 0.226700 0.810532 0.228883
H87   H     H_    0.761056 0.137989 0.765034 0.276413
H88   H     H_    0.701702 0.153780 0.749646 0.261118
H89   H     H_    0.681618 0.111535 0.824982 0.260325
H90   H     H_    0.195905 0.955406 0.415799 0.202346
H91   H     H_    0.320312 0.862929 0.041309 0.169055
H92   H     H_    0.266662 0.818696 0.115031 0.125298
H93   H     H_    0.243103 0.934365 0.108582 0.226098
H94   H     H_    0.186959 0.890309 0.180043 0.233587
H95   H     H_    0.263158 0.871766 0.212028 0.269502
H96   H     H_    0.245467 0.939751 0.218788 0.264458
H97   H     H_    0.320306 0.915405 0.139735 0.265782
H98   H     H_    0.265295 0.102019 0.096943 0.165700
H99   H     H_    0.207060 0.150932 0.128754 0.128708
H100  H     H_    0.329252 0.156550 0.124179 0.224830
H101  H     H_    0.151485 0.943843 0.377496 0.236566
H102  H     H_    0.269801 0.206316 0.160449 0.209191
H103  H     H_    0.188160 0.141917 0.254700 0.282347
H104  H     H_    0.252202 0.154173 0.263338 0.260690
H105  H     H_    0.251581 0.095327 0.220174 0.250669
H106  H     H_    0.646826 0.773881 0.885027 0.160696
H107  H     H_    0.725309 0.755462 0.848788 0.124681
H108  H     H_    0.657523 0.857702 0.932480 0.245478
H109  H     H_    0.739302 0.842898 0.893687 0.251707
H110  H     H_    0.764211 0.837612 0.766959 0.284550
H111  H     H_    0.731883 0.899641 0.809839 0.272149
H112  H     H_    0.689072 0.455524 0.436546 0.205205
H113  H     H_    0.166600 0.892038 0.419599 0.258786
H114  H     H_    0.682224 0.853446 0.805252 0.265283
H115  H     H_    0.377643 0.290494 0.333456 0.239301
H116  H     H_    0.448436 0.217380 0.276200 0.231450
H117  H     H_    0.371074 0.202513 0.298202 0.225712
H118  H     H_    0.393448 0.179594 0.357118 0.253931
H119  H     H_    0.619299 0.733050 0.678890 0.250600
H120  H     H_    0.567869 0.658549 0.676432 0.230108
H121  H     H_    0.651090 0.643431 0.629989 0.241365
H122  H     H_    0.620017 0.657629 0.576720 0.245044
H123  H     H_    0.620427 0.281592 0.670726 0.236182
H124  H     H_    0.861048 0.041393 0.529569 0.233521
H125  H     H_    0.554015 0.206562 0.722284 0.236182
H126  H     H_    0.632808 0.191646 0.695755 0.223055
H127  H     H_    0.608836 0.172221 0.637030 0.246684
H128  H     H_    0.378959 0.771171 0.321794 0.253253
H129  H     H_    0.449781 0.701496 0.289192 0.238421
H130  H     H_    0.371797 0.674529 0.329370 0.237186
H131  H     H_    0.403184 0.680096 0.383947 0.229836
H132  H     H_    0.901947 0.792204 0.373985 0.212834
H133  H     H_    0.911669 0.699005 0.335113 0.246067
H134  H     H_    0.945430 0.746204 0.261747 0.235774
H135  H     H_    0.938305 0.032806 0.390078 0.230899
H136  H     H_    0.868915 0.718849 0.297267 0.237639
H137  H     H_    0.118001 0.247997 0.681295 0.254261
H138  H     H_    0.060442 0.173840 0.691064 0.239236
H139  H     H_    0.142244 0.155124 0.647627 0.238452
H140  H     H_    0.112383 0.164909 0.592113 0.236351
H141  H     H_    0.119902 0.778187 0.672179 0.236625
H142  H     H_    0.054953 0.702079 0.719882 0.238167
H143  H     H_    0.134001 0.687648 0.692925 0.221853
H144  H     H_    0.110671 0.669721 0.633095 0.246908
H145  H     H_    0.879228 0.268091 0.321058 0.255114
H146  H     H_    0.971049 0.092901 0.395789 0.236844
H147  H     H_    0.949070 0.198182 0.290670 0.241673
H148  H     H_    0.870697 0.171541 0.332388 0.236659
H149  H     H_    0.902720 0.178500 0.386143 0.228340
H150  H     H_    0.244588 0.238591 0.350225 0.249291
H151  H     H_    0.263418 0.321948 0.297472 0.240976
H152  H     H_    0.285051 0.345180 0.356544 0.246440
H153  H     H_    0.203085 0.329149 0.395411 0.226472
H154  H     H_    0.772578 0.706796 0.627260 0.219942
H155  H     H_    0.706820 0.757207 0.737773 0.225574
H156  H     H_    0.675110 0.791457 0.695478 0.230683
H157  H     H_    0.889793 0.090221 0.425567 0.235549
H158  H     H_    0.756980 0.800002 0.661042 0.271289
H159  H     H_    0.753907 0.226570 0.649247 0.258501
H160  H     H_    0.728389 0.306541 0.715117 0.236619
H161  H     H_    0.712839 0.335385 0.653309 0.242359
H162  H     H_    0.793396 0.318088 0.619740 0.229273
H163  H     H_    0.235606 0.724192 0.359920 0.221540
H164  H     H_    0.318359 0.793072 0.265435 0.228878
H165  H     H_    0.287037 0.829271 0.349661 0.231826
H166  H     H_    0.234954 0.808481 0.325150 0.258827
H167  H     H_    0.739478 0.753376 0.352731 0.240566
H168  H     H_    0.888626 0.957742 0.476870 0.221464
H169  H     H_    0.766331 0.839013 0.305637 0.232313
H170  H     H_    0.788780 0.853443 0.366900 0.257772
H171  H     H_    0.705873 0.842867 0.404360 0.223490
H172  H     H_    0.268268 0.219206 0.635712 0.222710
H173  H     H_    0.207283 0.279390 0.735505 0.226451
H174  H     H_    0.177869 0.308539 0.687328 0.229542
H175  H     H_    0.260275 0.315161 0.651423 0.264384
H176  H     H_    0.253412 0.723700 0.648960 0.255709
H177  H     H_    0.227290 0.802806 0.717333 0.237265
H178  H     H_    0.213073 0.833191 0.655244 0.241819
H179  H     H_    0.816620 0.976056 0.611252 0.204577
H180  H     H_    0.293186 0.815150 0.622709 0.231253
H181  H     H_    0.734830 0.221763 0.361125 0.216540
H182  H     H_    0.817864 0.288378 0.263440 0.223727
H183  H     H_    0.790060 0.326150 0.345506 0.235858
H184  H     H_    0.735230 0.305962 0.324857 0.263868
H185  H     H_    0.352129 0.043964 0.569518 0.237706
H186  H     H_    0.355919 0.086411 0.470828 0.224252
H187  H     H_    0.385296 0.021148 0.444028 0.231268
H188  H     H_    0.440267 0.074672 0.410196 0.258023
H189  H     H_    0.649905 0.959296 0.427956 0.234408
H190  H     H_    0.855169 0.924394 0.625146 0.262747
H191  H     H_    0.621110 0.888559 0.528487 0.249893
H192  H     H_    0.559782 0.934868 0.588180 0.247333
H193  H     H_    0.642540 0.952980 0.535980 0.214408
H194  H     H_    0.621473 0.085124 0.436984 0.204810
H195  H     H_    0.659832 0.050008 0.516470 0.222680
H196  H     H_    0.575649 0.039163 0.583008 0.244477
H197  H     H_    0.605034 0.103319 0.548773 0.245779
H198  H     H_    0.401272 0.920006 0.489013 0.252824
H199  H     H_    0.304157 0.915888 0.611707 0.243275
H200  H     H_    0.335492 0.962307 0.642922 0.249960
H201  H     H_    0.810622 0.910737 0.588006 0.234980
H202  H     H_    0.369567 0.898000 0.615514 0.237217
H203  H     H_    0.849003 0.544143 0.587303 0.237098
H204  H     H_    0.842122 0.586565 0.496267 0.224582
H205  H     H_    0.871440 0.521566 0.466309 0.234509
H206  H     H_    0.925836 0.575582 0.427943 0.261774
H207  H     H_    0.122960 0.415518 0.420157 0.201844
H208  H     H_    0.121915 0.391493 0.519895 0.238496
H209  H     H_    0.086266 0.451837 0.566612 0.235203
H210  H     H_    0.170293 0.448453 0.493082 0.229259
H211  H     H_    0.123382 0.583646 0.422277 0.201136
H212  H     H_    0.104057 0.043425 0.535859 0.207973
H213  H     H_    0.168315 0.549774 0.497417 0.230081
H214  H     H_    0.083951 0.546692 0.569365 0.234482
H215  H     H_    0.120064 0.607014 0.523790 0.234683
H216  H     H_    0.892456 0.417463 0.510378 0.248103
H217  H     H_    0.802040 0.417333 0.637444 0.242772
H218  H     H_    0.838295 0.466992 0.657800 0.249810
H219  H     H_    0.872306 0.402645 0.633144 0.240593
H220  H     H_    0.650522 0.441365 0.391826 0.241543
H221  H     H_    0.195885 0.044839 0.416725 0.203088
H222  H     H_    0.165743 0.108279 0.422277 0.257971
H223  H     H_    0.151631 0.057078 0.378368 0.238906
H224  H     H_    0.589955 0.264595 0.107270 0.161548
H225  H     H_    0.596694 0.295888 0.029646 0.190375
H226  H     H_    0.546065 0.344257 0.181437 0.226963
H227  H     H_    0.556367 0.378229 0.104215 0.232955
H228  H     H_    0.470740 0.282795 0.180622 0.270136
H229  H     H_    0.479960 0.319215 0.105364 0.271929
H230  H     H_    0.444163 0.348956 0.195015 0.271569
H231  H     H_    0.661451 0.391400 0.440006 0.257152
H232  H     H_    0.415622 0.727570 0.949853 0.146376
H233  H     H_    0.364713 0.767031 0.032906 0.151043
H234  H     H_    0.486936 0.802753 0.885903 0.235412
H235  H     H_    0.437092 0.841426 0.968235 0.217763
H236  H     H_    0.458547 0.780171 0.039340 0.269124
H237  H     H_    0.530472 0.808078 0.960679 0.273084
H238  H     H_    0.509828 0.742588 0.955489 0.264379
H239  H     H_    0.411657 0.198606 0.950430 0.201336
H240  H     H_    0.369700 0.239354 0.032938 0.128312
H241  H     H_    0.500391 0.260840 0.886983 0.234765
H242  H     H_    0.369103 0.541308 0.510604 0.233578
H243  H     H_    0.458300 0.303811 0.965679 0.220895
H244  H     H_    0.459615 0.235858 0.045409 0.265411
H245  H     H_    0.538492 0.252917 0.967218 0.273853
H246  H     H_    0.503273 0.193338 0.965590 0.268599
H247  H     H_    0.650098 0.605658 0.015546 0.124360
H248  H     H_    0.677466 0.660542 0.956867 0.142299
H249  H     H_    0.545909 0.641896 0.105456 0.202560
H250  H     H_    0.568784 0.704238 0.062591 0.268436
H251  H     H_    0.585442 0.667714 0.947883 0.271819
H252  H     H_    0.505723 0.656483 0.028989 0.263781
H253  H     H_    0.456213 0.532923 0.373077 0.232482
H254  H     H_    0.562978 0.604454 0.990474 0.259733
H255  H     H_    0.131966 0.658093 0.994962 0.179380
H256  H     H_    0.145344 0.721565 0.954086 0.123588
H257  H     H_    0.018099 0.680377 0.089448 0.232241
H258  H     H_    0.031397 0.743835 0.049742 0.237740
H259  H     H_    0.062986 0.704712 0.929357 0.267601
H260  H     H_    0.984387 0.684677 0.005128 0.275177
H261  H     H_    0.050461 0.640808 0.968619 0.264911
H262  H     H_    0.857677 0.117646 0.995856 0.121898
H263  H     H_    0.820314 0.172363 0.055377 0.137297
H264  H     H_    0.484839 0.593313 0.384637 0.242490
H265  H     H_    0.961341 0.158283 0.922821 0.210399
H266  H     H_    0.929435 0.218797 0.970114 0.269678
H267  H     H_    0.897390 0.179037 0.089456 0.271278
H268  H     H_    0.980987 0.169030 0.018772 0.264402
H269  H     H_    0.926148 0.116777 0.044261 0.262721
H270  H     H_    0.893606 0.820011 0.956514 0.197198
H271  H     H_    0.821167 0.849021 0.036049 0.143997
H272  H     H_    0.918789 0.902179 0.887204 0.235633
H273  H     H_    0.846336 0.930755 0.964564 0.218758
H274  H     H_    0.884527 0.918949 0.044633 0.264953
H275  H     H_    0.407133 0.589951 0.403600 0.234546
H276  H     H_    0.939382 0.956759 0.963277 0.266680
H277  H     H_    0.957328 0.890030 0.967104 0.270028
H278  H     H_    0.094216 0.193235 0.007089 0.131265
H279  H     H_    0.159270 0.234009 0.943815 0.132767
H280  H     H_    0.020424 0.264458 0.065516 0.222289
H281  H     H_    0.083173 0.311382 0.020239 0.255025
H282  H     H_    0.108565 0.287174 0.897300 0.254573
H283  H     H_    0.025555 0.303787 0.960938 0.280597
H284  H     H_    0.049212 0.236987 0.939317 0.270440
H285  H     H_    0.173426 0.838554 0.888127 0.158815
H286  H     H_    0.401248 0.457648 0.457144 0.223067
H287  H     H_    0.229227 0.788098 0.857791 0.112691
H288  H     H_    0.241827 0.901776 0.893898 0.234424
H289  H     H_    0.302016 0.853612 0.864958 0.246390
H290  H     H_    0.312894 0.842278 0.745123 0.262430
H291  H     H_    0.328512 0.907504 0.758644 0.275905
H292  H     H_    0.253585 0.892084 0.774404 0.266593
H293  H     H_    0.757205 0.100385 0.035306 0.141453
H294  H     H_    0.758266 0.119468 0.955908 0.143611
H295  H     H_    0.654139 0.058214 0.092921 0.234626
H296  H     H_    0.649017 0.079656 0.019412 0.218974
N1    N     N_2   0.589940 0.444845 0.510013 -0.300905
N2    N     N_2   0.629721 0.721685 0.628444 -0.283051
N3    N     N_2   0.626752 0.251850 0.636065 -0.285649
N4    N     N_2   0.373383 0.749778 0.364297 -0.269194
N5    N     N_2   0.870823 0.773357 0.366849 -0.281416
N6    N     N_2   0.127394 0.232680 0.633017 -0.277871
N7    N     N_2   0.126790 0.749324 0.636101 -0.285277
N8    N     N_2   0.873394 0.247529 0.364313 -0.268292
N9    N     N_2   0.265249 0.265669 0.363894 -0.305496
N10   N     N_2   0.736168 0.728500 0.633867 -0.299868
N11   N     N_2   0.733501 0.255735 0.638226 -0.301255
N12   N     N_2   0.414463 0.555616 0.483829 -0.284633
N13   N     N_2   0.265450 0.748942 0.362445 -0.293470
N14   N     N_2   0.763375 0.776183 0.366957 -0.289079
N15   N     N_2   0.234019 0.241140 0.637737 -0.298594
N16   N     N_2   0.233344 0.753493 0.638469 -0.300384
N17   N     N_2   0.765324 0.246431 0.362547 -0.295775
N18   N     N_2   0.395356 0.055493 0.522930 -0.294920
N19   N     N_2   0.606925 0.944944 0.471878 -0.306608
N20   N     N_2   0.607669 0.053739 0.471690 -0.303290
N21   N     N_2   0.392225 0.947324 0.527828 -0.302830
N22   N     N_2   0.890186 0.555639 0.538073 -0.302121
N23   N     N_2   0.406467 0.445537 0.497558 -0.298384
N24   N     N_2   0.111888 0.445539 0.456447 -0.279071
N25   N     N_2   0.111725 0.553462 0.458347 -0.276260
N26   N     N_2   0.886983 0.447025 0.544757 -0.302114
N27   N     N_2   0.587916 0.554905 0.513795 -0.307937
N28   N     N_2   0.097440 0.944937 0.495592 -0.293691
N29   N     N_2   0.906678 0.055539 0.497854 -0.277962
N30   N     N_2   0.899016 0.945825 0.513012 -0.295539
N31   N     N_2   0.097219 0.054684 0.496444 -0.297343
N32   N     N_2   0.372781 0.259322 0.365217 -0.290536
O1    O     O_3   0.500000 0.250030 0.500000 -0.481034
O2    O     O_R   0.112550 0.219620 0.335580 -0.656347
O3    O     O_R   0.112550 0.780380 0.335580 -0.652125
O4    O     O_R   0.887450 0.219620 0.664420 -0.643818
O5    O     O_R   0.594260 0.219670 0.543090 -0.635559
O6    O     O_R   0.405740 0.780330 0.456910 -0.622002
O7    O     O_R   0.405740 0.219670 0.456910 -0.624154
O8    O     O_R   0.594260 0.780330 0.543090 -0.629743
O9    O     O_R   0.094260 0.719670 0.543090 -0.635139
O10   O     O_R   0.905740 0.280330 0.456910 -0.621290
O11   O     O_R   0.905740 0.719670 0.456910 -0.640964
O12   O     O_3   0.500000 0.749970 0.500000 -0.482384
O13   O     O_R   0.094260 0.280330 0.543090 -0.629687
O14   O     O_R   0.508800 0.134220 0.543090 -0.643326
O15   O     O_R   0.491200 0.865780 0.456910 -0.661759
O16   O     O_R   0.491200 0.134220 0.456910 -0.637259
O17   O     O_R   0.508800 0.865780 0.543090 -0.633485
O18   O     O_R   0.008800 0.634220 0.543090 -0.644389
O19   O     O_R   0.991200 0.365780 0.456910 -0.655376
O20   O     O_R   0.991200 0.634220 0.456910 -0.636057
O21   O     O_R   0.008800 0.365780 0.543090 -0.637763
O22   O     O_R   0.448100 0.365830 0.543110 -0.635585
O23   O     O_3   1.000000 0.750030 0.500000 -0.480902
O24   O     O_R   0.551900 0.634170 0.456890 -0.637410
O25   O     O_R   0.551900 0.365830 0.456890 -0.633997
O26   O     O_R   0.448100 0.634170 0.543110 -0.630353
O27   O     O_R   0.948100 0.865830 0.543110 -0.632333
O28   O     O_R   0.051900 0.134170 0.456890 -0.638242
O29   O     O_R   0.051900 0.865830 0.456890 -0.632155
O30   O     O_R   0.948100 0.134170 0.543110 -0.624611
O31   O     O_R   0.637370 0.280400 0.456880 -0.651365
O32   O     O_R   0.362630 0.719600 0.543120 -0.655434
O33   O     O_R   0.362630 0.280400 0.543120 -0.649701
O34   O     O_3   1.000000 0.249970 0.500000 -0.482651
O35   O     O_R   0.637370 0.719600 0.456880 -0.671502
O36   O     O_R   0.137370 0.780400 0.456880 -0.649263
O37   O     O_R   0.862630 0.219600 0.543120 -0.655159
O38   O     O_R   0.862630 0.780400 0.543120 -0.641688
O39   O     O_R   0.137370 0.219600 0.456880 -0.668865
O40   O     O_R   0.448170 0.219660 0.664410 -0.622954
O41   O     O_R   0.551830 0.780340 0.335590 -0.627727
O42   O     O_R   0.551830 0.219660 0.335590 -0.628904
O43   O     O_R   0.448170 0.780340 0.664410 -0.622676
O44   O     O_R   0.948170 0.719660 0.664410 -0.623783
O45   O     O_R   0.387450 0.280380 0.664420 -0.656479
O46   O     O_R   0.051830 0.280340 0.335590 -0.617683
O47   O     O_R   0.051830 0.719660 0.335590 -0.632000
O48   O     O_R   0.948170 0.280340 0.664410 -0.629031
O49   O     O_3   0.658610 0.323180 0.052170 -0.658017
O50   O     O_3   0.367328 0.785888 0.939397 -0.624402
O51   O     O_3   0.378164 0.267763 0.939272 -0.640272
O52   O     O_3   0.664716 0.668203 0.060293 -0.650494
O53   O     O_3   0.124956 0.717991 0.060877 -0.606581
O54   O     O_3   0.849914 0.179214 0.943568 -0.637079
O55   O     O_3   0.823766 0.836170 0.941281 -0.647959
O56   O     O_R   0.612550 0.719620 0.335580 -0.645386
O57   O     O_3   0.125836 0.236286 0.057314 -0.622278
O58   O     O_3   0.184966 0.814856 0.966986 -0.600353
O59   O     O_3   0.691597 0.156127 0.057946 -0.623090
O60   O     O_3   0.671533 0.838145 0.053890 -0.613312
O61   O     O_3   0.243112 0.161708 0.937532 -0.629997
O62   O     O_3   0.806743 0.344223 0.947671 -0.618094
O63   O     O_3   0.294184 0.685827 0.059206 -0.646533
O64   O     O_3   0.259273 0.340813 0.057227 -0.587322
O65   O     O_3   0.824170 0.665699 0.940739 -0.627531
O66   O     O_3   0.242130 0.647128 0.964158 -0.646300
O67   O     O_R   0.612550 0.280380 0.335580 -0.659721
O68   O     O_3   0.832604 0.276638 0.037094 -0.624690
O69   O     O_3   0.823662 0.748597 0.047561 -0.659610
O70   O     O_3   0.207402 0.335425 0.970214 -0.592461
O71   O     O_3   0.678199 0.228063 0.950387 -0.652482
O72   O     O_3   0.238664 0.847191 0.048911 -0.601147
O73   O     O_3   0.298741 0.165608 0.030711 -0.652422
O74   O     O_3   0.660800 0.758659 0.964418 -0.627266
O75   O     O_R   0.387450 0.719620 0.664420 -0.651153
O76   O     O_R   0.887450 0.780380 0.664420 -0.652125
Zn1   Zn    Zn3+2 0.574170 0.293410 0.438410 0.941376
Zn2   Zn    Zn3+2 0.487410 0.793350 0.438420 0.968110
Zn3   Zn    Zn3+2 0.487410 0.206650 0.438420 0.966948
Zn4   Zn    Zn3+2 0.512590 0.793350 0.561580 0.969040
Zn5   Zn    Zn3+2 0.012590 0.706650 0.561580 0.962581
Zn6   Zn    Zn3+2 0.987410 0.293350 0.438420 0.972885
Zn7   Zn    Zn3+2 0.987410 0.706650 0.438420 0.960061
Zn8   Zn    Zn3+2 0.012590 0.293350 0.561580 0.965002
Zn9   Zn    Zn3+2 0.425830 0.706590 0.561590 0.953577
Zn10  Zn    Zn3+2 0.425830 0.293410 0.561590 0.952389
Zn11  Zn    Zn3+2 0.574170 0.706590 0.438410 0.950770
Zn12  Zn    Zn3+2 0.074170 0.793410 0.438410 0.944487
Zn13  Zn    Zn3+2 0.925830 0.206590 0.561590 0.964440
Zn14  Zn    Zn3+2 0.925830 0.793410 0.561590 0.953656
Zn15  Zn    Zn3+2 0.074170 0.206590 0.438410 0.936763
Zn16  Zn    Zn3+2 0.512590 0.206650 0.561580 0.962238

loop_
_geom_bond_atom_site_label_1
_geom_bond_atom_site_label_2
_ccdc_geom_bond_type
C5    O63   S    
C181  O46   A    
C177  C191  S    
C63   H291  S    
C108  H100  S    
O11   Zn7   S    
C192  O47   A    
C61   O58   S    
O10   Zn6   S    
H145  N8    S    
C55   C56   S    
C76   H26   S    
C13   C16   S    
C185  C190  A    
C37   H230  S    
C127  N13   S    
C43   H244  S    
C112  O56   A    
C33   N31   S    
C139  H214  S    
C22   C203  S    
C118  N4    S    
C34   H225  S    
C35   C124  S    
C136  H202  S    
H154  N10   S    
C125  H158  S    
C31   H157  S    
C49   H257  S    
C7    C24   S    
C139  N25   S    
C108  C109  S    
O6    Zn2   S    
C2    C90   S    
C110  C111  S    
C128  H170  S    
C18   C159  S    
C157  C169  A    
C64   O59   S    
C162  C171  A    
C127  H165  S    
C25   C181  S    
C66   H3    S    
O46   Zn6   S    
C136  H199  S    
C56   H277  S    
C106  H96   S    
C178  C188  A    
C208  O30   A    
C59   C60   S    
C162  N10   S    
H172  N15   S    
C58   O57   S    
C137  N22   S    
C104  C105  S    
C158  C167  A    
C129  N15   S    
C10   C101  S    
C1    O45   A    
C124  C147  S    
C4    C214  S    
C51   C52   S    
C83   H41   S    
C114  H111  S    
C132  H188  S    
C69   H8    S    
C74   H21   S    
C110  H107  S    
C131  H182  S    
H286  N23   S    
C2    O66   S    
C89   H56   S    
C27   N12   S    
C113  C146  S    
O3    Zn12  S    
C215  C216  A    
C86   H49   S    
C13   O70   S    
C39   H235  S    
C28   H13   S    
C196  O36   A    
C44   H247  S    
C45   H249  S    
C27   H264  S    
O23   Zn7   S    
C5    C124  S    
C112  O41   A    
C160  C172  A    
C164  C173  A    
C120  H140  S    
C163  C172  A    
C204  O19   A    
C178  C182  A    
C181  O2    A    
C4    C135  S    
C41   O51   S    
C54   H271  S    
C108  H102  S    
C104  H92   S    
C20   C146  T    
C194  O7    A    
C91   H61   S    
C129  H173  S    
C76   H28   S    
C138  N24   S    
C196  O9    A    
C91   C92   S    
C207  O27   A    
C121  N7    S    
C127  H164  S    
C137  H204  S    
C204  O21   A    
C211  N23   S    
C116  H121  S    
O1    Zn10  S    
C72   C73   S    
C9    C90   S    
O1    Zn16  S    
C10   C68   S    
C55   H272  S    
O14   Zn16  S    
C53   H267  S    
C122  N8    S    
O32   Zn9   S    
C102  H85   S    
C86   H51   S    
C87   H53   S    
C107  H99   S    
C34   O49   S    
C215  C220  A    
C60   H282  S    
C97   O70   S    
C138  H209  S    
C65   H295  S    
C192  O3    A    
C103  H87   S    
H1    N1    S    
C99   H81   S    
C70   H11   S    
C160  C168  A    
C69   C70   S    
C98   H78   S    
C88   H55   S    
C214  O68   S    
C51   O54   S    
C130  H180  S    
C203  O4    A    
C88   C89   S    
C98   C99   S    
C154  C177  A    
C213  N28   S    
C64   H293  S    
C80   H33   S    
O67   Zn1   S    
H150  N9    S    
C168  C177  A    
C81   O64   S    
O12   Zn2   S    
C155  C176  A    
C128  H169  S    
C81   H37   S    
C118  H131  S    
H167  N14   S    
O48   Zn8   S    
H203  N22   S    
C109  H105  S    
C97   C98   S    
C85   C86   S    
C26   H231  S    
C101  C145  S    
C89   H58   S    
C212  N27   S    
C161  N9    S    
C84   H45   S    
C78   H31   S    
C85   H48   S    
C36   C37   S    
C138  H208  S    
C38   C39   S    
C78   C80   S    
C164  N13   S    
C14   C135  S    
C188  C200  S    
C43   H245  S    
C166  N15   S    
C139  H215  S    
C184  C185  A    
C185  N25   S    
O23   Zn14  S    
C128  N14   S    
C15   C224  S    
C69   H9    S    
C109  H104  S    
C55   H273  S    
C40   H237  S    
C50   H260  S    
C25   C151  T    
C79   C143  S    
C73   H18   S    
C115  H118  S    
C4    O62   S    
H242  N12   S    
C107  C108  S    
C7    O65   S    
C68   C142  S    
O2    Zn15  S    
C129  H175  S    
C6    O64   S    
C176  C193  S    
C4    C8    S    
C117  H125  S    
C152  C161  A    
C44   O52   S    
C68   O73   S    
C96   H73   S    
C161  C169  A    
C3    C101  S    
C30   H113  S    
C71   O61   S    
C36   H227  S    
O9    Zn5   S    
C137  H206  S    
C20   C112  S    
C46   O71   S    
C182  N21   S    
C152  C175  A    
O45   Zn10  S    
C97   H76   S    
C92   H63   S    
C11   C113  S    
C170  O76   A    
C134  H196  S    
C141  C150  S    
H132  N5    S    
C33   H222  S    
C109  H103  S    
C48   O53   S    
C121  H142  S    
C209  C219  A    
C95   H70   S    
C14   C223  S    
C91   H60   S    
C17   C148  S    
C77   H29   S    
C183  C186  A    
C39   C40   S    
C60   H284  S    
C190  C202  S    
C165  C174  A    
C167  N16   S    
C42   H243  S    
C31   N29   S    
C96   H74   S    
O20   Zn7   S    
C132  N18   S    
C5    C9    S    
C130  H178  S    
H115  N32   S    
C131  H183  S    
C125  N10   S    
O39   Zn15  S    
C173  C196  S    
C52   H266  S    
H189  N19   S    
C209  N1    S    
C29   H68   S    
C12   C222  S    
C67   O60   S    
O5    Zn16  S    
C140  H217  S    
O12   Zn4   S    
C15   C24   S    
C128  H171  S    
C10   O51   S    
C207  C221  S    
C116  N2    S    
C118  H129  S    
C82   H40   S    
O16   Zn3   S    
C168  N17   S    
C2    C5    S    
C119  H133  S    
H216  N26   S    
C7    C141  S    
C132  H187  S    
C120  N6    S    
C52   C53   S    
C50   H261  S    
C33   H221  S    
C47   H252  S    
C54   C55   S    
C58   H279  S    
C122  H148  S    
H185  N18   S    
C94   H67   S    
H159  N11   S    
O13   Zn8   S    
O12   Zn9   S    
C79   C223  S    
C59   H280  S    
C8    O49   S    
C37   H229  S    
C198  O38   A    
C211  C219  A    
C29   N27   S    
C94   O69   S    
C197  O37   A    
C155  N4    S    
C103  H89   S    
O26   Zn9   S    
C33   H223  S    
C116  H120  S    
C199  O39   A    
O38   Zn14  S    
C71   C72   S    
H141  N7    S    
C11   C57   S    
C51   H262  S    
C73   H20   S    
C115  H116  S    
C122  H149  S    
C136  N21   S    
H211  N25   S    
C32   H190  S    
C102  C103  S    
C208  O28   A    
C8    C46   S    
C117  H127  S    
C67   H7    S    
C37   H228  S    
C49   C50   S    
O34   Zn13  S    
C66   H4    S    
O25   Zn1   S    
C130  H177  S    
C156  N5    S    
C136  H200  S    
C126  H161  S    
C133  N19   S    
C81   H38   S    
C47   H251  S    
C105  H94   S    
O15   Zn2   S    
C125  H156  S    
C134  N20   S    
C99   H80   S    
C31   H135  S    
O34   Zn8   S    
C87   C88   S    
H128  N4    S    
O40   Zn16  S    
C105  H93   S    
C193  O6    A    
C121  H144  S    
C41   C42   S    
C3    C68   S    
H35   N27   S    
C195  O8    A    
C148  O67   A    
O8    Zn4   S    
C77   C78   S    
C217  C220  A    
C66   H5    S    
C166  C175  A    
C117  N3    S    
C42   H241  S    
O21   Zn8   S    
C205  O22   A    
O42   Zn3   S    
C159  O75   A    
C47   H254  S    
C171  C198  S    
C74   H22   S    
C16   O57   S    
C84   H44   S    
C179  C187  A    
O33   Zn10  S    
C186  N26   S    
C30   H90   S    
C209  C212  A    
C14   C214  S    
C206  O26   A    
C205  O25   A    
C216  C221  A    
C61   H285  S    
C180  C188  A    
C46   C135  S    
C15   C141  S    
C100  H83   S    
C213  C221  A    
C11   O52   S    
H207  N24   S    
C79   C214  S    
C205  C219  S    
C8    C79   S    
C48   H255  S    
C32   N30   S    
C6    C142  S    
C110  O74   S    
O23   Zn12  S    
C110  H106  S    
C169  C199  S    
C133  H192  S    
C3    O61   S    
C34   H224  S    
C22   C149  T    
C174  C195  S    
C194  O33   A    
C63   H292  S    
C71   H14   S    
C215  N29   S    
H123  N3    S    
H79   N28   S    
C91   O68   S    
C27   H253  S    
O12   Zn11  S    
C202  O20   A    
C28   N23   S    
C189  C204  S    
C130  N16   S    
C36   H226  S    
C1    C19   S    
C195  O35   A    
C24   O69   S    
C116  H122  S    
C206  O24   A    
C84   C85   S    
C92   H62   S    
C35   C222  S    
O22   Zn10  S    
C49   H258  S    
O41   Zn2   S    
C38   H233  S    
O30   Zn13  S    
C46   C223  S    
C123  N9    S    
O56   Zn11  S    
C95   H71   S    
O43   Zn4   S    
C9    O50   S    
O28   Zn15  S    
C126  N11   S    
C62   C63   S    
C207  O29   A    
C193  O32   A    
C199  O13   A    
C158  C173  A    
C210  N12   S    
C53   H268  S    
C127  H166  S    
C165  N14   S    
C119  N5    S    
C70   H12   S    
C179  N19   S    
C54   O55   S    
H168  N30   S    
C106  H95   S    
C93   H66   S    
C48   C49   S    
O34   Zn6   S    
C23   C150  T    
C106  H97   S    
O36   Zn12  S    
C64   H294  S    
C58   C59   S    
O27   Zn14  S    
C180  N20   S    
C42   C43   S    
C183  N22   S    
C183  C190  A    
C21   C147  T    
C203  O48   A    
C75   H23   S    
C44   C45   S    
C94   H69   S    
C104  O72   S    
H137  N6    S    
C38   O50   S    
O18   Zn5   S    
C26   H220  S    
C83   H42   S    
C114  H110  S    
C21   C192  S    
C139  H213  S    
C6    C10   S    
C132  H186  S    
C28   H24   S    
C57   O74   S    
H194  N20   S    
C105  C106  S    
C187  C201  S    
C31   H146  S    
C93   H65   S    
C153  C162  A    
C17   C143  T    
C26   N1    S    
C78   H32   S    
C64   C65   S    
C85   H47   S    
C186  C189  A    
C18   C144  T    
O4    Zn13  S    
C61   H287  S    
C45   H250  S    
C87   O66   S    
C156  C165  A    
C201  O15   A    
C153  C174  A    
C92   C93   S    
C111  C114  S    
C120  H139  S    
C94   C95   S    
C223  O59   S    
C160  N8    S    
C222  O58   S    
H119  N2    S    
C51   H263  S    
C179  C180  A    
O76   Zn14  S    
C115  H117  S    
C54   H270  S    
C29   H57   S    
C82   C83   S    
C63   H290  S    
C53   H269  S    
C9    C35   S    
C104  H91   S    
C129  H174  S    
C217  N31   S    
C75   H25   S    
C76   H27   S    
C12   C124  S    
C158  N7    S    
C35   O72   S    
C71   H15   S    
C202  O18   A    
C57   C224  S    
C102  H86   S    
C41   H239  S    
O75   Zn9   S    
C137  H205  S    
C138  H210  S    
C111  H109  S    
C95   C96   S    
C97   H75   S    
C75   C76   S    
C2    C12   S    
C114  H114  S    
C81   C82   S    
C50   H259  S    
C134  H197  S    
C206  C218  S    
C7    C11   S    
C62   H289  S    
C19   C145  T    
C29   H46   S    
C86   H50   S    
C90   C222  S    
C216  N30   S    
C15   O55   S    
C197  O10   A    
C38   H232  S    
C198  O11   A    
C65   H296  S    
C103  H88   S    
C131  N17   S    
C30   H101  S    
C170  O44   A    
C99   H82   S    
C70   H10   S    
C45   C47   S    
C98   H77   S    
C56   H274  S    
C107  O73   S    
C126  H160  S    
C122  H147  S    
C67   H6    S    
C27   H275  S    
C72   H16   S    
C123  H153  S    
C80   H36   S    
C175  C194  S    
C34   C36   S    
C182  C187  A    
C140  H218  S    
O19   Zn6   S    
O7    Zn3   S    
C153  N2    S    
C200  O14   A    
C24   C113  S    
C118  H130  S    
C61   C62   S    
C119  H136  S    
C178  N18   S    
C157  N6    S    
O23   Zn5   S    
C191  O31   A    
C40   H238  S    
C140  H219  S    
C32   H201  S    
C89   H59   S    
C74   C75   S    
O31   Zn1   S    
C140  N26   S    
C154  C163  A    
O29   Zn12  S    
C39   H234  S    
C28   H2    S    
C57   C141  S    
C213  C217  A    
O37   Zn13  S    
O44   Zn5   S    
C135  C149  S    
C43   H246  S    
H124  N29   S    
O1    Zn3   S    
C133  H193  S    
C67   C69   S    
C111  H108  S    
C16   C142  S    
C96   H72   S    
C113  C224  S    
C208  C220  S    
C73   H19   S    
O24   Zn11  S    
C100  C102  S    
C84   O65   S    
C159  O43   A    
C172  C197  S    
H176  N16   S    
C32   H179  S    
C163  N11   S    
C117  H126  S    
C74   O62   S    
O17   Zn4   S    
C154  N3    S    
H212  N31   S    
C115  N32   S    
C12   O53   S    
C77   O63   S    
C87   H52   S    
C126  H162  S    
C13   C101  S    
C224  O60   S    
C125  H155  S    
C134  H195  S    
H181  N17   S    
C152  N32   S    
C121  H143  S    
C72   H17   S    
C107  H98   S    
C77   H30   S    
C40   H236  S    
H198  N21   S    
C93   H64   S    
C157  C166  A    
C59   H281  S    
C60   H283  S    
C201  O17   A    
C148  O42   A    
C155  C164  A    
C142  C151  S    
C156  C171  A    
C210  C218  A    
C30   N28   S    
C120  H138  S    
C83   H43   S    
C56   H276  S    
C184  N24   S    
C62   H288  S    
C6    C13   S    
O47   Zn7   S    
C131  H184  S    
C23   C170  S    
C212  C218  A    
C41   H240  S    
C14   O54   S    
C52   H265  S    
C191  O5    A    
O35   Zn11  S    
C44   H248  S    
C210  C211  A    
C123  H152  S    
C26   H112  S    
H163  N13   S    
C3    C16   S    
C100  H84   S    
C58   H278  S    
C80   H34   S    
C90   C144  S    
C200  O16   A    
C100  O71   S    
C88   H54   S    
C65   C66   S    
C82   H39   S    
C1    O40   A    
C184  C189  A    
C123  H151  S    
C48   H256  S    
C119  H134  S    
O1    Zn1   S    
O34   Zn15  S    
C167  C176  A    
C133  H191  S    
