data_mof_unit_42141.cif
_audit_creation_date              2012-12-10T17:17:31-0500
_audit_creation_method            fapswitch 2.2
_symmetry_space_group_name_H-M    P1
_symmetry_Int_Tables_number       1
_space_group_crystal_system       triclinic
_cell_length_a                    10.273935
_cell_length_b                    10.534533
_cell_length_c                    12.361467
_cell_angle_alpha                 91.305051
_cell_angle_beta                  109.233304
_cell_angle_gamma                 96.182107
_cell_volume                      1253.45428744

loop_
_atom_site_label
_atom_site_type_symbol
_atom_type_description
_atom_site_fract_x
_atom_site_fract_y
_atom_site_fract_z
_atom_type_partial_charge
C1    C     C_R   0.054473 0.734580 0.497950 0.956109
C2    C     C_R   0.211405 0.542827 0.833361 -0.104702
C3    C     C_2   0.093276 0.872776 0.512196 -0.034760
C4    C     C_R   0.133456 0.512233 0.713233 0.838373
C5    C     C_2   0.049548 0.940510 0.585576 0.464538
C6    C     C_2   0.939891 0.134341 0.542941 -0.348556
C7    C     C_2   0.056746 0.078748 0.581254 -0.291267
C8    C     C_2   0.428532 0.527853 0.487292 0.228609
C9    C     C_2   0.566583 0.497955 0.476307 0.524866
C10   C     C_R   0.952176 0.266618 0.513358 0.940816
C11   C     C_R   0.866708 0.490187 0.285886 0.981582
C12   C     C_R   0.443117 0.549696 0.972482 0.127965
C13   C     C_R   0.713664 0.329730 0.994811 0.431668
C14   C     C_R   0.791273 0.477573 0.162225 -0.327532
C15   C     C_R   0.193708 0.658391 0.881675 -0.166079
C16   C     C_R   0.304329 0.725754 0.967436 -0.174197
C17   C     C_R   0.430492 0.676114 0.006907 -0.194288
C18   C     C_3   0.170183 0.936173 0.438530 -0.966756
C19   C     C_3   0.422842 0.662792 0.526767 -0.924161
C20   C     C_R   0.331171 0.483340 0.883361 0.093785
C21   C     C_R   0.566047 0.490361 0.018114 -0.081926
C22   C     C_R   0.583644 0.377949 0.960281 -0.096675
C23   C     C_R   0.470937 0.316185 0.870306 -0.157971
C24   C     C_R   0.344380 0.363431 0.838255 -0.169571
C25   C     C_R   0.668102 0.534219 0.123586 0.336672
C26   C     C_R   0.820752 0.386740 0.090511 0.330649
H1    H     H_    0.838503 0.081872 0.530525 0.180620
H2    H     H_    0.966298 0.944783 0.705728 0.344400
H3    H     H_    0.189507 0.865037 0.379720 0.255200
H4    H     H_    0.107922 0.005976 0.384895 0.273975
H5    H     H_    0.271752 0.986455 0.494014 0.264641
H6    H     H_    0.476017 0.413637 0.325418 0.339382
H7    H     H_    0.523915 0.723804 0.550555 0.206778
H8    H     H_    0.353990 0.709568 0.454256 0.263682
H9    H     H_    0.387590 0.663038 0.602458 0.279094
H10   H     H_    0.234800 0.278790 0.403337 0.379135
H11   H     H_    0.663032 0.158416 0.923903 0.319492
H12   H     H_    0.687533 0.605644 0.616896 0.130546
H13   H     H_    0.551204 0.591534 0.203677 0.341617
H14   H     H_    0.477217 0.229720 0.824546 0.151809
H15   H     H_    0.101527 0.704634 0.843006 0.188080
H16   H     H_    0.517671 0.740752 0.060511 0.205466
H17   H     H_    0.295639 0.820942 0.997129 0.163128
H18   H     H_    0.258012 0.308326 0.772782 0.142379
H19   H     H_    0.158132 0.131524 0.593852 0.185641
H20   H     H_    0.020263 0.413129 0.148996 0.347239
N1    N     N_2   0.313640 0.446500 0.454900 0.059693
N2    N     N_2   0.686360 0.553430 0.545150 -0.204334
O1    O     O_R   0.936910 0.692950 0.509080 -0.552374
O2    O     O_3   0.988833 0.879086 0.658152 -0.778304
O3    O     O_3   0.567054 0.416964 0.387253 -0.693651
O4    O     O_3   0.329017 0.326270 0.427495 -0.698150
O5    O     O_3   0.740648 0.227688 0.937010 -0.704835
O6    O     O_3   0.643565 0.621039 0.197794 -0.753021
O7    O     O_R   0.138320 0.658600 0.480130 -0.637233
O8    O     O_R   0.002900 0.525670 0.675280 -0.600864
O9    O     O_R   0.204310 0.491320 0.646330 -0.610973
O10   O     O_R   0.861680 0.341400 0.519870 -0.565093
O11   O     O_R   0.063090 0.307050 0.490920 -0.619725
O12   O     O_R   0.795690 0.508680 0.353670 -0.506638
O13   O     O_R   0.997100 0.474330 0.324720 -0.629489
O14   O     O_3   0.947012 0.339652 0.118959 -0.692126
Zn1   Zn    Zn3+2 0.865520 0.522940 0.519330 1.044900
Zn2   Zn    Zn3+2 0.134480 0.477060 0.480670 0.962720

loop_
_geom_bond_atom_site_label_1
_geom_bond_atom_site_label_2
_ccdc_geom_bond_type
C12   C17   A    
C6    C10   S    
O13   Zn2   S    
C2    C4    S    
C23   C24   A    
H6    O3    S    
C6    C7    D    
O1    Zn1   S    
H12   N2    S    
C6    H1    S    
C9    O3    S    
C3    C5    D    
H11   O5    S    
O7    Zn2   S    
C12   C20   A    
C10   O11   A    
C26   O14   S    
C8    N1    D    
C18   H3    S    
C19   H9    S    
C21   C22   A    
C14   C26   A    
C2    C15   A    
C16   H17   S    
O11   Zn2   S    
N1    O4    S    
C1    O1    A    
H20   O14   S    
O12   Zn1   S    
C18   H4    S    
C7    H19   S    
C10   O10   A    
C13   C22   A    
C13   O5    S    
C14   C25   A    
C1    O7    A    
C24   H18   S    
C11   C14   S    
C5    O2    S    
O8    Zn1   S    
H13   O6    S    
C16   C17   A    
C13   C26   A    
C2    C20   A    
C15   C16   A    
C8    C19   S    
C20   C24   A    
C9    N2    D    
N1    Zn2   S    
C25   O6    S    
C15   H15   S    
C3    C18   S    
C19   H7    S    
O10   Zn1   S    
C5    C7    S    
C23   H14   S    
C21   C25   A    
C17   H16   S    
C8    C9    S    
N2    Zn1   S    
C18   H5    S    
C11   O13   A    
C22   C23   A    
H2    O2    S    
C12   C21   A    
C4    O8    A    
C11   O12   A    
C4    O9    A    
O9    Zn2   S    
C1    C3    S    
C19   H8    S    
H10   O4    S    
