data_mof_unit_16821.cif
_audit_creation_date              2013-03-05T15:48:29-0500
_audit_creation_method            fapswitch 2.2
_symmetry_space_group_name_H-M    P1
_symmetry_Int_Tables_number       1
_space_group_crystal_system       triclinic
_cell_length_a                    20.195622
_cell_length_b                    7.104694
_cell_length_c                    13.554379
_cell_angle_alpha                 89.999556
_cell_angle_beta                  103.661186
_cell_angle_gamma                 89.999456
_cell_volume                      1889.81204435

loop_
_atom_site_label
_atom_site_type_symbol
_atom_site_description
_atom_site_fract_x
_atom_site_fract_y
_atom_site_fract_z
_atom_type_partial_charge
O1    O     O_R   0.449830 0.506740 0.599960 -0.584570
O2    O     O_R   0.550170 0.006740 0.400040 -0.584549
O3    O     O_R   0.588980 0.179860 0.596720 -0.595028
O4    O     O_R   0.411020 0.679860 0.403280 -0.595034
C1    C     C_R   0.615967 0.344525 0.620153 0.907982
C2    C     C_R   0.384045 0.844535 0.379817 0.907835
O5    O     O_R   0.452740 0.177340 0.612040 -0.584213
O6    O     O_R   0.547260 0.677340 0.387960 -0.584245
O7    O     O_R   0.412960 0.002070 0.415460 -0.586653
O8    O     O_R   0.587040 0.502070 0.584540 -0.586696
C3    C     C_R   0.437377 0.346134 0.639467 1.018562
C4    C     C_R   0.562613 0.846140 0.360521 1.018492
O9    O     O_3   0.487110 0.337570 0.435490 -0.283707
O10   O     O_3   0.512890 0.837570 0.564510 -0.283667
V1    V     V_3+5 0.502390 0.064650 0.511970 1.215165
V2    V     V_3+5 0.497610 0.564650 0.488030 1.215126
C5    C     C_R   0.609221 0.903649 0.110429 -0.113878
C6    C     C_R   0.390765 0.403298 0.889574 -0.113852
H1    H     H_    0.516851 0.918567 0.161829 0.127409
H2    H     H_    0.483130 0.418414 0.838171 0.127386
H3    H     H_    0.690620 0.899679 0.982986 0.113858
H4    H     H_    0.309372 0.398955 0.017027 0.113774
H5    H     H_    0.582875 0.927201 0.031960 0.121260
H6    H     H_    0.417113 0.426734 0.968052 0.121247
C7    C     C_R   0.603524 0.856734 0.284667 -0.243125
C8    C     C_R   0.396458 0.356689 0.715311 -0.243132
C9    C     C_R   0.931289 0.890069 0.315632 -0.169866
C10   C     C_R   0.068698 0.390045 0.684355 -0.170500
C11   C     C_R   0.896298 0.908597 0.391608 -0.078084
C12   C     C_R   0.103693 0.408512 0.608381 -0.078074
C13   C     C_R   0.825481 0.901300 0.368145 -0.039290
C14   C     C_R   0.174511 0.401177 0.631846 -0.039250
C15   C     C_R   0.787602 0.867891 0.267622 0.096041
C16   C     C_R   0.212385 0.367707 0.732368 0.095949
C17   C     C_R   0.823763 0.861558 0.189241 0.091678
C18   C     C_R   0.176222 0.361345 0.810746 0.091918
C19   C     C_R   0.714754 0.858246 0.241301 -0.062303
C20   C     C_R   0.285233 0.358021 0.758688 -0.062224
C21   C     C_R   0.680236 0.882661 0.137811 0.138767
C22   C     C_R   0.319752 0.382283 0.862188 0.138951
C23   C     C_R   0.716787 0.885451 0.062258 -0.070257
C24   C     C_R   0.283203 0.384895 0.937746 -0.070480
C25   C     C_R   0.787190 0.865504 0.087158 -0.058585
C26   C     C_R   0.212796 0.365060 0.912833 -0.058848
C27   C     C_R   0.674541 0.827502 0.313231 0.292322
C28   C     C_R   0.325445 0.327388 0.686744 0.292095
C29   C     C_R   0.571511 0.897567 0.183987 -0.226688
C30   C     C_R   0.428472 0.397401 0.816006 -0.226646
C31   C     C_R   0.895966 0.864785 0.214828 -0.140651
C32   C     C_R   0.104020 0.364739 0.785160 -0.140566
H7    H     H_    0.986049 0.905815 0.334688 0.144892
H8    H     H_    0.013936 0.405801 0.665288 0.145026
H9    H     H_    0.801619 0.934828 0.429069 0.165647
H10   H     H_    0.198377 0.434682 0.570924 0.165748
H11   H     H_    0.924209 0.934673 0.468854 0.150419
H12   H     H_    0.075784 0.434560 0.531131 0.150803
H13   H     H_    0.812978 0.863353 0.025640 0.093094
H14   H     H_    0.187009 0.362831 0.974350 0.093026
C33   C     C_3   0.239862 0.764765 0.131929 0.295913
C34   C     C_3   0.760105 0.265270 0.868142 0.296083
H15   H     H_    0.222728 0.617936 0.111107 0.030385
H16   H     H_    0.777180 0.118462 0.889137 0.030355
C35   C     C_3   0.312375 0.751832 0.205880 -0.492912
C36   C     C_3   0.687588 0.252352 0.794201 -0.492941
H17   H     H_    0.352433 0.813661 0.171916 0.181217
H18   H     H_    0.647562 0.314610 0.828077 0.181252
H19   H     H_    0.326148 0.600827 0.219918 0.146965
H20   H     H_    0.673740 0.101354 0.780361 0.146874
H21   H     H_    0.183013 0.585509 0.258688 0.134055
H22   H     H_    0.816906 0.085087 0.741664 0.133942
H23   H     H_    0.279865 0.603266 0.381183 0.203509
H24   H     H_    0.720065 0.102638 0.619160 0.203605
C37   C     C_3   0.190136 0.734978 0.284035 -0.248761
C38   C     C_3   0.809844 0.234453 0.716113 -0.248457
C39   C     C_3   0.214465 0.060080 0.220489 -0.296657
C40   C     C_3   0.785638 0.560007 0.779201 -0.296793
C41   C     C_3   0.187933 0.857842 0.186994 -0.161510
C42   C     C_3   0.812077 0.357822 0.812982 -0.161735
H25   H     H_    0.181055 0.129176 0.264058 0.208467
H26   H     H_    0.819091 0.628651 0.735547 0.208459
H27   H     H_    0.212544 0.150994 0.153089 0.175861
H28   H     H_    0.787588 0.651306 0.846464 0.176042
C43   C     C_3   0.313296 0.850296 0.308837 0.044602
C44   C     C_3   0.686722 0.350264 0.691121 0.044283
C45   C     C_3   0.261589 0.747995 0.358742 -0.394874
C46   C     C_3   0.738398 0.247408 0.641369 -0.394867
C47   C     C_3   0.288205 0.055410 0.285563 -0.321170
C48   C     C_3   0.711904 0.555362 0.714115 -0.320774
H29   H     H_    0.322408 0.130801 0.245330 0.166315
H30   H     H_    0.677729 0.631190 0.754219 0.166444
H31   H     H_    0.289994 0.131768 0.357235 0.233133
H32   H     H_    0.710166 0.631275 0.642331 0.233291
H33   H     H_    0.258975 0.823216 0.429757 0.216243
H34   H     H_    0.741047 0.322182 0.570244 0.216130
O11   O     O_R   0.912980 0.203550 0.915410 -0.597108
O12   O     O_R   0.087020 0.703550 0.084590 -0.597168
O13   O     O_R   0.047270 0.535570 0.887960 -0.575169
O14   O     O_R   0.952730 0.035570 0.112040 -0.575323
C49   C     C_R   0.064598 0.368793 0.862891 0.928957
C50   C     C_R   0.935393 0.868800 0.137100 0.928839
O15   O     O_R   0.911030 0.532970 0.903270 -0.598971
O16   O     O_R   0.088970 0.032970 0.096730 -0.598979
O17   O     O_R   0.949820 0.708150 0.099970 -0.574621
O18   O     O_R   0.050180 0.208150 0.900030 -0.574628
C51   C     C_R   0.883638 0.364884 0.882417 0.928537
C52   C     C_R   0.116363 0.864886 0.117578 0.928661
O19   O     O_3   0.012900 0.375230 0.064480 -0.271540
O20   O     O_3   0.987100 0.875230 0.935520 -0.271346
V3    V     V_3+5 0.997610 0.648190 0.988040 1.237956
V4    V     V_3+5 0.002390 0.148190 0.011960 1.237882
N1    N     N_R   0.241652 0.863686 0.037409 0.227969
O21   O     O_R   0.283114 0.003632 0.036942 -0.448103
O22   O     O_R   0.201250 0.811049 0.952263 -0.417740
N2    N     N_R   0.758340 0.364655 0.962533 0.228004
O23   O     O_R   0.717006 0.504979 0.962782 -0.448349
O24   O     O_R   0.798569 0.311876 0.047803 -0.417705
C53   C     C_2   0.134025 0.773813 0.337873 0.998139
O25   O     O_2   0.128561 0.928253 0.374973 -0.626881
O26   O     O_R   0.089923 0.627533 0.348433 -0.804044
H35   H     H_    0.058014 0.662894 0.392868 0.310545
C54   C     C_2   0.866003 0.272743 0.662291 0.997846
O27   O     O_2   0.871418 0.426789 0.624739 -0.626962
O28   O     O_R   0.910249 0.126419 0.652357 -0.803866
H36   H     H_    0.942282 0.161423 0.608056 0.310565
N3    N     N_R   0.703367 0.747229 0.411000 0.209255
O29   O     O_R   0.694815 0.829570 0.492700 -0.489351
O30   O     O_R   0.737940 0.591196 0.418457 -0.398603
N4    N     N_R   0.296625 0.247045 0.588986 0.209337
O31   O     O_R   0.305199 0.329268 0.507265 -0.489100
O32   O     O_R   0.262028 0.091060 0.581563 -0.398722

loop_
_geom_bond_atom_site_label_1
_geom_bond_atom_site_label_2
_geom_bond_distance
_ccdc_geom_bond_type
C43   C47   1.550614 S    
C35   H17   1.111448 S    
O14   V4    2.031954 S    
C47   H31   1.105800 S    
C9    C11   1.385998 A    
C23   C25   1.388866 A    
C34   N2    1.469115 S    
N1    O21   1.300883 A    
O1    C3    1.309815 A    
O2    C4    1.309794 A    
N4    O31   1.299529 A    
C33   C41   1.569684 S    
C2    O7    1.301484 A    
N2    O23   1.300814 A    
O3    V1    2.024554 S    
O28   H36   1.012137 S    
C21   C23   1.396812 A    
O5    C3    1.314192 A    
C34   C42   1.569627 S    
C32   C49   1.463199 S    
C5    H5    1.083985 S    
C42   C51   1.527900 S    
C6    H6    1.083988 S    
C36   H20   1.113339 S    
C28   N4    1.433892 S    
C41   C52   1.527938 S    
C40   C42   1.562901 S    
C53   O26   1.397899 S    
H1    C29   1.083709 S    
O15   V3    2.024534 S    
O20   V3    1.755663 S    
C34   H16   1.114195 S    
C5    C21   1.401946 A    
C6    C22   1.401937 A    
C36   C44   1.557182 S    
C46   H34   1.113041 S    
H23   C45   1.110413 S    
C45   H33   1.113070 S    
C48   H32   1.105752 S    
C27   N3    1.433841 S    
H22   C38   1.114936 S    
C33   N1    1.469175 S    
C13   C15   1.416224 A    
H21   C37   1.114938 S    
C12   C14   1.390858 A    
C17   C25   1.406460 A    
C40   C48   1.541514 S    
C8    C30   1.395596 A    
O5    V1    2.031910 S    
C49   O18   1.307689 A    
O6    V2    2.031911 S    
O19   V3    2.185990 S    
C24   C26   1.388853 A    
C14   H10   1.076506 S    
O13   C49   1.303107 A    
C9    H7    1.080430 S    
O15   C51   1.318402 A    
C35   H19   1.113362 S    
C33   H15   1.114221 S    
C37   C53   1.511079 S    
C40   H26   1.110515 S    
O4    C2    1.298027 A    
C40   H28   1.112000 S    
C1    C44   1.523016 S    
C10   C32   1.395599 A    
C39   H27   1.112006 S    
C11   H11   1.081450 S    
C3    C8    1.465149 S    
C12   H12   1.081443 S    
C50   O17   1.307734 A    
C15   C19   1.431261 A    
C35   C43   1.557226 S    
C36   H18   1.111409 S    
O4    V2    2.024534 S    
C17   C31   1.417119 A    
O13   V3    2.031953 S    
H24   C46   1.110393 S    
O6    C4    1.314227 A    
C26   H14   1.082522 S    
C25   H13   1.082525 S    
N1    O22   1.301072 A    
O1    V2    2.023273 S    
C13   H9    1.076504 S    
O2    V1    2.023274 S    
C39   C41   1.562960 S    
C37   C45   1.557587 S    
C54   O27   1.222753 D    
H2    C30   1.083709 S    
H3    C23   1.084333 S    
C39   C47   1.541565 S    
C43   C45   1.552404 S    
C48   H30   1.113236 S    
O14   C50   1.303076 A    
C47   H29   1.113252 S    
N3    O29   1.299512 A    
O19   V4    1.755677 S    
O16   V4    2.024515 S    
C19   C27   1.425430 A    
C7    C27   1.409865 A    
C54   O28   1.397913 S    
C18   C32   1.417125 A    
O18   V4    2.026417 S    
O12   C52   1.319029 A    
C7    C29   1.395590 A    
C2    C43   1.522990 S    
C16   C20   1.431262 A    
C5    C29   1.390908 A    
C44   C46   1.552522 S    
O3    C1    1.298009 A    
O11   V4    2.002900 S    
C6    C30   1.390917 A    
N2    O24   1.301129 A    
O26   H35   1.012173 S    
N4    O32   1.301270 A    
C38   C46   1.557659 S    
O12   V3    2.002910 S    
C33   C35   1.569837 S    
O17   V3    2.026418 S    
C4    C7    1.465160 S    
C34   C36   1.569831 S    
C10   C12   1.385979 A    
O7    V1    2.013675 S    
C1    O8    1.301511 A    
C11   C13   1.390846 A    
O8    V2    2.013666 S    
C53   O25   1.222793 D    
C31   C50   1.463233 S    
C20   C22   1.421913 A    
C10   H8    1.080491 S    
H4    C24   1.084341 S    
C44   C48   1.550565 S    
C22   C24   1.396825 A    
C15   C17   1.424981 A    
O20   V4    2.186010 S    
O16   C52   1.318378 A    
C16   C18   1.424974 A    
C20   C28   1.425444 A    
C18   C26   1.406491 A    
C8    C28   1.409885 A    
C38   C54   1.511084 S    
C19   C21   1.421911 A    
C38   C42   1.570452 S    
O9    V2    1.756034 S    
O11   C51   1.319003 A    
N3    O30   1.301270 A    
C37   C41   1.570471 S    
O10   V1    1.756020 S    
C39   H25   1.110517 S    
C9    C31   1.395579 A    
C14   C16   1.416240 A    
