data_mof_unit_55554.cif
_audit_creation_date              2013-03-05T15:53:45-0500
_audit_creation_method            fapswitch 2.2
_symmetry_space_group_name_H-M    P1
_symmetry_Int_Tables_number       1
_space_group_crystal_system       triclinic
_cell_length_a                    7.053313
_cell_length_b                    12.096934
_cell_length_c                    35.526912
_cell_angle_alpha                 90.063186
_cell_angle_beta                  91.383919
_cell_angle_gamma                 89.876092
_cell_volume                      3030.38615996

loop_
_atom_site_label
_atom_site_type_symbol
_atom_site_description
_atom_site_fract_x
_atom_site_fract_y
_atom_site_fract_z
_atom_type_partial_charge
O1    O     O_R   0.379730 0.148600 0.662710 -0.590532
O2    O     O_R   0.620270 0.851400 0.337290 -0.590727
O3    O     O_R   0.120270 0.648600 0.337290 -0.591941
O4    O     O_R   0.879730 0.351400 0.662710 -0.588565
O5    O     O_R   0.722480 0.134490 0.741330 -0.590971
O6    O     O_R   0.277520 0.865510 0.258670 -0.581637
O7    O     O_R   0.777520 0.634490 0.258670 -0.591872
O8    O     O_R   0.222480 0.365510 0.741330 -0.589799
O9    O     O_R   0.892880 0.345890 0.741600 -0.589045
O10   O     O_R   0.107120 0.654110 0.258400 -0.581990
O11   O     O_R   0.607120 0.845890 0.258400 -0.582230
O12   O     O_R   0.392880 0.154110 0.741600 -0.585640
C1    C     C_R   0.554303 0.112530 0.754120 0.924730
C2    C     C_R   0.446204 0.889130 0.246107 0.918594
C3    C     C_R   0.946684 0.609455 0.246586 0.926087
C4    C     C_R   0.053815 0.385344 0.754936 0.927362
O13   O     O_R   0.709490 0.135560 0.662990 -0.590702
O14   O     O_R   0.290510 0.864440 0.337010 -0.591426
O15   O     O_R   0.790510 0.635560 0.337010 -0.591743
O16   O     O_R   0.209490 0.364440 0.662990 -0.591613
C5    C     C_R   0.539256 0.107192 0.651300 0.954145
C6    C     C_R   0.460745 0.892788 0.348707 0.952307
C7    C     C_R   0.960976 0.607311 0.348714 0.949238
C8    C     C_R   0.039029 0.392658 0.651273 0.958035
O17   O     O_3   0.552800 0.316610 0.702160 -0.273862
O18   O     O_3   0.447200 0.683390 0.297840 -0.276621
O19   O     O_3   0.947200 0.816610 0.297840 -0.271500
O20   O     O_3   0.052800 0.183390 0.702160 -0.275266
V1    V     V_3+5 0.827630 0.234380 0.702160 1.193572
V2    V     V_3+5 0.172370 0.765620 0.297840 1.198244
V3    V     V_3+5 0.672370 0.734380 0.297840 1.192312
V4    V     V_3+5 0.327630 0.265620 0.702160 1.192797
C9    C     C_R   0.017971 0.630317 0.922170 0.480622
C10   C     C_R   0.971058 0.309869 0.093808 0.450402
C11   C     C_R   0.475533 0.160578 0.086036 0.445807
C12   C     C_R   0.488137 0.825159 0.909115 0.419930
O21   O     O_2   0.030996 0.520568 0.927676 -0.585757
O22   O     O_2   0.011761 0.416861 0.087189 -0.555859
O23   O     O_2   0.524473 0.053953 0.080842 -0.571125
O24   O     O_2   0.430482 0.930134 0.914407 -0.583572
N1    N     N_R   0.008606 0.670084 0.885908 -0.169499
N2    N     N_R   0.962879 0.273596 0.130334 -0.169399
N3    N     N_R   0.461426 0.200695 0.122079 -0.177226
N4    N     N_R   0.521577 0.787670 0.873289 -0.166573
C13   C     C_R   0.993450 0.782142 0.879970 0.451641
C14   C     C_R   0.953455 0.161986 0.137518 0.442539
C15   C     C_R   0.443306 0.312814 0.127595 0.466662
C16   C     C_R   0.541128 0.675401 0.867676 0.468400
C17   C     C_R   0.125185 0.626126 0.821921 -0.074612
C18   C     C_R   0.069986 0.345512 0.194068 0.044263
C19   C     C_R   0.559271 0.144411 0.188246 -0.035295
C20   C     C_R   0.478116 0.843502 0.804745 -0.059240
C21   C     C_R   0.137967 0.558771 0.790019 -0.189064
C22   C     C_R   0.071312 0.429488 0.221513 -0.166871
C23   C     C_R   0.557924 0.067887 0.218053 -0.171450
C24   C     C_R   0.478265 0.924063 0.776570 -0.185524
C25   C     C_R   0.937151 0.424918 0.819533 -0.116280
C26   C     C_R   0.838878 0.531983 0.184732 -0.104625
C27   C     C_R   0.353348 0.948247 0.181066 -0.106399
C28   C     C_R   0.619483 0.054013 0.820285 -0.136077
C29   C     C_R   0.928976 0.491810 0.851763 0.050380
C30   C     C_R   0.842940 0.450465 0.156887 0.011872
C31   C     C_R   0.359473 0.022788 0.151050 -0.015312
C32   C     C_R   0.614456 0.974498 0.848798 0.053692
C33   C     C_R   0.020926 0.595265 0.853412 0.164861
C34   C     C_R   0.958097 0.355548 0.160746 0.130080
C35   C     C_R   0.460242 0.123194 0.153912 0.101927
C36   C     C_R   0.537754 0.867803 0.842250 0.176765
C37   C     C_R   0.007553 0.818646 0.947384 -0.144796
C38   C     C_R   0.948511 0.121454 0.070062 -0.116300
C39   C     C_R   0.443974 0.345909 0.059733 -0.168480
C40   C     C_R   0.501256 0.639029 0.934582 -0.120719
C41   C     C_R   0.013941 0.703437 0.953726 -0.187781
C42   C     C_R   0.948849 0.235937 0.063131 -0.230094
C43   C     C_R   0.450816 0.230690 0.054310 -0.208237
C44   C     C_R   0.504225 0.753934 0.940566 -0.197045
C45   C     C_R   0.015422 0.666153 0.991552 0.576108
C46   C     C_R   0.926990 0.272566 0.025492 0.589133
C47   C     C_R   0.437925 0.189403 0.017101 0.586929
C48   C     C_R   0.517964 0.794113 0.977911 0.586603
C49   C     C_R   0.009559 0.858297 0.910090 -0.185658
C50   C     C_R   0.939921 0.083674 0.107573 -0.146357
C51   C     C_R   0.435092 0.387674 0.096746 -0.080897
C52   C     C_R   0.508690 0.598739 0.897328 -0.197082
C53   C     C_R   0.042701 0.457655 0.788439 -0.126597
C54   C     C_R   0.954978 0.523236 0.217058 -0.143444
C55   C     C_R   0.453502 0.969550 0.214748 -0.138590
C56   C     C_R   0.546861 0.029937 0.784281 -0.107033
H1    H     H_    0.862951 0.346578 0.819108 0.132175
H2    H     H_    0.747268 0.603206 0.180663 0.139187
H3    H     H_    0.272817 0.872563 0.177697 0.142386
H4    H     H_    0.678997 0.134730 0.826435 0.126521
H5    H     H_    0.847228 0.462666 0.874868 0.162833
H6    H     H_    0.756673 0.462343 0.131856 0.125242
H7    H     H_    0.284844 0.001306 0.125320 0.131305
H8    H     H_    0.673203 0.997173 0.876001 0.139345
C57   C     C_R   0.961428 0.929971 0.046347 0.055498
C58   C     C_R   0.989343 0.009667 0.971371 0.034932
C59   C     C_R   0.477588 0.449507 0.959656 0.060345
C60   C     C_R   0.454542 0.534842 0.034135 0.091859
C61   C     C_R   0.964009 0.084604 0.001836 0.018002
C62   C     C_R   0.984130 0.854586 0.015698 0.028334
C63   C     C_R   0.481491 0.607570 0.003080 -0.017521
C64   C     C_R   0.459557 0.376200 0.991004 0.031306
C65   C     C_R   0.956589 0.045004 0.039345 0.104367
C66   C     C_R   0.996238 0.894482 0.978286 0.099964
C67   C     C_R   0.488382 0.565027 0.965850 0.080002
C68   C     C_R   0.449826 0.419231 0.028159 0.088000
C69   C     C_R   0.937201 0.894326 0.083804 -0.259954
C70   C     C_R   0.012657 0.046545 0.934103 -0.215724
C71   C     C_R   0.483014 0.411403 0.922090 -0.181495
C72   C     C_R   0.425025 0.574315 0.070958 -0.349797
C73   C     C_R   0.920569 0.968349 0.113695 0.578063
C74   C     C_R   0.025689 0.973563 0.904019 0.606276
C75   C     C_R   0.492071 0.483012 0.891461 0.529950
C76   C     C_R   0.414466 0.502962 0.101988 0.636803
O25   O     O_2   0.962984 0.126237 0.173379 -0.585531
O26   O     O_2   0.953754 0.820161 0.845005 -0.554381
O27   O     O_2   0.599498 0.637704 0.834244 -0.564967
O28   O     O_2   0.436387 0.352911 0.162838 -0.551223
C77   C     C_R   0.997521 0.739921 0.021243 -0.293310
C78   C     C_R   0.939412 0.198513 0.995871 -0.262527
C79   C     C_R   0.447626 0.260646 0.986541 -0.262697
C80   C     C_R   0.504515 0.722162 0.008127 -0.267597
H9    H     H_    0.160644 0.420312 0.246548 0.117002
H10   H     H_    0.220889 0.586139 0.766528 0.131907
H11   H     H_    0.428866 0.902788 0.748364 0.107714
H12   H     H_    0.637096 0.085965 0.243820 0.126126
H13   H     H_    0.161598 0.274760 0.198548 0.169364
H14   H     H_    0.197389 0.703352 0.822522 0.135236
H15   H     H_    0.433267 0.762833 0.795906 0.145680
H16   H     H_    0.643389 0.218348 0.191887 0.170209
H17   H     H_    0.923350 0.808436 0.091085 0.150629
H18   H     H_    0.030132 0.132640 0.927303 0.151916
H19   H     H_    0.476080 0.325114 0.914908 0.145476
H20   H     H_    0.404452 0.661020 0.076415 0.124780
H21   H     H_    0.000697 0.703287 0.048847 0.173919
H22   H     H_    0.918584 0.233166 0.968143 0.168286
H23   H     H_    0.441104 0.221237 0.959393 0.166111
H24   H     H_    0.521732 0.759072 0.035619 0.174914
C81   C     C_R   0.975642 0.527236 0.379334 -0.116908
C82   C     C_R   0.024376 0.472687 0.620635 -0.121446
C83   C     C_R   0.525061 0.027064 0.620653 -0.119309
C84   C     C_R   0.474958 0.972910 0.379357 -0.118490
C85   C     C_R   0.070108 0.346473 0.402785 0.701922
C86   C     C_R   0.930051 0.653456 0.597166 0.700989
C87   C     C_R   0.430399 0.846569 0.597073 0.702443
C88   C     C_R   0.569696 0.153391 0.402939 0.702830
C89   C     C_R   0.044105 0.421331 0.372873 -0.366327
C90   C     C_R   0.956036 0.578624 0.627083 -0.365225
C91   C     C_R   0.456538 0.921344 0.627041 -0.363439
C92   C     C_R   0.543523 0.078622 0.372971 -0.365122
C93   C     C_R   0.941375 0.562155 0.415740 -0.164172
C94   C     C_R   0.058567 0.437716 0.584229 -0.164453
C95   C     C_R   0.559239 0.061914 0.584276 -0.164395
C96   C     C_R   0.440808 0.938055 0.415735 -0.163912
C97   C     C_R   0.983370 0.493725 0.447013 0.070278
C98   C     C_R   0.016683 0.506148 0.552950 0.071179
C99   C     C_R   0.516991 0.993647 0.552958 0.070560
C100  C     C_R   0.483100 0.006314 0.447054 0.070434
C101  C     C_R   0.029801 0.380438 0.440224 -0.031289
C102  C     C_R   0.970320 0.619453 0.559731 -0.031024
C103  C     C_R   0.470522 0.880475 0.559655 -0.032049
C104  C     C_R   0.529587 0.119484 0.440356 -0.031950
C105  C     C_R   0.983686 0.536101 0.484605 0.137749
C106  C     C_R   0.016404 0.463765 0.515356 0.137544
C107  C     C_R   0.516473 0.036089 0.515408 0.138047
C108  C     C_R   0.483633 0.963871 0.484603 0.138071
C109  C     C_R   0.036237 0.349733 0.507847 -0.266510
C110  C     C_R   0.963905 0.650136 0.492109 -0.266626
C111  C     C_R   0.463921 0.849866 0.492009 -0.267132
C112  C     C_R   0.536190 0.150094 0.508002 -0.267232
C113  C     C_R   0.042133 0.306821 0.471324 0.360232
C114  C     C_R   0.958013 0.693059 0.528628 0.360129
C115  C     C_R   0.458076 0.806926 0.528494 0.360187
C116  C     C_R   0.542045 0.193032 0.471517 0.360010
H25   H     H_    0.114870 0.355309 0.581365 0.112987
H26   H     H_    0.884938 0.644529 0.418614 0.113287
H27   H     H_    0.384356 0.855825 0.418553 0.113340
H28   H     H_    0.615679 0.144146 0.581459 0.113329
H29   H     H_    0.921309 0.602629 0.655507 0.113273
H30   H     H_    0.078894 0.397376 0.344446 0.106878
H31   H     H_    0.578298 0.102481 0.344560 0.107579
H32   H     H_    0.421773 0.897484 0.655453 0.107893
H33   H     H_    0.036567 0.289961 0.530207 0.166230
H34   H     H_    0.963642 0.709902 0.469747 0.166252
H35   H     H_    0.463631 0.790123 0.469594 0.166098
H36   H     H_    0.536477 0.209839 0.530416 0.166114
O29   O     O_3   0.152040 0.244678 0.396208 -0.720023
H37   H     H_    0.171542 0.234998 0.368847 0.303398
O30   O     O_3   0.848172 0.755272 0.603735 -0.719794
H38   H     H_    0.828682 0.764981 0.631095 0.304634
O31   O     O_3   0.348498 0.744968 0.603581 -0.719244
H39   H     H_    0.329066 0.735331 0.630936 0.303578
O32   O     O_3   0.651616 0.254987 0.396431 -0.719480
H40   H     H_    0.671034 0.264627 0.369075 0.303321
O33   O     O_3   0.030612 0.557493 0.001500 -0.668582
H41   H     H_    0.135723 0.524520 0.987708 0.359383
O34   O     O_3   0.878348 0.378589 0.015837 -0.682270
H42   H     H_    0.810271 0.413115 0.036699 0.355661
O35   O     O_3   0.407276 0.080051 0.008824 -0.674260
H43   H     H_    0.328767 0.047400 0.028544 0.347839
O36   O     O_3   0.557179 0.902303 0.986671 -0.677337
H44   H     H_    0.629135 0.935798 0.966152 0.349300
O37   O     O_3   0.887588 0.923569 0.148516 -0.747148
H45   H     H_    0.783885 0.966887 0.159627 0.356728
O38   O     O_3   0.063332 0.018853 0.869388 -0.739207
H46   H     H_    0.156965 0.970639 0.857022 0.356392
O39   O     O_3   0.484164 0.434699 0.856313 -0.757908
H47   H     H_    0.407713 0.482757 0.839466 0.352995
O40   O     O_3   0.383473 0.545068 0.137556 -0.710327
H48   H     H_    0.376082 0.626923 0.136498 0.299362
N5    N     N_R   0.048247 0.187935 0.467102 0.250254
O41   O     O_R   0.947871 0.139287 0.440842 -0.363916
O42   O     O_R   0.116600 0.126867 0.494341 -0.404257
N6    N     N_R   0.951917 0.811948 0.532843 0.250304
O43   O     O_R   0.052349 0.860607 0.559093 -0.363880
O44   O     O_R   0.883510 0.873003 0.505606 -0.404234
N7    N     N_R   0.451969 0.688053 0.532614 0.250365
O45   O     O_R   0.552478 0.639129 0.558814 -0.364104
O46   O     O_R   0.383447 0.627184 0.505339 -0.403602
N8    N     N_R   0.548142 0.311906 0.467396 0.250375
O47   O     O_R   0.447623 0.360825 0.441197 -0.364329
O48   O     O_R   0.616658 0.372777 0.494671 -0.403567

loop_
_geom_bond_atom_site_label_1
_geom_bond_atom_site_label_2
_geom_bond_distance
_ccdc_geom_bond_type
C13   O26   1.347906 S    
C26   C30   1.396754 A    
N4    C16   1.379559 A    
O36   H44   0.986188 S    
O1    C5    1.303999 A    
C105  C106  1.414748 A    
C58   C70   1.411117 A    
C31   H7    1.075665 S    
O13   V1    2.001134 S    
O35   H43   0.986795 S    
C116  N8    1.446434 S    
O3    C7    1.304409 A    
C10   N2    1.372855 A    
C72   C76   1.404359 A    
C40   C44   1.406054 A    
C103  C115  1.420708 A    
C28   C56   1.396951 A    
C81   C89   1.388947 A    
C91   H32   1.084072 S    
C64   C79   1.409109 A    
N5    O41   1.298720 A    
C112  C116  1.398489 A    
C86   C102  1.426599 A    
C11   C43   1.418499 A    
C18   C22   1.407182 A    
C17   C33   1.404857 A    
C100  C104  1.429932 A    
O20   V1    1.702526 S    
O9    C4    1.310204 A    
N6    O44   1.300801 A    
C2    C55   1.481748 S    
C94   C98   1.411592 A    
C76   O40   1.383978 S    
O10   C3    1.314419 A    
N4    C36   1.475665 S    
O16   V4    2.000815 S    
O4    C8    1.304438 A    
C96   H27   1.077916 S    
C29   H5    1.074677 S    
C24   C56   1.394632 A    
C48   O36   1.372133 S    
O6    C2    1.312955 A    
C81   C93   1.386796 A    
C79   H23   1.075404 S    
C57   C69   1.413715 A    
C74   O38   1.379239 S    
N2    C14   1.376375 A    
C24   H11   1.083829 S    
C77   H21   1.076328 S    
C113  N5    1.446451 S    
C12   C44   1.413981 A    
C14   C50   1.425326 A    
C108  C111  1.412060 A    
C111  C115  1.398495 A    
O16   C8    1.307558 A    
C8    C82   1.459162 S    
C47   O35   1.371268 S    
C49   C74   1.416417 A    
C38   C42   1.406901 A    
C87   O31   1.381270 S    
O14   V2    2.001129 S    
C15   C51   1.422485 A    
C90   H29   1.083996 S    
C62   C77   1.403890 A    
C11   N3    1.374633 A    
O15   V3    2.000810 S    
C70   C74   1.390137 A    
O5    C1    1.308359 A    
C57   C62   1.431245 A    
C20   C36   1.418232 A    
C12   N4    1.376231 A    
O9    V1    1.990500 S    
C57   C65   1.414064 A    
O17   V4    1.705013 S    
C83   C91   1.388970 A    
C59   C64   1.432640 A    
O11   V3    1.991250 S    
O18   V3    1.705013 S    
O8    C4    1.316338 A    
C86   C90   1.405254 A    
C39   C68   1.432221 A    
O12   V4    1.991245 S    
O19   V2    1.702526 S    
C23   C55   1.403794 A    
C21   C53   1.397300 A    
O29   H37   0.991780 S    
C72   H20   1.076566 S    
C38   C50   1.412044 A    
C63   C80   1.406821 A    
C26   C54   1.398280 A    
C16   O27   1.345293 S    
O5    V1    2.001038 S    
O38   H46   0.990517 S    
C28   H4    1.083616 S    
O17   V1    2.176874 S    
C22   H9    1.083151 S    
C31   C35   1.410936 A    
C88   C92   1.405252 A    
C60   C68   1.414669 A    
C61   C65   1.418748 A    
O7    V3    1.997243 S    
C75   O39   1.378077 S    
C95   C99   1.411297 A    
O30   H38   0.991773 S    
C88   C104  1.426630 A    
C44   C48   1.413655 A    
C12   O24   1.346929 S    
C45   C77   1.388797 A    
N6    O43   1.298717 A    
C78   H22   1.077665 S    
C97   C105  1.429983 A    
C107  C108  1.414611 A    
C22   C54   1.405175 A    
C30   C34   1.409904 A    
O15   C7    1.307563 A    
C19   C35   1.414432 A    
C19   C23   1.407509 A    
C110  C114  1.398437 A    
O37   H45   0.988555 S    
C47   C79   1.389995 A    
C60   C63   1.428416 A    
O13   C5    1.307412 A    
C16   C52   1.427158 A    
C14   O25   1.345962 S    
O2    V3    2.030141 S    
C73   O37   1.376171 S    
C84   C96   1.386658 A    
O3    V2    2.033402 S    
C11   O23   1.348153 S    
N3    C35   1.469967 S    
O2    C6    1.303990 A    
C18   H13   1.080902 S    
N7    O46   1.300806 A    
C101  C113  1.420782 A    
O10   V2    1.990505 S    
C88   O32   1.381273 S    
C83   C95   1.386644 A    
O40   H48   0.992165 S    
C40   C67   1.432149 A    
O20   V4    2.180702 S    
C19   H16   1.080295 S    
C59   C71   1.412828 A    
C110  H34   1.074727 S    
O39   H47   0.985279 S    
C27   H3    1.083477 S    
C23   H12   1.083089 S    
C92   H31   1.084050 S    
C37   C41   1.412462 A    
C18   C34   1.412018 A    
C32   H8    1.077731 S    
C40   C52   1.412054 A    
C25   H1    1.083490 S    
C26   H2    1.083557 S    
C3    C54   1.480525 S    
C9    C41   1.428030 A    
C15   O28   1.344190 S    
O6    V2    2.001037 S    
C10   C42   1.415056 A    
C60   C72   1.412142 A    
C52   C75   1.419826 A    
C30   H6    1.074938 S    
O19   V3    2.180702 S    
C4    C53   1.479850 S    
C99   C103  1.429932 A    
C86   O30   1.381220 S    
C70   H18   1.077412 S    
C43   C47   1.413567 A    
C46   O34   1.368835 S    
O1    V4    2.030141 S    
C32   C36   1.417370 A    
C64   C68   1.421547 A    
C95   H28   1.077911 S    
C98   C106  1.430041 A    
C9    O21   1.344795 S    
C48   C80   1.387911 A    
C105  C110  1.411963 A    
N7    O45   1.298740 A    
C93   H26   1.077895 S    
N8    O48   1.300803 A    
N1    C13   1.375637 A    
C85   O29   1.381209 S    
C10   O22   1.348480 S    
C20   H15   1.070888 S    
C115  N7    1.446434 S    
C51   C76   1.414469 A    
C80   H24   1.077784 S    
C13   C49   1.413887 A    
O4    V1    2.033402 S    
C50   C73   1.419552 A    
C97   C101  1.429902 A    
C38   C65   1.431780 A    
C63   C67   1.420608 A    
C37   C66   1.433507 A    
C25   C29   1.403620 A    
C107  C112  1.412067 A    
C102  C114  1.420763 A    
C96   C100  1.411311 A    
C69   C73   1.395264 A    
C58   C61   1.425335 A    
C59   C67   1.416348 A    
C17   H14   1.064909 S    
C104  C116  1.420691 A    
C27   C31   1.398805 A    
C61   C78   1.404137 A    
C58   C66   1.415658 A    
C111  H35   1.074762 S    
C28   C32   1.398793 A    
C9    N1    1.375714 A    
C82   C90   1.388927 A    
O14   C6    1.307435 A    
N5    O42   1.300803 A    
C109  H33   1.074709 S    
N1    C33   1.470302 S    
C84   C92   1.388978 A    
C87   C103  1.426659 A    
C39   C43   1.407724 A    
C109  C113  1.398519 A    
C71   H19   1.075231 S    
C89   H30   1.084063 S    
O8    V4    1.997244 S    
C85   C101  1.426658 A    
C112  H36   1.074754 S    
C17   C21   1.399687 A    
C87   C91   1.405269 A    
C1    C56   1.467808 S    
O7    C3    1.312471 A    
O11   C2    1.313979 A    
C99   C107  1.429854 A    
C62   C66   1.419120 A    
C114  N6    1.446453 S    
C100  C108  1.429852 A    
C69   H17   1.076222 S    
C93   C97   1.411519 A    
O33   H41   0.982183 S    
C46   C78   1.385495 A    
C27   C55   1.398786 A    
N3    C15   1.376283 A    
C37   C49   1.410001 A    
C21   H10   1.083143 S    
C98   C102  1.429962 A    
O32   H40   0.991779 S    
C94   H25   1.077877 S    
C29   C33   1.411304 A    
O34   H42   0.984858 S    
O12   C1    1.311769 A    
C106  C109  1.412000 A    
C71   C75   1.394367 A    
O31   H39   0.991776 S    
C42   C46   1.413957 A    
C5    C83   1.458723 S    
C6    C84   1.458752 S    
N2    C34   1.466485 S    
C41   C45   1.417768 A    
C7    C81   1.459038 S    
C39   C51   1.410909 A    
C82   C94   1.386863 A    
C45   O33   1.364827 S    
N8    O47   1.298744 A    
C25   C53   1.404759 A    
C85   C89   1.405316 A    
C20   C24   1.397806 A    
O18   V2    2.176874 S    
