data_mof_unit_11467.cif
_audit_creation_date              2013-03-05T15:45:32-0500
_audit_creation_method            fapswitch 2.2
_symmetry_space_group_name_H-M    P1
_symmetry_Int_Tables_number       1
_space_group_crystal_system       triclinic
_cell_length_a                    11.339418
_cell_length_b                    11.312288
_cell_length_c                    18.807105
_cell_angle_alpha                 89.808968
_cell_angle_beta                  89.489376
_cell_angle_gamma                 59.197359
_cell_volume                      2072.07957213

loop_
_atom_site_label
_atom_site_type_symbol
_atom_site_description
_atom_site_fract_x
_atom_site_fract_y
_atom_site_fract_z
_atom_type_partial_charge
O1    O     O_R   0.507430 0.255570 0.581420 -0.454722
O2    O     O_R   0.280190 0.527390 0.578910 -0.535552
C1    C     C_R   0.243753 0.643904 0.610438 0.549457
O3    O     O_R   0.260310 0.739740 0.584580 -0.487778
O4    O     O_R   0.532250 0.695150 0.573830 -0.504100
C2    C     C_R   0.655270 0.622714 0.600037 0.577425
O5    O     O_R   0.744930 0.503430 0.576380 -0.402725
O6    O     O_R   0.699250 0.276390 0.571950 -0.458248
C3    C     C_R   0.622755 0.233156 0.604500 0.571404
O7    O     O_R   0.499020 0.256400 0.419850 -0.516750
O8    O     O_R   0.272400 0.528160 0.429140 -0.506534
C4    C     C_R   0.224553 0.648073 0.401832 0.600815
O9    O     O_R   0.251910 0.740570 0.423020 -0.411654
O10   O     O_R   0.524460 0.695920 0.424060 -0.462487
C5    C     C_R   0.641613 0.625423 0.393242 0.573465
O11   O     O_R   0.736530 0.504260 0.414810 -0.467312
O12   O     O_R   0.691460 0.277160 0.422180 -0.479755
C6    C     C_R   0.616543 0.232226 0.395301 0.568681
Cr1   Cr    Cr6+3 0.392930 0.397900 0.502230 1.094417
Cr2   Cr    Cr6+3 0.398240 0.708600 0.501260 1.162326
Cr3   Cr    Cr6+3 0.708800 0.393470 0.496460 1.175841
O13   O     O_3   0.499990 0.499990 0.499980 -0.353792
C7    C     C_3   0.580035 0.826087 0.782959 0.058799
H1    H     H_    0.618649 0.896651 0.791796 0.145977
C8    C     C_3   0.579108 0.804133 0.701533 0.056416
H2    H     H_    0.622564 0.864846 0.680302 0.173118
H3    H     H_    0.818278 0.720987 0.651137 0.112115
C9    C     C_3   0.834396 0.649515 0.769207 0.067971
C10   C     C_3   0.660433 0.565405 0.803718 0.370774
C11   C     C_3   0.695557 0.682851 0.813362 -0.037111
C12   C     C_3   0.681785 0.649141 0.675327 -0.075169
C13   C     C_3   0.821214 0.638017 0.683902 0.091302
C14   C     C_3   0.691718 0.524669 0.723039 0.092190
H4    H     H_    0.614907 0.502057 0.701221 0.114232
H5    H     H_    0.917412 0.549913 0.787728 0.246312
C15   C     C_R   0.766889 0.156271 0.712166 -0.102738
H6    H     H_    0.849493 0.136339 0.678250 0.283669
C16   C     C_R   0.780329 0.159200 0.785707 0.204373
C17   C     C_R   0.672284 0.175814 0.828674 -0.005369
C18   C     C_R   0.543878 0.216451 0.797908 0.204083
C19   C     C_R   0.535954 0.199853 0.723898 0.124879
C20   C     C_R   0.646545 0.183921 0.679855 -0.093535
C21   C     C_R   0.244458 0.542876 0.726934 -0.148270
H7    H     H_    0.297341 0.444825 0.701833 0.178820
C22   C     C_R   0.202922 0.557071 0.797926 -0.019969
H8    H     H_    0.195354 0.476663 0.824442 0.208502
C23   C     C_R   0.174391 0.676391 0.833695 0.106446
C24   C     C_R   0.171752 0.781977 0.793736 -0.096425
H9    H     H_    0.177773 0.862925 0.819327 0.154172
C25   C     C_R   0.151948 0.785628 0.720514 0.104585
C26   C     C_R   0.204128 0.659459 0.685632 -0.030602
C27   C     C_R   0.785706 0.618635 0.291791 0.154385
C28   C     C_R   0.796488 0.624363 0.218683 -0.176365
H10   H     H_    0.898078 0.583589 0.195693 0.182563
C29   C     C_R   0.679660 0.683203 0.175192 -0.046977
C30   C     C_R   0.548361 0.746599 0.205202 0.199734
C31   C     C_R   0.535398 0.752624 0.279841 0.139896
C32   C     C_R   0.654767 0.675181 0.322766 -0.034976
C33   C     C_R   0.577896 0.122258 0.294880 -0.115084
H11   H     H_    0.519997 0.091976 0.328732 0.181226
C34   C     C_R   0.570090 0.113668 0.221925 0.236851
C35   C     C_R   0.650606 0.146965 0.177733 0.025714
C36   C     C_R   0.726002 0.201041 0.206846 -0.181383
H12   H     H_    0.787370 0.227715 0.173506 0.156258
C37   C     C_R   0.722441 0.221148 0.279355 -0.106512
H13   H     H_    0.774188 0.271517 0.300404 0.189833
C38   C     C_R   0.649016 0.180773 0.323571 0.013922
C39   C     C_R   0.061995 0.791782 0.307802 0.246332
C40   C     C_R   0.034950 0.806613 0.235498 -0.080423
H14   H     H_    0.958735 0.906592 0.215124 0.149310
C41   C     C_R   0.107335 0.693850 0.189276 0.012783
C42   C     C_R   0.200673 0.564459 0.214865 -0.125012
H15   H     H_    0.256051 0.478672 0.178744 0.129850
C43   C     C_R   0.229426 0.548866 0.286612 -0.110514
H16   H     H_    0.310147 0.449285 0.305064 0.140040
C44   C     C_R   0.163941 0.663143 0.332809 0.085566
O14   O     O_R   0.089490 0.825610 0.930610 -0.526525
O15   O     O_R   0.818370 0.054540 0.929880 -0.549677
C45   C     C_R   0.699136 0.105407 0.898012 0.526227
O16   O     O_R   0.605870 0.077310 0.915530 -0.442526
O17   O     O_R   0.646440 0.806700 0.917570 -0.449265
C46   C     C_R   0.724996 0.691473 0.888395 0.625509
O18   O     O_R   0.837200 0.593290 0.915250 -0.492041
O19   O     O_R   0.065330 0.635370 0.931590 -0.472732
C47   C     C_R   0.115264 0.708341 0.905563 0.611936
O20   O     O_R   0.068300 0.828790 0.091860 -0.459737
O21   O     O_R   0.798730 0.057480 0.079370 -0.534374
C48   C     C_R   0.675785 0.101068 0.104662 0.549284
O22   O     O_R   0.584680 0.080480 0.076790 -0.446452
O23   O     O_R   0.626790 0.809640 0.067050 -0.435959
C49   C     C_R   0.702210 0.693704 0.099781 0.581944
O24   O     O_R   0.816010 0.596460 0.076500 -0.549493
O25   O     O_R   0.045680 0.638310 0.081070 -0.520821
C50   C     C_R   0.080905 0.716021 0.114613 0.568931
Cr4   Cr    Cr6+3 0.937620 0.938540 0.007640 1.045838
Cr5   Cr    Cr6+3 0.625150 0.937450 0.994520 1.189374
Cr6   Cr    Cr6+3 0.937990 0.625080 0.001190 1.073278
O26   O     O_3   0.833590 0.833690 0.001120 -0.321845
N1    N     N_R   0.826806 0.392113 0.714478 0.168377
O27   O     O_R   0.931585 0.358463 0.755210 -0.229610
O28   O     O_R   0.856289 0.321677 0.656303 -0.247086
O29   O     O_3   0.919968 0.514160 0.650463 -0.495169
C51   C     C_3   0.048504 0.497533 0.647097 -0.004751
H17   H     H_    0.091881 0.462215 0.700041 0.177347
H18   H     H_    0.043142 0.592237 0.627489 0.109455
H19   H     H_    0.111913 0.413736 0.608861 0.210629
O30   O     O_3   0.865145 0.203981 0.810089 -0.466217
C52   C     C_3   0.977631 0.108005 0.849346 0.047226
H20   H     H_    0.985633 0.007918 0.848468 0.120980
H21   H     H_    0.968411 0.144421 0.904841 0.136103
H22   H     H_    0.072317 0.100875 0.827840 0.224478
N2    N     N_R   0.424989 0.277593 0.844095 0.088016
O31   O     O_R   0.355073 0.217280 0.854895 -0.224944
O32   O     O_R   0.416090 0.364264 0.892313 -0.346344
N3    N     N_R   0.426365 0.185075 0.694575 0.103640
O33   O     O_R   0.451725 0.100648 0.642173 -0.253812
O34   O     O_R   0.304651 0.243740 0.723068 -0.285496
N4    N     N_R   0.440949 0.906826 0.816348 0.083565
O35   O     O_R   0.353841 0.022207 0.786336 -0.213294
O36   O     O_R   0.415018 0.897312 0.882775 -0.248698
N5    N     N_R   0.079275 0.914709 0.683047 -0.001193
O37   O     O_R   0.015046 0.924322 0.624230 -0.329716
O38   O     O_R   0.079340 0.022702 0.706469 -0.340197
N6    N     N_R   0.908307 0.555980 0.333883 0.098352
O39   O     O_R   0.910870 0.610086 0.394401 -0.298447
O40   O     O_R   0.020663 0.450457 0.309548 -0.347727
N7    N     N_R   0.430635 0.795991 0.159904 0.124787
O41   O     O_R   0.326445 0.920535 0.166148 -0.272987
O42   O     O_R   0.429552 0.716804 0.110186 -0.321585
N8    N     N_R   0.402035 0.835360 0.311494 0.113144
O43   O     O_R   0.379515 0.933104 0.355747 -0.303102
O44   O     O_R   0.299616 0.823946 0.290453 -0.286379
O45   O     O_3   0.489178 0.066316 0.193937 -0.534791
C53   C     C_3   0.349428 0.159330 0.210787 -0.017207
H23   H     H_    0.324988 0.265818 0.222298 0.079385
H24   H     H_    0.318123 0.120685 0.257138 0.211107
H25   H     H_    0.285854 0.166320 0.164718 0.189679
N9    N     N_R   0.994287 0.908898 0.353999 0.087850
O46   O     O_R   0.992790 0.021451 0.337749 -0.283792
O47   O     O_R   0.945927 0.899334 0.415369 -0.289005
O48   O     O_3   0.454144 0.880014 0.667960 -0.492702
C54   C     C_3   0.368265 0.831796 0.682732 0.077926
H26   H     H_    0.416285 0.718662 0.679405 0.095520
H27   H     H_    0.288588 0.888928 0.643555 0.262124
H28   H     H_    0.321055 0.862172 0.734611 0.186298
O49   O     O_3   0.881102 0.737232 0.793818 -0.624630
C55   C     C_3   0.866347 0.839956 0.746821 -0.132883
H29   H     H_    0.931087 0.795518 0.699385 0.164161
H30   H     H_    0.901574 0.900302 0.775328 0.156183
H31   H     H_    0.760963 0.912833 0.730749 0.079350
O50   O     O_3   0.750724 0.449498 0.846985 -0.492756
C56   C     C_3   0.698865 0.434978 0.913460 0.043815
H32   H     H_    0.621298 0.404567 0.906106 0.200898
H33   H     H_    0.657598 0.527749 0.947501 0.158697
H34   H     H_    0.784370 0.351386 0.943678 0.112755
N10   N     N_R   0.515528 0.606520 0.818699 0.022261
O51   O     O_R   0.471253 0.531604 0.791085 -0.402377
O52   O     O_R   0.457101 0.666772 0.878139 -0.307071

loop_
_geom_bond_atom_site_label_1
_geom_bond_atom_site_label_2
_geom_bond_distance
_ccdc_geom_bond_type
C8    C12   1.605441 S    
O21   C48   1.303343 A    
C36   C37   1.380091 A    
O25   C50   1.303117 A    
C22   C23   1.390706 A    
C19   C20   1.429065 A    
C15   C20   1.380466 A    
C55   H29   1.095853 S    
C29   C30   1.394184 A    
C7    N4    1.492250 S    
N2    O32   1.302608 A    
Cr6   O26   2.027119 S    
C31   C32   1.432365 A    
Cr4   O26   2.061533 S    
C34   O45   1.385505 S    
C18   N2    1.441718 S    
C41   C50   1.432713 S    
C22   H8    1.076835 S    
C52   H20   1.088710 S    
O8    Cr1   1.971350 S    
C3    C20   1.496372 S    
C10   C11   1.581609 S    
C43   C44   1.410772 A    
O19   Cr6   1.987317 S    
C23   C47   1.464925 S    
C15   H6    1.053134 S    
C55   H30   1.094792 S    
C19   N3    1.449797 S    
C16   C17   1.391723 A    
C5    O11   1.301850 A    
C10   C14   1.571022 S    
C30   C31   1.408340 A    
C30   N7    1.439869 S    
C16   O30   1.378505 S    
C40   C41   1.406760 A    
N4    O35   1.297105 A    
C29   C49   1.454120 S    
O20   C50   1.281244 A    
C33   C38   1.391600 A    
C39   N9    1.433043 S    
N10   O52   1.297154 A    
C12   C13   1.530426 S    
C9    H5    1.092676 S    
O6    C3    1.337669 A    
N3    O34   1.297511 A    
O21   Cr4   1.978536 S    
O30   C52   1.394266 S    
C12   C14   1.622187 S    
O16   Cr5   2.096127 S    
O15   Cr4   1.973405 S    
C24   C25   1.394330 A    
C2    C12   1.512368 S    
H3    C13   1.107366 S    
O14   C47   1.292971 A    
C33   H11   1.084043 S    
Cr3   O13   2.034311 S    
C54   H28   1.077573 S    
C40   H14   1.083887 S    
C25   N5    1.441840 S    
C53   H25   1.108568 S    
N2    O31   1.298268 A    
O24   Cr6   2.108258 S    
O12   C6    1.298929 A    
N4    O36   1.297598 A    
C28   C29   1.407007 A    
O1    Cr1   2.091342 S    
C33   C34   1.382655 A    
C43   H16   1.083636 S    
O29   C51   1.371653 S    
C7    C11   1.581684 S    
O10   Cr2   1.982727 S    
C31   N8    1.433653 S    
C9    C13   1.624428 S    
C55   H31   1.093080 S    
O1    C3    1.277745 A    
O19   C47   1.308679 A    
C42   C43   1.380398 A    
N9    O46   1.300062 A    
C17   C18   1.412063 A    
O4    Cr2   1.998468 S    
O17   Cr5   1.995672 S    
C1    C26   1.463596 S    
O15   C45   1.316697 A    
C39   C40   1.387276 A    
C53   H24   1.108108 S    
C37   C38   1.402836 A    
C6    C38   1.439150 S    
O5    Cr3   2.125962 S    
C35   C48   1.444150 S    
O14   Cr4   2.100276 S    
O17   C46   1.265108 A    
C45   O16   1.290510 A    
Cr5   O26   2.035338 S    
C14   N1    1.505205 S    
C17   C45   1.476276 S    
C11   C46   1.467991 S    
N8    O44   1.297758 A    
C21   H7    1.063004 S    
N7    O42   1.301522 A    
C35   C36   1.396829 A    
C10   O50   1.436122 S    
C23   C24   1.396471 A    
C56   H34   1.106564 S    
O7    Cr1   2.102614 S    
O50   C56   1.421362 S    
Cr1   O13   2.060086 S    
C14   H4    1.108012 S    
C51   H18   1.103834 S    
C4    O9    1.298961 A    
O23   Cr5   1.977683 S    
C21   C22   1.393922 A    
N5    O37   1.303202 A    
C53   H23   1.110653 S    
C27   C32   1.402666 A    
C10   N10   1.485108 S    
C18   C19   1.414916 A    
N1    O28   1.292352 A    
C56   H33   1.107424 S    
C37   H13   1.083401 S    
C4    C44   1.442568 S    
O45   C53   1.415752 S    
C5    C32   1.474235 S    
C13   O29   1.413862 S    
N7    O41   1.299404 A    
O25   Cr6   1.997973 S    
C49   O24   1.267413 A    
C27   C28   1.383526 A    
N6    O40   1.301248 A    
O49   C55   1.398660 S    
C24   H9    1.068817 S    
O9    Cr2   2.115336 S    
O2    Cr1   1.980683 S    
C54   H26   1.106579 S    
C8    O48   1.382044 S    
Cr2   O13   2.027818 S    
C42   H15   1.081795 S    
O6    Cr3   1.978176 S    
O8    C4    1.282484 A    
C52   H22   1.107561 S    
O11   Cr3   2.099962 S    
C28   H10   1.083973 S    
C2    O5    1.281916 A    
N9    O47   1.301242 A    
C39   C44   1.399067 A    
C9    O49   1.423021 S    
N1    O27   1.301718 A    
O22   Cr5   2.113319 S    
C9    C11   1.637417 S    
O2    C1    1.304855 A    
C8    H2    1.102382 S    
C41   C42   1.382756 A    
O48   C54   1.364264 S    
C27   N6    1.438213 S    
C21   C26   1.390538 A    
O23   C49   1.298324 A    
O4    C2    1.303536 A    
O7    C6    1.296351 A    
C15   C16   1.395164 A    
C52   H21   1.107581 S    
N8    O43   1.301403 A    
C51   H19   1.109031 S    
C54   H27   1.089739 S    
C7    C8    1.553197 S    
C34   C35   1.415214 A    
O12   Cr3   2.000876 S    
N5    O38   1.300377 A    
O20   Cr4   2.095375 S    
C7    H1    1.103032 S    
C36   H12   1.083730 S    
O3    Cr2   2.102754 S    
N10   O51   1.297420 A    
C48   O22   1.285747 A    
C46   O18   1.291481 A    
O18   Cr6   2.122654 S    
C51   H17   1.094461 S    
C25   C26   1.397130 A    
O10   C5    1.281026 A    
C56   H32   1.106107 S    
N3    O33   1.298488 A    
C1    O3    1.284676 A    
N6    O39   1.301675 A    
