data_mof_unit_50808.cif
_audit_creation_date              2012-12-10T18:38:02-0500
_audit_creation_method            fapswitch 2.2
_symmetry_space_group_name_H-M    P1
_symmetry_Int_Tables_number       1
_space_group_crystal_system       triclinic
_cell_length_a                    15.124782
_cell_length_b                    15.391408
_cell_length_c                    27.394088
_cell_angle_alpha                 92.110323
_cell_angle_beta                  105.938732
_cell_angle_gamma                 81.421951
_cell_volume                      6063.3016636

loop_
_atom_site_label
_atom_site_type_symbol
_atom_type_description
_atom_site_fract_x
_atom_site_fract_y
_atom_site_fract_z
_atom_type_partial_charge
C1    C     C_R   0.441402 0.662668 0.492307 0.929711
C2    C     C_R   0.559083 0.338002 0.510411 0.952998
C3    C     C_R   0.514682 0.435437 0.897997 -0.125683
C4    C     C_R   0.483683 0.497789 0.097258 -0.123216
C5    C     C_R   0.435769 0.424338 0.857765 -0.200962
C6    C     C_R   0.553168 0.534873 0.133829 -0.196893
C7    C     C_R   0.349573 0.423247 0.868133 0.413747
C8    C     C_R   0.630106 0.557548 0.120018 0.390866
C9    C     C_R   0.601516 0.434698 0.888042 0.017889
C10   C     C_R   0.407005 0.474152 0.110917 0.019152
C11   C     C_R   0.512976 0.486222 0.647883 -0.109300
C12   C     C_R   0.490686 0.500217 0.351918 -0.139744
C13   C     C_R   0.417846 0.451367 0.009942 0.124248
C14   C     C_R   0.584698 0.469131 0.987050 0.122240
C15   C     C_R   0.572500 0.498096 0.034843 -0.140875
C16   C     C_R   0.420871 0.446754 0.958608 -0.135336
C17   C     C_R   0.491407 0.482549 0.047262 0.004779
C18   C     C_R   0.506846 0.449399 0.948059 0.006541
C19   C     C_R   0.344963 0.423745 0.025487 -0.172514
C20   C     C_R   0.672281 0.457902 0.977046 -0.172856
C21   C     C_R   0.339151 0.435823 0.074990 -0.180867
C22   C     C_R   0.680393 0.441888 0.928166 -0.178535
C23   C     C_R   0.502114 0.500899 0.594218 0.961467
C24   C     C_R   0.497855 0.498883 0.405888 0.955206
C25   C     C_R   0.340776 0.442710 0.917339 0.323909
C26   C     C_R   0.636485 0.544522 0.070006 0.340370
C27   C     C_R   0.406401 0.756990 0.493211 -0.113721
C28   C     C_R   0.597664 0.246230 0.525488 -0.152041
C29   C     C_R   0.289174 0.877895 0.501565 -0.231126
C30   C     C_R   0.722877 0.124476 0.549444 -0.208857
C31   C     C_R   0.312911 0.789711 0.489402 0.459279
C32   C     C_R   0.693253 0.213363 0.536289 0.464899
C33   C     C_R   0.471760 0.814534 0.503178 -0.280685
C34   C     C_R   0.536157 0.191683 0.531795 -0.264107
C35   C     C_R   0.451171 0.900686 0.518795 0.079737
C36   C     C_R   0.563417 0.101804 0.541464 0.071912
C37   C     C_R   0.357382 0.934228 0.516589 -0.038215
C38   C     C_R   0.658446 0.066754 0.548518 -0.052789
C39   C     C_R   0.521955 0.954658 0.534584 0.006136
C40   C     C_R   0.496376 0.045437 0.539403 0.013312
C41   C     C_R   0.404056 0.077071 0.540180 -0.219443
C42   C     C_R   0.617548 0.920543 0.545752 -0.273868
C43   C     C_R   0.334855 0.022965 0.529207 0.469122
C44   C     C_R   0.685847 0.975144 0.553679 0.467833
C45   C     C_R   0.444664 0.420857 0.807820 0.557394
C46   C     C_R   0.543737 0.547028 0.183454 0.559801
C47   C     C_R   0.859545 0.600085 0.591581 -0.271825
C48   C     C_R   0.140303 0.401169 0.408113 -0.310302
C49   C     C_R   0.765982 0.595134 0.573962 0.532194
C50   C     C_R   0.235360 0.393240 0.431330 0.560699
C51   C     C_R   0.789189 0.526413 0.498166 -0.104536
C52   C     C_R   0.207987 0.498522 0.492977 -0.048482
C53   C     C_R   0.884203 0.541776 0.512745 0.008341
C54   C     C_R   0.111265 0.492623 0.477291 -0.004567
C55   C     C_R   0.918292 0.573090 0.562131 -0.004602
C56   C     C_R   0.078332 0.451100 0.430564 -0.004961
C57   C     C_R   0.948443 0.521559 0.482716 -0.088167
C58   C     C_R   0.046508 0.524483 0.505534 -0.080338
C59   C     C_R   0.076386 0.553038 0.556646 0.522000
C60   C     C_R   0.919200 0.498852 0.430689 0.472815
C61   C     C_R   0.011687 0.576080 0.583721 -0.272157
C62   C     C_R   0.983788 0.458296 0.406681 -0.259906
C63   C     C_R   0.606773 0.429842 0.837820 0.529509
C64   C     C_R   0.402749 0.484779 0.161176 0.529543
C65   C     C_R   0.545833 0.378555 0.715464 -0.063477
C66   C     C_R   0.421046 0.574142 0.270874 -0.076671
C67   C     C_R   0.538113 0.398855 0.665228 -0.251134
C68   C     C_R   0.428365 0.567639 0.322422 -0.298757
C69   C     C_R   0.496539 0.554438 0.681736 0.364587
C70   C     C_R   0.544606 0.437042 0.329151 0.392069
C71   C     C_R   0.506517 0.533056 0.732158 -0.209592
C72   C     C_R   0.537142 0.445070 0.277661 -0.239036
C73   C     C_R   0.529438 0.445803 0.748764 0.250229
C74   C     C_R   0.476094 0.513112 0.248708 0.252882
H1    H     H_    0.465515 0.220624 0.527070 0.218220
H2    H     H_    0.539832 0.790276 0.498935 0.182551
H3    H     H_    0.217457 0.900466 0.500150 0.211507
H4    H     H_    0.796608 0.101534 0.559294 0.221261
H5    H     H_    0.384694 0.143806 0.550672 0.208403
H6    H     H_    0.640922 0.850948 0.549423 0.205191
H7    H     H_    0.035248 0.594658 0.623189 0.162188
H8    H     H_    0.959307 0.432697 0.368702 0.171693
H9    H     H_    0.236534 0.547269 0.519192 0.224843
H10   H     H_    0.761379 0.488997 0.465077 0.246198
H11   H     H_    0.887722 0.625554 0.629219 0.204868
H12   H     H_    0.113712 0.364047 0.374247 0.205895
H13   H     H_    0.493760 0.584138 0.758711 0.170804
H14   H     H_    0.578743 0.398081 0.259557 0.166724
H15   H     H_    0.386380 0.615973 0.339580 0.151263
H16   H     H_    0.550211 0.346087 0.639460 0.148977
H17   H     H_    0.373611 0.626784 0.248354 0.149081
H18   H     H_    0.562799 0.310843 0.728236 0.151169
H19   H     H_    0.281704 0.413839 0.085126 0.195208
H20   H     H_    0.748542 0.437178 0.921800 0.194614
H21   H     H_    0.293670 0.388925 0.000438 0.202205
H22   H     H_    0.735832 0.459743 0.006797 0.201952
N1    N     N_R   0.528330 0.426571 0.799123 -0.353592
N2    N     N_R   0.471529 0.518972 0.196212 -0.348563
N3    N     N_R   0.731710 0.552720 0.528410 -0.176478
N4    N     N_R   0.268290 0.447280 0.471590 -0.179016
O1    O     O_R   0.383110 0.605620 0.485680 -0.592324
O2    O     O_R   0.616890 0.394380 0.514320 -0.566573
O3    O     O_R   0.531900 0.639510 0.503910 -0.588758
O4    O     O_R   0.468100 0.360490 0.496090 -0.565170
O5    O     O_R   0.425620 0.483050 0.562130 -0.628193
O6    O     O_R   0.574380 0.516950 0.437870 -0.628708
O7    O     O_R   0.574410 0.516930 0.580360 -0.529111
O8    O     O_R   0.425590 0.483070 0.419640 -0.567020
O9    O     O_2   0.369968 0.415890 0.767877 -0.512979
O10   O     O_2   0.606483 0.585196 0.219192 -0.553151
O11   O     O_2   0.331882 0.459114 0.175360 -0.543430
O12   O     O_2   0.688652 0.432026 0.827454 -0.533827
Zn1   Zn    Zn3+2 0.400660 0.477380 0.487830 1.034803
Zn2   Zn    Zn3+2 0.599340 0.522620 0.512170 1.051263
S1    S     S_3+6 0.462187 0.666533 0.664219 0.038484
O13   O     O_2   0.545689 0.713120 0.682221 -0.176352
O14   O     O_2   0.423294 0.677873 0.607805 -0.337105
O15   O     O_3   0.382087 0.712979 0.693172 -0.547549
H23   H     H_    0.347751 0.665300 0.697713 0.319676
S2    S     S_3+6 0.620409 0.346062 0.361984 0.001899
O16   O     O_2   0.594671 0.323924 0.408647 -0.321636
O17   O     O_2   0.616380 0.267208 0.327808 -0.286091
O18   O     O_3   0.729502 0.369679 0.378784 -0.554649
H24   H     H_    0.745140 0.375286 0.346323 0.363717
O19   O     O_3   0.758506 0.269651 0.540814 -0.629128
C75   C     C_3   0.805742 0.252069 0.502757 0.125989
H25   H     H_    0.763233 0.286697 0.467409 0.244218
H26   H     H_    0.819837 0.180806 0.494163 0.148336
C76   C     C_3   0.898864 0.286927 0.520166 -0.359871
H27   H     H_    0.886920 0.357623 0.529649 0.239861
H28   H     H_    0.942620 0.251075 0.554989 0.244967
C77   C     C_3   0.950698 0.275600 0.479246 -0.837362
H29   H     H_    0.968309 0.204759 0.471385 0.294603
H30   H     H_    0.016059 0.304756 0.492381 0.267742
H31   H     H_    0.907490 0.309351 0.443688 0.292319
O20   O     O_3   0.246402 0.733935 0.477694 -0.650695
C78   C     C_3   0.185058 0.755595 0.429280 0.058131
H32   H     H_    0.224077 0.760039 0.400504 0.137657
H33   H     H_    0.139855 0.819156 0.430748 0.168165
C79   C     C_3   0.123461 0.683665 0.412897 -0.319182
H34   H     H_    0.167765 0.620286 0.410052 0.229245
H35   H     H_    0.085851 0.676621 0.441813 0.217343
C80   C     C_3   0.052520 0.704461 0.361684 -0.942457
H36   H     H_    0.006333 0.766984 0.363694 0.274777
H37   H     H_    0.009209 0.650834 0.351328 0.254210
H38   H     H_    0.088322 0.709916 0.331778 0.271117
S3    S     S_3+6 0.304009 0.301987 0.411573 0.066504
O21   O     O_2   0.334982 0.235524 0.453714 -0.303283
O22   O     O_2   0.246003 0.260121 0.365795 -0.299057
O23   O     O_3   0.396944 0.327124 0.396233 -0.498714
H39   H     H_    0.426126 0.271022 0.384783 0.403780
S4    S     S_3+6 0.703761 0.640996 0.617755 0.088486
O24   O     O_2   0.702138 0.570326 0.653773 -0.253188
O25   O     O_2   0.755059 0.709724 0.649048 -0.283983
O26   O     O_3   0.595685 0.689752 0.590784 -0.483212
H40   H     H_    0.594248 0.752371 0.600624 0.387441
O27   O     O_3   0.169809 0.549931 0.581916 -0.654053
C81   C     C_3   0.191960 0.630202 0.606371 0.062607
H41   H     H_    0.268313 0.626225 0.614817 0.226309
H42   H     H_    0.175786 0.635491 0.643631 0.149399
C82   C     C_3   0.147386 0.713562 0.573897 -0.472893
H43   H     H_    0.154359 0.702571 0.534922 0.268218
H44   H     H_    0.072160 0.728112 0.571501 0.219664
C83   C     C_3   0.192051 0.793747 0.596442 -0.673562
H45   H     H_    0.188245 0.804053 0.636198 0.266551
H46   H     H_    0.154405 0.852818 0.573708 0.278002
H47   H     H_    0.265713 0.785444 0.595600 0.307991
O28   O     O_3   0.827372 0.511482 0.402807 -0.640622
C84   C     C_3   0.805143 0.596832 0.381802 0.043560
H48   H     H_    0.847916 0.604587 0.355377 0.143865
H49   H     H_    0.816726 0.647324 0.412275 0.155660
C85   C     C_3   0.702637 0.610764 0.352083 -0.305099
H50   H     H_    0.690281 0.560391 0.321805 0.254157
H51   H     H_    0.659435 0.602664 0.378052 0.234101
C86   C     C_3   0.673102 0.701987 0.328011 -0.860715
H52   H     H_    0.683030 0.753334 0.357806 0.258364
H53   H     H_    0.598440 0.709443 0.306698 0.281344
H54   H     H_    0.714392 0.711209 0.301243 0.271586
O29   O     O_3   0.270783 0.413643 0.829149 -0.586123
C87   C     C_3   0.240762 0.332240 0.834058 0.144996
H55   H     H_    0.164854 0.339528 0.815526 0.176288
H56   H     H_    0.250208 0.312999 0.874229 0.137754
C88   C     C_3   0.289477 0.259009 0.807075 -0.354322
H57   H     H_    0.275873 0.276991 0.766491 0.276529
H58   H     H_    0.365688 0.250931 0.824868 0.217900
C89   C     C_3   0.254934 0.171718 0.810199 -0.910420
H59   H     H_    0.269359 0.151471 0.850462 0.261927
H60   H     H_    0.291340 0.120197 0.790272 0.284839
H61   H     H_    0.179042 0.177535 0.791846 0.275862
O30   O     O_3   0.697634 0.597134 0.154406 -0.592549
C90   C     C_3   0.772455 0.531699 0.177000 0.163684
H62   H     H_    0.811823 0.507501 0.149104 0.149687
H63   H     H_    0.747576 0.475065 0.190893 0.131471
C91   C     C_3   0.837540 0.571372 0.222397 -0.310226
H64   H     H_    0.866858 0.625098 0.209026 0.226614
H65   H     H_    0.797682 0.599671 0.249232 0.250321
C92   C     C_3   0.916881 0.502466 0.250463 -0.968236
H66   H     H_    0.889000 0.449423 0.265415 0.267459
H67   H     H_    0.962934 0.533559 0.282920 0.265178
H68   H     H_    0.958558 0.473603 0.224632 0.281967
O31   O     O_3   0.252314 0.461966 0.923931 -0.665169
C93   C     C_3   0.213827 0.549534 0.908384 0.143653
H69   H     H_    0.137071 0.552430 0.896072 0.179525
H70   H     H_    0.234156 0.571025 0.875030 0.153289
C94   C     C_3   0.238903 0.613464 0.952614 -0.394652
H71   H     H_    0.218768 0.591205 0.985666 0.247064
H72   H     H_    0.315056 0.614776 0.963965 0.222867
C95   C     C_3   0.189466 0.706448 0.937933 -0.912036
H73   H     H_    0.209637 0.730517 0.905359 0.269493
H74   H     H_    0.209416 0.751115 0.970604 0.270790
H75   H     H_    0.112923 0.707783 0.927489 0.271832
O32   O     O_3   0.704793 0.579766 0.055733 -0.657681
C96   C     C_3   0.676321 0.670633 0.045038 0.139229
H76   H     H_    0.740155 0.702235 0.052689 0.173638
H77   H     H_    0.634656 0.704188 0.070022 0.150301
C97   C     C_3   0.622521 0.685658 0.989062 -0.389359
H78   H     H_    0.664542 0.651764 0.964579 0.250439
H79   H     H_    0.556223 0.658068 0.981100 0.222457
C98   C     C_3   0.600271 0.783309 0.975770 -0.913459
H80   H     H_    0.557101 0.818345 0.999322 0.263955
H81   H     H_    0.561006 0.791942 0.935149 0.278330
H82   H     H_    0.665380 0.812522 0.982203 0.268700
S5    S     S_3+6 0.220595 0.070486 0.529650 0.024479
O33   O     O_2   0.155897 0.063991 0.477494 -0.293380
O34   O     O_2   0.189319 0.021406 0.566815 -0.311686
O35   O     O_3   0.217221 0.176905 0.546537 -0.539612
H83   H     H_    0.152731 0.196021 0.548391 0.386103
S6    S     S_3+6 0.803596 0.925379 0.565613 0.018906
O36   O     O_2   0.841474 0.948207 0.523159 -0.312857
O37   O     O_2   0.859380 0.959600 0.614777 -0.275530
O38   O     O_3   0.812842 0.815410 0.569491 -0.551834
H84   H     H_    0.879886 0.793819 0.574858 0.380760

loop_
_geom_bond_atom_site_label_1
_geom_bond_atom_site_label_2
_ccdc_geom_bond_type
C50   S3    S    
C32   O19   S    
C65   H18   S    
C66   C68   A    
C42   H6    S    
C75   H25   S    
C48   H12   S    
C52   H9    S    
O1    Zn1   S    
C84   H48   S    
C14   C18   A    
C91   H65   S    
S5    O33   D    
C79   C80   S    
N3    Zn2   S    
S6    O37   D    
C82   H43   S    
S5    O35   S    
O18   H24   S    
C47   C49   A    
C94   H71   S    
C27   C33   A    
C73   N1    S    
C12   C68   A    
C60   O28   S    
C93   H70   S    
O6    Zn2   S    
O2    Zn2   S    
C47   H11   S    
O5    Zn1   S    
C83   H45   S    
S3    O22   D    
C97   H79   S    
C25   O31   S    
C88   H58   S    
C85   H50   S    
C45   O9    S    
C9    C22   A    
C96   C97   S    
C91   C92   S    
C49   N3    A    
C2    O2    A    
C8    O30   S    
C80   H36   S    
C66   C74   A    
C80   H37   S    
C64   O11   S    
C65   C73   A    
O32   C96   S    
C30   C38   A    
C3    C18   A    
C60   C62   A    
C22   H20   S    
C11   C23   S    
C63   O12   S    
C69   C71   A    
O15   H23   S    
C36   C40   A    
C14   C15   A    
C81   C82   S    
C72   H14   S    
O27   C81   S    
S3    O21   D    
C85   H51   S    
C95   H73   S    
S1    O14   D    
C93   C94   S    
C87   H55   S    
C97   C98   S    
C24   O8    A    
C39   C42   A    
C1    O3    A    
S2    O18   S    
C34   H1    S    
C76   C77   S    
C64   N2    A    
C91   H64   S    
C46   N2    A    
C28   C34   A    
C81   H42   S    
C84   H49   S    
C42   C44   A    
S6    O36   D    
C82   H44   S    
C52   C54   A    
C86   H54   S    
C5    C7    A    
C53   C55   A    
C10   C21   A    
C51   N3    A    
C8    C26   A    
C78   C79   S    
C54   C56   A    
C59   C61   A    
C70   C72   A    
C93   H69   S    
C13   C19   A    
C27   C31   A    
C90   H62   S    
C14   C20   A    
C28   C32   A    
S3    O23   S    
C97   H78   S    
C74   N2    S    
C88   C89   S    
C70   S2    S    
C39   C40   A    
C71   C73   A    
C53   C57   A    
C77   H29   S    
C15   C26   A    
C6    C8    A    
C75   C76   S    
C65   C67   A    
C58   C59   A    
C96   H76   S    
C5    C45   A    
C52   N4    A    
C67   H16   S    
O29   C87   S    
C51   C53   A    
O8    Zn1   S    
C37   C43   A    
C92   H68   S    
C35   C39   A    
C88   H57   S    
C90   H63   S    
O7    Zn2   S    
C38   C44   A    
C3    C9    A    
C98   H81   S    
C87   C88   S    
C78   H33   S    
N4    Zn1   S    
C33   H2    S    
C86   H52   S    
C45   N1    A    
S4    O26   S    
C2    O4    A    
S1    O15   S    
C23   O7    A    
O30   C90   S    
O3    Zn2   S    
S5    O34   D    
C68   H15   S    
C7    O29   S    
C16   C18   A    
C79   H34   S    
C92   H67   S    
C44   S6    S    
C71   H13   S    
C4    C17   A    
C72   C74   A    
O28   C84   S    
O38   H84   S    
C63   N1    A    
S4    O25   D    
C86   H53   S    
C46   O10   S    
C81   H41   S    
C84   C85   S    
C56   C62   A    
C4    C6    A    
C24   O6    A    
C80   H38   S    
C11   C67   A    
C4    C10   A    
C36   C38   A    
C1    O1    A    
C98   H80   S    
C82   C83   S    
C19   H21   S    
S2    O16   D    
S2    O17   D    
C85   C86   S    
C47   C55   A    
C76   H27   S    
C54   C58   A    
C94   C95   S    
C35   C37   A    
C16   C25   A    
C48   C56   A    
C12   C70   A    
C69   S1    S    
C75   H26   S    
C6    C46   A    
C49   S4    S    
C19   C21   A    
C9    C63   A    
C83   H47   S    
C10   C64   A    
C41   C43   A    
C20   H22   S    
C20   C22   A    
C31   O20   S    
C3    C5    A    
C41   H5    S    
C26   O32   S    
C11   C69   A    
C15   C17   A    
C66   H17   S    
C79   H35   S    
C78   H32   S    
C12   C24   S    
C50   N4    A    
C7    C25   A    
O31   C93   S    
C13   C17   A    
C89   H61   S    
C83   H46   S    
C96   H77   S    
C29   C31   A    
C95   H74   S    
C61   H7    S    
C87   H56   S    
C30   C32   A    
C59   O27   S    
C57   C58   A    
O19   C75   S    
C21   H19   S    
C95   H75   S    
C55   C61   A    
C48   C50   A    
C77   H31   S    
C33   C35   A    
C34   C36   A    
C62   H8    S    
C92   H66   S    
C90   C91   S    
C2    C28   S    
O4    Zn1   S    
C30   H4    S    
C57   C60   A    
C29   H3    S    
S4    O24   D    
C77   H30   S    
O35   H83   S    
C13   C16   A    
C29   C37   A    
O26   H40   S    
C1    C27   S    
O23   H39   S    
O20   C78   S    
C40   C41   A    
C76   H28   S    
C89   H59   S    
C94   H72   S    
C89   H60   S    
C51   H10   S    
S6    O38   S    
C43   S5    S    
S1    O13   D    
C98   H82   S    
C23   O5    A    
