data_mof_unit_59707.cif
_audit_creation_date              2013-03-05T15:59:03-0500
_audit_creation_method            fapswitch 2.2
_symmetry_space_group_name_H-M    P1
_symmetry_Int_Tables_number       1
_space_group_crystal_system       triclinic
_cell_length_a                    15.08713
_cell_length_b                    13.97538
_cell_length_c                    19.377361
_cell_angle_alpha                 88.446537
_cell_angle_beta                  84.480473
_cell_angle_gamma                 88.122528
_cell_volume                      4063.37969082

loop_
_atom_site_label
_atom_site_type_symbol
_atom_site_description
_atom_site_fract_x
_atom_site_fract_y
_atom_site_fract_z
_atom_type_partial_charge
O1    O     O_R   0.370260 0.582280 0.500020 -0.601327
O2    O     O_R   0.629740 0.417720 0.499980 -0.603840
O3    O     O_R   0.629740 0.582280 0.499980 -0.575623
O4    O     O_R   0.370260 0.417720 0.500020 -0.582160
C1    C     C_R   0.328964 0.501077 0.502117 0.847382
C2    C     C_R   0.670940 0.498685 0.498047 0.862696
O5    O     O_R   0.499990 0.582300 0.400140 -0.559998
O6    O     O_R   0.500010 0.417700 0.599860 -0.571227
O7    O     O_R   0.500010 0.582300 0.599860 -0.549963
O8    O     O_R   0.499990 0.417700 0.400140 -0.540329
C3    C     C_R   0.493634 0.501401 0.367837 0.816748
C4    C     C_R   0.504062 0.498584 0.632394 0.824667
Cu1   Cu    Cu3+1 0.500000 0.597420 0.500000 0.935533
Cu2   Cu    Cu3+1 0.500000 0.402580 0.500000 0.931151
C5    C     C_R   0.482573 0.593357 0.253661 0.200861
C6    C     C_R   0.482729 0.414281 0.750263 0.197431
C7    C     C_R   0.545658 0.574017 0.741452 0.197550
C8    C     C_R   0.465085 0.419521 0.256862 0.209565
C9    C     C_R   0.484268 0.594518 0.180543 0.096223
C10   C     C_R   0.476432 0.417892 0.823362 0.102471
C11   C     C_R   0.548996 0.572824 0.814217 0.102928
C12   C     C_R   0.460449 0.421815 0.184230 0.098956
C13   C     C_R   0.475806 0.508067 0.146302 -0.018457
C14   C     C_R   0.509161 0.497693 0.854802 -0.020622
C15   C     C_R   0.481070 0.504725 0.291738 -0.214018
C16   C     C_R   0.510732 0.495468 0.709077 -0.208198
N1    N     N_R   0.415357 0.535485 0.034189 -0.241659
N2    N     N_R   0.570347 0.473848 0.966710 -0.240494
N3    N     N_R   0.423721 0.533701 0.965257 -0.239581
N4    N     N_R   0.562031 0.475748 0.035615 -0.239101
C17   C     C_R   0.501417 0.503162 0.930566 0.438414
C18   C     C_R   0.484477 0.506584 0.070317 0.439505
C19   C     C_R   0.820591 0.517616 0.434173 0.180545
C20   C     C_R   0.176921 0.497205 0.563544 0.176574
C21   C     C_R   0.768095 0.495588 0.496391 -0.115564
C22   C     C_R   0.232071 0.504018 0.500796 -0.105105
C23   C     C_R   0.807551 0.478951 0.558639 0.076184
C24   C     C_R   0.195317 0.510243 0.436577 0.065540
C25   C     C_R   0.897936 0.502027 0.560936 0.047093
C26   C     C_R   0.101770 0.522643 0.435640 0.048379
C27   C     C_R   0.952817 0.512181 0.497719 -0.092634
C28   C     C_R   0.046205 0.516453 0.498787 -0.089660
C29   C     C_R   0.914701 0.514099 0.433508 0.014905
C30   C     C_R   0.083778 0.512618 0.563063 0.007364
C31   C     C_R   0.934048 0.520005 0.624064 0.254287
C32   C     C_R   0.061993 0.536600 0.372715 0.263488
C33   C     C_R   0.027027 0.527324 0.624989 0.104665
C34   C     C_R   0.971623 0.516864 0.370820 0.105831
C35   C     C_R   0.437104 0.795801 0.541696 0.287566
C36   C     C_R   0.570052 0.201851 0.468377 0.290582
C37   C     C_R   0.556483 0.794552 0.451607 0.286941
C38   C     C_R   0.431411 0.206958 0.537555 0.267212
N5    N     N_R   0.500000 0.743810 0.500000 -0.186269
N6    N     N_R   0.500000 0.256190 0.500000 -0.187145
C39   C     C_R   0.553408 0.898303 0.447364 -0.066697
C40   C     C_R   0.429760 0.103586 0.538342 -0.054279
C41   C     C_R   0.441153 0.897808 0.546113 -0.048199
C42   C     C_R   0.561134 0.102584 0.456174 -0.072068
C43   C     C_R   0.497080 0.949043 0.496853 -0.081339
C44   C     C_R   0.495734 0.051846 0.496875 -0.072479
C45   C     C_R   0.604922 0.954110 0.395566 0.227279
C46   C     C_R   0.367360 0.049057 0.581805 0.219083
C47   C     C_R   0.385963 0.951423 0.595249 0.205663
C48   C     C_R   0.616231 0.053125 0.404539 0.198412
N7    N     N_2   0.482525 0.681761 0.288765 -0.405323
H1    H     H_    0.520852 0.733622 0.263346 0.255265
C49   C     C_3   0.395370 0.718640 0.315149 -0.645463
H2    H     H_    0.352205 0.731068 0.272259 0.208420
H3    H     H_    0.402156 0.787300 0.341327 0.211542
H4    H     H_    0.363391 0.668378 0.354294 0.245431
N8    N     N_2   0.460744 0.328826 0.718092 -0.421459
H5    H     H_    0.404170 0.296570 0.740303 0.248522
C50   C     C_3   0.535150 0.261665 0.704045 -0.639673
H6    H     H_    0.560029 0.234027 0.753068 0.209570
H7    H     H_    0.590515 0.296435 0.671913 0.239565
H8    H     H_    0.513774 0.200181 0.675238 0.213949
N9    N     N_2   0.579716 0.652465 0.699784 -0.411552
H9    H     H_    0.645657 0.665705 0.703596 0.242131
C51   C     C_3   0.522837 0.737822 0.701165 -0.587880
H10   H     H_    0.522924 0.774402 0.751201 0.207161
H11   H     H_    0.453354 0.719804 0.693828 0.248510
H12   H     H_    0.547656 0.787684 0.658647 0.223963
N10   N     N_2   0.449125 0.332854 0.295757 -0.398740
H13   H     H_    0.389066 0.302462 0.289835 0.245683
C52   C     C_3   0.523879 0.265205 0.294442 -0.632504
H14   H     H_    0.542367 0.238945 0.241329 0.207986
H15   H     H_    0.505356 0.203091 0.329067 0.217760
H16   H     H_    0.582615 0.298868 0.313013 0.242944
C53   C     C_3   0.495641 0.688782 0.140089 -0.856806
H17   H     H_    0.492871 0.683062 0.083507 0.244335
H18   H     H_    0.442109 0.740990 0.158450 0.236214
H19   H     H_    0.561503 0.718083 0.147446 0.218852
C54   C     C_3   0.435061 0.335611 0.866767 -0.847131
H20   H     H_    0.435699 0.343579 0.923398 0.240954
H21   H     H_    0.364345 0.329758 0.856484 0.221752
H22   H     H_    0.471500 0.267337 0.853864 0.232402
C55   C     C_3   0.592848 0.651450 0.850083 -0.858270
H23   H     H_    0.541677 0.692072 0.883514 0.235714
H24   H     H_    0.642995 0.619216 0.882815 0.242315
H25   H     H_    0.629037 0.702910 0.814365 0.225482
C56   C     C_3   0.439759 0.333300 0.145548 -0.856600
H26   H     H_    0.498989 0.310913 0.110576 0.241702
H27   H     H_    0.420059 0.271061 0.179253 0.229540
H28   H     H_    0.383297 0.349931 0.113979 0.235567
N11   N     N_2   0.778940 0.558820 0.376640 -0.442844
H29   H     H_    0.811088 0.613698 0.348994 0.262005
C57   C     C_3   0.726294 0.498939 0.337541 -0.706935
H30   H     H_    0.758601 0.490056 0.284137 0.225455
H31   H     H_    0.661144 0.535034 0.332447 0.223544
H32   H     H_    0.716544 0.427299 0.362526 0.221198
N12   N     N_2   0.211800 0.450101 0.622048 -0.437179
H33   H     H_    0.171153 0.401761 0.649690 0.261541
C58   C     C_3   0.268772 0.502199 0.662673 -0.718487
H34   H     H_    0.240497 0.503910 0.717679 0.225295
H35   H     H_    0.276570 0.576594 0.643021 0.220897
H36   H     H_    0.334253 0.464952 0.661450 0.230452
C59   C     C_3   0.753037 0.434720 0.620650 -0.804346
H37   H     H_    0.712104 0.376878 0.603972 0.210570
H38   H     H_    0.795715 0.398716 0.657626 0.241919
H39   H     H_    0.708496 0.489847 0.647194 0.241223
C60   C     C_3   0.253442 0.483911 0.370751 -0.803957
H40   H     H_    0.315022 0.443395 0.381155 0.225042
H41   H     H_    0.217862 0.435122 0.339332 0.237029
H42   H     H_    0.272300 0.548523 0.339359 0.246659
N13   N     N_2   0.876237 0.539334 0.685161 -0.427600
H43   H     H_    0.899086 0.515751 0.731311 0.259291
C61   C     C_3   0.835884 0.634752 0.687338 -0.704719
H44   H     H_    0.792056 0.642562 0.736368 0.220345
H45   H     H_    0.795301 0.647503 0.642928 0.241913
H46   H     H_    0.887639 0.689686 0.685207 0.223830
N14   N     N_2   0.110932 0.577676 0.312831 -0.429069
H47   H     H_    0.089671 0.563178 0.265422 0.265611
C62   C     C_3   0.128032 0.678367 0.318473 -0.717364
H48   H     H_    0.170762 0.703069 0.271956 0.226280
H49   H     H_    0.163472 0.690960 0.364922 0.237519
H50   H     H_    0.064293 0.720926 0.321887 0.225853
C63   C     C_3   0.063400 0.564742 0.689045 -0.866663
H51   H     H_    0.016047 0.614572 0.718080 0.232096
H52   H     H_    0.079483 0.504496 0.724598 0.230872
H53   H     H_    0.121962 0.609164 0.674393 0.250806
C64   C     C_3   0.942512 0.480815 0.303936 -0.883172
H54   H     H_    0.998138 0.441817 0.273914 0.218266
H55   H     H_    0.891432 0.425922 0.314900 0.255761
H56   H     H_    0.918652 0.540957 0.271321 0.236728
C65   C     C_3   0.352589 0.747885 0.569306 -0.756892
H57   H     H_    0.315797 0.731111 0.524668 0.225541
H58   H     H_    0.368167 0.685045 0.601691 0.243560
H59   H     H_    0.302242 0.791725 0.599652 0.191980
C66   C     C_3   0.663433 0.235940 0.467933 -0.722587
H60   H     H_    0.679017 0.287478 0.424424 0.231310
H61   H     H_    0.672615 0.263468 0.519672 0.220292
H62   H     H_    0.713726 0.176615 0.464773 0.211947
C67   C     C_3   0.624572 0.742711 0.402444 -0.684537
H63   H     H_    0.625887 0.666022 0.405550 0.275734
H64   H     H_    0.609590 0.753984 0.348508 0.233117
H65   H     H_    0.692613 0.766531 0.409322 0.191048
C68   C     C_3   0.363727 0.259409 0.586511 -0.663000
H66   H     H_    0.359801 0.224997 0.638779 0.193970
H67   H     H_    0.380243 0.331320 0.597889 0.276345
H68   H     H_    0.297627 0.262402 0.565763 0.236611
N15   N     N_2   0.636704 0.914619 0.330576 -0.443104
H69   H     H_    0.701921 0.927103 0.313236 0.270821
C69   C     C_3   0.576053 0.926785 0.277246 -0.739102
H70   H     H_    0.601306 0.884009 0.231646 0.224414
H71   H     H_    0.570210 0.002967 0.260362 0.222998
H72   H     H_    0.508934 0.901994 0.296744 0.239009
N16   N     N_2   0.283222 0.088649 0.608593 -0.451592
H73   H     H_    0.263222 0.070900 0.659514 0.254135
C70   C     C_3   0.213411 0.079110 0.563324 -0.723910
H74   H     H_    0.152024 0.117589 0.585340 0.229580
H75   H     H_    0.198744 0.002322 0.558248 0.222893
H76   H     H_    0.233557 0.110990 0.511222 0.242168
N17   N     N_2   0.358389 0.911181 0.661968 -0.440391
H77   H     H_    0.290347 0.913471 0.674350 0.247333
C71   C     C_3   0.405341 0.946338 0.717431 -0.737446
H78   H     H_    0.385887 0.022362 0.727722 0.219468
H79   H     H_    0.478501 0.940855 0.703744 0.235545
H80   H     H_    0.388428 0.902949 0.765443 0.235323
N18   N     N_2   0.672502 0.105989 0.354588 -0.433618
H81   H     H_    0.649320 0.115769 0.306608 0.257180
C72   C     C_3   0.767885 0.086649 0.352119 -0.740768
H82   H     H_    0.802166 0.155089 0.355916 0.239323
H83   H     H_    0.793111 0.054630 0.301900 0.218900
H84   H     H_    0.785365 0.037713 0.395313 0.227266

loop_
_geom_bond_atom_site_label_1
_geom_bond_atom_site_label_2
_geom_bond_distance
_ccdc_geom_bond_type
N9    H9    1.027800 S    
C10   C54   1.520807 S    
C27   C28   1.414342 A    
C54   H20   1.107002 S    
C39   C43   1.408987 A    
N1    N3    1.330376 A    
N13   H43   1.031043 S    
C27   C29   1.419280 A    
C70   H74   1.110293 S    
C9    C13   1.409304 A    
C69   H70   1.110065 S    
O3    C2    1.304966 A    
C65   H59   1.096007 S    
N15   H69   1.027594 S    
C66   H60   1.106754 S    
C71   H79   1.110747 S    
N17   H77   1.031173 S    
C26   C32   1.416025 A    
N11   C57   1.448763 S    
C56   H26   1.110105 S    
C12   C56   1.519906 S    
C45   N15   1.422882 S    
C7    C16   1.419543 A    
C54   H22   1.107827 S    
C69   H71   1.108537 S    
C59   H38   1.108652 S    
C65   H57   1.105937 S    
C5    C15   1.424173 A    
C3    C15   1.504005 S    
C42   C44   1.401499 A    
C5    N7    1.426363 S    
C1    C22   1.463735 S    
C55   H23   1.110400 S    
C35   C41   1.434109 A    
C2    C21   1.462300 S    
C50   H6    1.109786 S    
O7    Cu1   1.940837 S    
C60   H42   1.104581 S    
C65   H58   1.097856 S    
C68   H66   1.106573 S    
C10   C14   1.410514 A    
C31   N13   1.427796 S    
N7    C49   1.447967 S    
C62   H50   1.111443 S    
C57   H30   1.108992 S    
C41   C47   1.416544 A    
C67   H64   1.096548 S    
C29   C34   1.418987 A    
C37   C39   1.449545 A    
O3    Cu1   1.961867 S    
C30   C33   1.421069 A    
C6    C10   1.412677 A    
C25   C31   1.417781 A    
C58   H36   1.099985 S    
N9    C51   1.445819 S    
C46   N16   1.424692 S    
C43   C44   1.436204 A    
C54   H21   1.110035 S    
Cu1   Cu2   2.722962 S    
C6    C16   1.421355 A    
C20   N12   1.430751 S    
C50   H7    1.109803 S    
C66   H61   1.106098 S    
O2    C2    1.306682 A    
C6    N8    1.425119 S    
C28   C30   1.416219 A    
N15   C69   1.447871 S    
C38   N6    1.395861 A    
C47   N17   1.425906 S    
C71   H80   1.110069 S    
Cu1   N5    2.045856 S    
C31   C33   1.411728 A    
C42   C48   1.417632 A    
C23   C25   1.416622 A    
C63   H53   1.106693 S    
C32   C34   1.403983 A    
C60   H41   1.110448 S    
C52   H15   1.109080 S    
C49   H2    1.110797 S    
C19   C29   1.417921 A    
C69   H72   1.109273 S    
C19   N11   1.430244 S    
C25   C27   1.417546 A    
C55   H24   1.109999 S    
C59   H39   1.109392 S    
N16   H73   1.029812 S    
C51   H11   1.109260 S    
C48   N18   1.430979 S    
C52   H14   1.109183 S    
C7    C11   1.415350 A    
C40   C44   1.410577 A    
N16   C70   1.445647 S    
C4    C16   1.498323 S    
C37   N5    1.399362 A    
C36   C42   1.426447 A    
C72   H82   1.109645 S    
C45   C48   1.417168 A    
C5    C9    1.414275 A    
C61   H45   1.110449 S    
C46   C47   1.406463 A    
C9    C53   1.520645 S    
N4    C18   1.355826 A    
C11   C55   1.518434 S    
O5    C3    1.317671 A    
N10   H13   1.030778 S    
O5    Cu1   1.952228 S    
O6    C4    1.315112 A    
C33   C63   1.516674 S    
C7    N9    1.423743 S    
C8    N10   1.423980 S    
C35   C65   1.505263 S    
N12   C58   1.445979 S    
C36   N6    1.384646 A    
C53   H19   1.110169 S    
C63   H52   1.108923 S    
C67   H65   1.110617 S    
C60   H40   1.104440 S    
N17   C71   1.447800 S    
O1    C1    1.310210 A    
Cu2   N6    2.045856 S    
C56   H28   1.110595 S    
O8    Cu2   1.940838 S    
C62   H48   1.110478 S    
C57   H32   1.108184 S    
C40   C46   1.426901 A    
C66   H62   1.104305 S    
C53   H18   1.109687 S    
N14   H47   1.029027 S    
C32   N14   1.431107 S    
C55   H25   1.104717 S    
N8    C50   1.449568 S    
C58   H34   1.109907 S    
N11   H29   1.030806 S    
C52   H16   1.110827 S    
C38   C68   1.510730 S    
C20   C30   1.415565 A    
C37   C67   1.512650 S    
O6    Cu2   1.952228 S    
C72   H84   1.112387 S    
N12   H33   1.031363 S    
C21   C23   1.406141 A    
N1    C18   1.355809 A    
C8    C12   1.415305 A    
N2    C17   1.355183 A    
O4    C1    1.302723 A    
N14   C62   1.447856 S    
C51   H12   1.109585 S    
C64   H56   1.109318 S    
N18   H81   1.028557 S    
C68   H68   1.109689 S    
C63   H51   1.105992 S    
C56   H27   1.104654 S    
C49   H4    1.106549 S    
C13   C18   1.466244 S    
C64   H55   1.107233 S    
C53   H17   1.106352 S    
C61   H46   1.110019 S    
N8    H5    1.030043 S    
N3    C17   1.356201 A    
C71   H78   1.111099 S    
C8    C15   1.423578 A    
C59   H37   1.106596 S    
C22   C24   1.409712 A    
C24   C26   1.418111 A    
C36   C66   1.501103 S    
C57   H31   1.101747 S    
C35   N5    1.385763 A    
C39   C45   1.437702 A    
N2    N4    1.329918 A    
C19   C21   1.409860 A    
C23   C59   1.518323 S    
C34   C64   1.511903 S    
C20   C22   1.408558 A    
O4    Cu2   1.961867 S    
N10   C52   1.446493 S    
O2    Cu2   1.975648 S    
O7    C4    1.316319 A    
C14   C17   1.465376 S    
C24   C60   1.523332 S    
C41   C43   1.408331 A    
O8    C3    1.316742 A    
C51   H10   1.108399 S    
C38   C40   1.445331 A    
C72   H83   1.110521 S    
O1    Cu1   1.975649 S    
C50   H8    1.110276 S    
C68   H67   1.076890 S    
N7    H1    1.027418 S    
C11   C14   1.409885 A    
N13   C61   1.447608 S    
C62   H49   1.110984 S    
C26   C28   1.417449 A    
C12   C13   1.408675 A    
N18   C72   1.451956 S    
C70   H76   1.111582 S    
C49   H3    1.109661 S    
C67   H63   1.071460 S    
C64   H54   1.110434 S    
C61   H44   1.109871 S    
C58   H35   1.103527 S    
C70   H75   1.111642 S    
