data_mof_unit_43578.cif
_audit_creation_date              2013-03-05T16:47:21-0500
_audit_creation_method            fapswitch 2.2
_symmetry_space_group_name_H-M    P1
_symmetry_Int_Tables_number       1
_space_group_crystal_system       triclinic
_cell_length_a                    10.901359
_cell_length_b                    10.891633
_cell_length_c                    9.782401
_cell_angle_alpha                 88.730625
_cell_angle_beta                  91.63098
_cell_angle_gamma                 91.070697
_cell_volume                      1160.55475478

loop_
_atom_site_label
_atom_site_type_symbol
_atom_site_description
_atom_site_fract_x
_atom_site_fract_y
_atom_site_fract_z
_atom_type_partial_charge
O1    O     O_R   0.500020 0.321960 0.617040 -0.488974
O2    O     O_R   0.499980 0.321920 0.382900 -0.598786
C1    C     C_R   0.501798 0.265499 0.500906 0.889518
O3    O     O_R   0.319660 0.500030 0.617070 -0.569562
O4    O     O_R   0.319620 0.499990 0.382930 -0.570368
C2    C     C_R   0.262413 0.501616 0.498054 0.823974
Cu1   Cu    Cu3+1 0.500020 0.500020 0.638630 1.058715
Cu2   Cu    Cu3+1 0.499980 0.499980 0.361370 0.999017
O5    O     O_R   0.500020 0.678080 0.617100 -0.567818
O6    O     O_R   0.499980 0.678040 0.382960 -0.568815
O7    O     O_R   0.680380 0.500010 0.617070 -0.579007
O8    O     O_R   0.680340 0.499970 0.382930 -0.595447
C3    C     C_R   0.497993 0.734321 0.498944 0.874810
C4    C     C_R   0.737570 0.501246 0.502055 0.814247
H1    H     H_    0.171137 0.375770 0.871211 0.224431
C5    C     C_R   0.178603 0.521340 0.013860 -0.294550
H2    H     H_    0.214748 0.586152 0.939152 0.213722
C6    C     C_R   0.150966 0.559655 0.145445 0.395859
C7    C     C_R   0.103671 0.471076 0.239419 -0.062705
C8    C     C_R   0.085940 0.348563 0.200281 -0.259332
H3    H     H_    0.048122 0.282299 0.272648 0.212440
C9    C     C_R   0.109898 0.312485 0.067577 0.419342
C10   C     C_R   0.155321 0.400456 0.974844 -0.220023
C11   C     C_R   0.930090 0.510244 0.380059 -0.173562
H4    H     H_    0.877017 0.510932 0.285349 0.156125
C12   C     C_R   0.871707 0.506267 0.505197 -0.044725
C13   C     C_R   0.943225 0.504935 0.627767 0.121235
C14   C     C_R   0.070063 0.514458 0.620584 -0.094763
H5    H     H_    0.123382 0.519684 0.714784 0.152199
C15   C     C_R   0.128403 0.507494 0.495401 -0.059560
C16   C     C_R   0.056440 0.502830 0.373502 0.097726
C17   C     C_R   0.877524 0.571078 0.858993 0.415012
C18   C     C_R   0.834085 0.541195 0.989088 -0.204653
H6    H     H_    0.823003 0.611800 0.063547 0.209656
C19   C     C_R   0.804338 0.419989 0.024747 -0.327025
H7    H     H_    0.771687 0.397270 0.125593 0.189904
C20   C     C_R   0.814961 0.327261 0.930722 -0.127101
H8    H     H_    0.790625 0.233973 0.961108 0.213839
C21   C     C_R   0.859942 0.353277 0.800278 0.332486
C22   C     C_R   0.892264 0.476611 0.763826 -0.161875
C23   C     C_2   0.503370 0.935245 0.386044 -0.087801
C24   C     C_2   0.489663 0.866218 0.499414 -0.238139
H9    H     H_    0.517764 0.892931 0.288382 0.191677
H10   H     H_    0.469511 0.905301 0.596857 0.172779
C25   C     C_2   0.497073 0.069308 0.387412 -0.144649
C26   C     C_2   0.508603 0.133092 0.503143 -0.216406
H11   H     H_    0.484742 0.116229 0.288972 0.202594
H12   H     H_    0.526906 0.089373 0.601558 0.211413
C27   C     C_2   0.485954 0.402980 0.930715 0.465590
N1    N     N_2   0.498640 0.498660 0.846910 -0.346290
H13   H     H_    0.537332 0.576033 0.890326 0.183872
C28   C     C_2   0.519227 0.405983 0.079841 -0.113418
N2    N     N_2   0.498610 0.498630 0.153040 -0.313238
H14   H     H_    0.549016 0.321792 0.130705 0.197885
H15   H     H_    0.459773 0.573411 0.103475 0.214071
N3    N     N_R   0.871812 0.253779 0.707064 0.135989
O9    O     O_R   0.963892 0.250549 0.625560 -0.325915
O10   O     O_R   0.798290 0.158494 0.714658 -0.307583
S1    S     S_3+6 0.429673 0.255492 0.883852 0.021505
O11   O     O_2   0.331227 0.261156 0.773437 -0.256019
O12   O     O_2   0.535296 0.180915 0.839035 -0.301537
O13   O     O_3   0.370511 0.184713 0.022399 -0.548823
H16   H     H_    0.354962 0.098649 0.995115 0.410030
N4    N     N_R   0.170555 0.686894 0.179963 0.143793
O14   O     O_R   0.114444 0.735185 0.280807 -0.307319
O15   O     O_R   0.241053 0.757568 0.105742 -0.323987
N5    N     N_R   0.084712 0.188192 0.026243 0.137440
O16   O     O_R   0.045524 0.105763 0.113776 -0.303771
O17   O     O_R   0.099268 0.156494 0.900332 -0.260313
S2    S     S_3+6 0.910279 0.727124 0.817510 0.049584
O18   O     O_2   0.046434 0.745178 0.804179 -0.255606
O19   O     O_2   0.846987 0.761267 0.683896 -0.261076
O20   O     O_3   0.861407 0.818578 0.940387 -0.496476
H17   H     H_    0.886714 0.902754 0.911189 0.424537

loop_
_geom_bond_atom_site_label_1
_geom_bond_atom_site_label_2
_geom_bond_distance
_ccdc_geom_bond_type
Cu2   N2    2.037974 S    
O4    Cu2   1.983411 S    
C17   S2    1.770818 S    
C11   H4    1.078204 S    
C20   H8    1.082653 S    
C4    C12   1.461749 S    
C23   C24   1.336338 D    
C1    C26   1.445071 S    
C7    C8    1.404734 A    
C27   S1    1.773941 S    
C13   C22   1.480820 S    
Cu2   O8    1.971472 S    
C27   C28   1.494091 S    
C7    C16   1.473209 S    
N4    O14   1.301277 A    
C8    H3    1.083909 S    
S2    O20   1.682330 S    
C14   C15   1.400037 A    
O2    C1    1.295507 A    
C11   C16   1.384649 A    
S1    O11   1.501913 D    
C20   C21   1.401230 A    
C5    C6    1.404431 A    
C25   C26   1.342993 D    
C17   C18   1.399991 A    
Cu1   O7    1.983410 S    
C23   H9    1.086504 S    
C11   C12   1.395158 A    
C6    N4    1.444220 S    
C12   C13   1.411436 A    
O4    C2    1.303382 A    
C24   H10   1.082363 S    
O3    Cu1   1.971473 S    
H1    C10   1.074026 S    
C3    C24   1.441246 S    
C19   C20   1.389615 A    
O8    C4    1.306300 A    
C18   H6    1.081582 S    
C5    C10   1.395654 A    
C17   C22   1.417139 A    
N3    O10   1.301478 A    
C15   C16   1.409941 A    
O7    C4    1.301431 A    
C26   H12   1.079675 S    
C9    N5    1.440682 S    
S1    O12   1.502413 D    
N3    O9    1.301020 A    
C8    C9    1.397697 A    
N2    H15   1.030255 S    
N5    O16   1.301605 A    
C21   C22   1.422688 A    
Cu1   O5    1.946123 S    
Cu1   Cu2   2.712267 S    
S2    O18   1.502567 D    
O5    C3    1.295910 A    
C28   N2    1.277164 D    
O3    C2    1.305155 A    
C6    C7    1.418023 A    
O20   H17   0.990791 S    
C25   H11   1.086258 S    
N5    O17   1.301355 A    
C13   C14   1.388314 A    
C27   N1    1.319251 D    
C21   N3    1.441650 S    
C23   C25   1.463426 S    
C9    C10   1.398388 A    
C14   H5    1.077429 S    
S1    O13   1.682859 S    
S2    O19   1.503162 D    
N1    H13   1.029972 S    
C18   C19   1.392700 A    
O1    Cu1   1.955476 S    
C2    C15   1.462958 S    
Cu2   O6    1.955476 S    
O2    Cu2   1.946122 S    
O13   H16   0.990565 S    
C19   H7    1.080291 S    
Cu1   N1    2.037685 S    
C28   H14   1.084253 S    
C5    H2    1.082037 S    
O1    C1    1.304552 A    
O6    C3    1.302410 A    
N4    O15   1.301999 A    
