data_mof_unit_22318.cif
_audit_creation_date              2012-12-10T18:43:43-0500
_audit_creation_method            fapswitch 2.2
_symmetry_space_group_name_H-M    P1
_symmetry_Int_Tables_number       1
_space_group_crystal_system       triclinic
_cell_length_a                    11.018655
_cell_length_b                    10.813867
_cell_length_c                    9.828942
_cell_angle_alpha                 91.798148
_cell_angle_beta                  101.288193
_cell_angle_gamma                 87.908805
_cell_volume                      1147.38841362

loop_
_atom_site_label
_atom_site_type_symbol
_atom_type_description
_atom_site_fract_x
_atom_site_fract_y
_atom_site_fract_z
_atom_type_partial_charge
C1    C     C_R   0.507558 0.259812 0.499933 0.932237
C2    C     C_R   0.499265 0.740514 0.502113 0.916942
C3    C     C_R   0.261774 0.496891 0.445589 0.917762
C4    C     C_R   0.738844 0.488702 0.553534 0.845370
C5    C     C_R   0.563876 0.585912 0.089400 0.501391
C6    C     C_R   0.428133 0.420259 0.908810 0.426486
C7    C     C_R   0.568288 0.583546 0.946247 0.280045
C8    C     C_R   0.428511 0.418562 0.054920 0.306885
C9    C     C_2   0.138630 0.455675 0.423762 0.340444
C10   C     C_2   0.870405 0.460982 0.574431 0.252097
C11   C     C_2   0.061418 0.503427 0.502425 0.286523
C12   C     C_2   0.932039 0.468712 0.469029 0.345309
C13   C     C_R   0.537842 0.056126 0.386173 0.464510
C14   C     C_R   0.495861 0.943814 0.627479 0.488083
C15   C     C_R   0.522911 0.930006 0.386632 -0.339880
C16   C     C_R   0.507686 0.070276 0.624426 -0.342220
C17   C     C_R   0.504088 0.873198 0.506466 -0.204001
C18   C     C_R   0.517985 0.127136 0.501745 -0.183843
H1    H     H_    0.531396 0.876787 0.293542 0.242351
H2    H     H_    0.507209 0.124146 0.719108 0.206802
N1    N     N_R   0.499970 0.499970 0.857200 -0.211280
N2    N     N_R   0.500030 0.500030 0.142800 -0.209897
O1    O     O_R   0.499990 0.316750 0.614620 -0.588533
O2    O     O_R   0.500010 0.683250 0.385380 -0.582247
O3    O     O_R   0.499990 0.316780 0.385290 -0.569425
O4    O     O_R   0.500010 0.683220 0.614710 -0.551777
O5    O     O_R   0.317810 0.500000 0.571850 -0.590583
O6    O     O_R   0.682190 0.500000 0.428150 -0.556241
O7    O     O_R   0.317810 0.500030 0.342520 -0.574809
O8    O     O_R   0.682190 0.499970 0.657480 -0.627780
Zn1   Zn    Zn3+2 0.500000 0.499980 0.653120 1.031446
Zn2   Zn    Zn3+2 0.500000 0.500020 0.346880 1.058697
O9    O     O_3   0.869213 0.484957 0.332678 -0.610225
C19   C     C_3   0.881057 0.376209 0.251365 0.162494
H3    H     H_    0.905452 0.291168 0.313687 0.162924
H4    H     H_    0.951457 0.390863 0.187060 0.219898
C20   C     C_3   0.762292 0.352083 0.149592 -0.884876
H5    H     H_    0.741661 0.429147 0.078161 0.227350
H6    H     H_    0.775018 0.267958 0.086076 0.219725
H7    H     H_    0.685314 0.339894 0.205047 0.286609
O10   O     O_3   0.093222 0.610356 0.582768 -0.665496
C21   C     C_3   0.109508 0.584390 0.725591 0.193247
H8    H     H_    0.144437 0.487810 0.749842 0.227570
H9    H     H_    0.021173 0.603637 0.761657 0.183305
C22   C     C_3   0.201647 0.670773 0.809476 -0.873846
H10   H     H_    0.160731 0.766120 0.802797 0.245122
H11   H     H_    0.221613 0.643987 0.920017 0.211604
H12   H     H_    0.289201 0.666193 0.769591 0.294428
F1    F     F_    0.623700 0.674303 0.174799 -0.632580
F2    F     F_    0.352086 0.347843 0.817315 -0.667060
F3    F     F_    0.927405 0.416717 0.699554 -0.739078
F4    F     F_    0.120324 0.344600 0.356218 -0.726850
O11   O     O_3   0.629819 0.675458 0.894837 -0.522563
C23   C     C_3   0.756688 0.641654 0.903536 0.209162
H13   H     H_    0.785185 0.677436 0.810207 0.165781
H14   H     H_    0.776424 0.540000 0.902626 0.145096
C24   C     C_3   0.838929 0.701596 0.029251 -0.823033
H15   H     H_    0.829745 0.656115 0.125896 0.317547
H16   H     H_    0.937295 0.690792 0.018575 0.200543
H17   H     H_    0.815102 0.801634 0.036244 0.269950
O12   O     O_3   0.344756 0.352026 0.110248 -0.543583
C25   C     C_3   0.332217 0.228347 0.059670 0.230961
H18   H     H_    0.349509 0.167180 0.150334 0.188352
H19   H     H_    0.399528 0.196651 0.993958 0.138129
C26   C     C_3   0.199091 0.209304 0.984570 -0.757336
H20   H     H_    0.171866 0.274876 0.898629 0.303188
H21   H     H_    0.189115 0.113434 0.941394 0.190603
H22   H     H_    0.135227 0.224843 0.058440 0.261152
O13   O     O_3   0.570742 0.109210 0.272903 -0.634512
C27   C     C_3   0.690975 0.066043 0.258586 0.073141
H23   H     H_    0.729460 0.984950 0.322539 0.158944
H24   H     H_    0.756224 0.141100 0.292819 0.158640
C28   C     C_3   0.690944 0.031315 0.107330 -0.815775
H25   H     H_    0.636484 0.100810 0.037542 0.256387
H26   H     H_    0.787448 0.026313 0.089481 0.213447
H27   H     H_    0.649865 0.939329 0.082112 0.292129
O14   O     O_3   0.486672 0.889761 0.751042 -0.551131
C29   C     C_3   0.373972 0.928702 0.790305 0.100045
H28   H     H_    0.296236 0.882646 0.720854 0.154522
H29   H     H_    0.354436 0.030147 0.783654 0.144724
C30   C     C_3   0.377809 0.895643 0.940682 -0.806438
H30   H     H_    0.283957 0.906600 0.965409 0.197379
H31   H     H_    0.411913 0.798870 0.959586 0.285075
H32   H     H_    0.439353 0.958580 0.011284 0.254345

loop_
_geom_bond_atom_site_label_1
_geom_bond_atom_site_label_2
_ccdc_geom_bond_type
C19   C20   S    
O10   C21   S    
C30   H30   S    
O11   C23   S    
C15   H1    S    
N1    Zn1   S    
C1    C18   S    
C20   H5    S    
N2    Zn2   S    
C13   C18   A    
O7    Zn2   S    
O8    Zn1   S    
C29   H29   S    
C24   H16   S    
C19   H3    S    
C28   H25   S    
C14   O14   S    
C3    O7    A    
C25   H19   S    
C30   H31   S    
C5    N2    A    
C26   H21   S    
C8    N2    A    
C27   H23   S    
O14   C29   S    
C8    O12   S    
O3    Zn2   S    
O4    Zn1   S    
C2    C17   S    
C1    O3    A    
C28   H26   S    
C14   C17   A    
C5    F1    S    
O13   C27   S    
C9    F4    S    
C21   H9    S    
C10   F3    S    
C4    O6    A    
C22   H11   S    
C23   H14   S    
O5    Zn1   S    
O6    Zn2   S    
C5    C7    A    
C29   H28   S    
C24   H17   S    
C6    C8    A    
C7    N1    A    
C6    N1    A    
C21   C22   S    
O1    Zn1   S    
O2    Zn2   S    
C25   H18   S    
C3    C9    S    
C16   H2    S    
C26   H22   S    
C27   C28   S    
O9    C19   S    
C2    O4    A    
C6    F2    S    
C9    C11   D    
C10   C12   D    
C1    O1    A    
C13   C15   A    
C2    O2    A    
C28   H27   S    
C14   C16   A    
C21   H8    S    
C7    O11   S    
C4    C10   S    
C30   H32   S    
C22   H12   S    
C15   C17   A    
C23   H13   S    
C25   C26   S    
C11   C12   S    
C20   H7    S    
C3    O5    A    
C20   H6    S    
C29   C30   S    
C24   H15   S    
C13   O13   S    
C11   O10   S    
C19   H4    S    
O12   C25   S    
C22   H10   S    
C16   C18   A    
C26   H20   S    
C27   H24   S    
C12   O9    S    
C4    O8    A    
C23   C24   S    
