data_mof_unit_58734.cif
_audit_creation_date              2012-10-26T19:03:31-0400
_audit_creation_method            fapswitch 2.2
_symmetry_space_group_name_H-M    P1
_symmetry_Int_Tables_number       1
_space_group_crystal_system       triclinic
_cell_length_a                    10.782181
_cell_length_b                    13.007722
_cell_length_c                    11.689779
_cell_angle_alpha                 100.004115
_cell_angle_beta                  93.802361
_cell_angle_gamma                 90.476116
_cell_volume                      1610.69986266

loop_
_atom_site_label
_atom_site_type_symbol
_atom_type_description
_atom_site_fract_x
_atom_site_fract_y
_atom_site_fract_z
_atom_type_partial_charge
C1    C     C_R   0.498065 0.299108 0.478570 0.536235
C2    C     C_R   0.494993 0.122658 0.356370 -0.111340
C3    C     C_R   0.499312 0.140395 0.566848 -0.139179
C4    C     C_R   0.262632 0.497571 0.500013 0.544737
C5    C     C_R   0.500031 0.032042 0.558341 0.032458
C6    C     C_R   0.498278 0.969086 0.446383 0.037132
C7    C     C_R   0.499217 0.861099 0.435531 -0.126882
C8    C     C_R   0.503673 0.876292 0.645664 -0.131780
C9    C     C_R   0.502639 0.984735 0.658413 -0.015005
C10   C     C_R   0.385567 0.400618 0.020007 -0.163820
C11   C     C_R   0.395230 0.409937 0.142063 0.133684
C12   C     C_R   0.067043 0.412467 0.541332 0.017402
C13   C     C_R   0.549734 0.543423 0.157499 0.041316
C14   C     C_R   0.542272 0.536522 0.034474 0.004955
C15   C     C_R   0.459060 0.463934 0.965257 0.001428
C16   C     C_R   0.501655 0.700926 0.521548 0.542845
C17   C     C_R   0.451089 0.456562 0.842570 0.059731
C18   C     C_R   0.604322 0.590267 0.856465 0.051771
C19   C     C_R   0.615442 0.600077 0.978740 -0.163297
C20   C     C_R   0.737418 0.498742 0.499575 0.523839
C21   C     C_R   0.132056 0.329677 0.580479 -0.087938
C22   C     C_R   0.068245 0.249649 0.618362 -0.113734
C23   C     C_R   0.129132 0.492882 0.499743 -0.038561
C24   C     C_R   0.939153 0.249792 0.616656 -0.108722
C25   C     C_R   0.873190 0.330156 0.577449 -0.091724
C26   C     C_R   0.935991 0.413237 0.540132 -0.004454
C27   C     C_1   0.503962 0.044913 0.774846 0.171392
C28   C     C_1   0.316509 0.343361 0.193607 0.262103
C29   C     C_R   0.063808 0.570830 0.455470 -0.075323
C30   C     C_R   0.935877 0.574790 0.456492 0.219297
C31   C     C_R   0.871286 0.495673 0.499026 -0.001535
C32   C     C_R   0.501795 0.814412 0.534623 -0.012885
C33   C     C_R   0.497194 0.185758 0.466607 -0.005925
C34   C     C_R   0.495556 0.014770 0.346334 -0.122641
Cu1   Cu    Cu3+1 0.509250 0.507730 0.615930 0.932371
Cu2   Cu    Cu3+1 0.490750 0.492270 0.384070 0.968720
H1    H     H_    0.113428 0.631635 0.423220 0.153314
H2    H     H_    0.119130 0.186705 0.647988 0.121486
H3    H     H_    0.889747 0.186911 0.644933 0.125343
H4    H     H_    0.772930 0.325420 0.575479 0.139262
H5    H     H_    0.497970 0.813473 0.349516 0.127799
H6    H     H_    0.505481 0.840216 0.722701 0.138869
H7    H     H_    0.494101 0.967061 0.260431 0.117820
H8    H     H_    0.793070 0.664953 0.441420 0.331319
H9    H     H_    0.493342 0.156552 0.277966 0.151767
H10   H     H_    0.500551 0.189901 0.651580 0.139478
H11   H     H_    0.387026 0.400822 0.788895 0.115479
H12   H     H_    0.661001 0.639742 0.814573 0.131196
H13   H     H_    0.320639 0.344212 0.968094 0.102901
H14   H     H_    0.680598 0.656987 0.029101 0.104286
H15   H     H_    0.613867 0.598961 0.211332 0.134188
H16   H     H_    0.232166 0.325045 0.580710 0.128497
N1    N     N_R   0.523180 0.519350 0.790130 -0.230132
N2    N     N_R   0.476820 0.480650 0.209890 -0.245827
N3    N     N_1   0.504969 0.093093 0.867987 -0.309652
N4    N     N_1   0.252715 0.289522 0.234255 -0.300241
O1    O     O_R   0.506570 0.354460 0.582000 -0.527638
O2    O     O_R   0.490940 0.341410 0.386200 -0.493095
O3    O     O_R   0.327470 0.506530 0.597920 -0.505814
O4    O     O_R   0.311840 0.493480 0.402120 -0.488599
O5    O     O_R   0.509060 0.658590 0.613800 -0.507020
O6    O     O_R   0.493430 0.645540 0.418000 -0.516753
O7    O     O_R   0.688160 0.506520 0.597880 -0.510640
O8    O     O_R   0.672530 0.493470 0.402080 -0.495086
O9    O     O_3   0.879095 0.658283 0.417062 -0.699184

loop_
_geom_bond_atom_site_label_1
_geom_bond_atom_site_label_2
_ccdc_geom_bond_type
C16   O5    A    
C20   O8    A    
C18   H12   S    
C5    C9    A    
C6    C7    A    
C1    O1    A    
Cu1   N1    S    
C17   H11   S    
C3    H10   S    
Cu1   Cu2   S    
C19   H14   S    
C9    C27   S    
C30   C31   A    
Cu1   O1    S    
C4    O4    A    
C20   O7    A    
C12   C21   A    
C28   N4    T    
C1    C33   S    
C26   C31   A    
Cu1   O5    S    
C13   H15   S    
C13   C14   A    
C12   C23   A    
C2    C34   A    
H8    O9    S    
C29   C30   A    
C11   N2    A    
C1    O2    A    
C11   C28   S    
Cu2   O6    S    
C23   C29   A    
C4    O3    A    
C21   C22   A    
C8    H6    S    
C13   N2    A    
Cu2   O2    S    
C10   C15   A    
C7    H5    S    
C25   H4    S    
C5    C6    A    
C27   N3    T    
C30   O9    S    
C16   C32   S    
C2    H9    S    
C3    C33   A    
C22   H2    S    
C17   N1    A    
C24   H3    S    
Cu2   N2    S    
C24   C25   A    
C2    C33   A    
Cu1   O3    S    
C18   C19   A    
C10   C11   A    
C22   C24   A    
C29   H1    S    
C15   C17   A    
C4    C23   S    
C14   C15   A    
Cu1   O7    S    
C7    C32   A    
C18   N1    A    
C3    C5    A    
C25   C26   A    
Cu2   O8    S    
C10   H13   S    
C14   C19   A    
C16   O6    A    
C21   H16   S    
C34   H7    S    
C6    C34   A    
C12   C26   A    
C8    C9    A    
Cu2   O4    S    
C20   C31   S    
C8    C32   A    
