data_mof_unit_42438.cif
_audit_creation_date              2012-12-11T17:01:29-0500
_audit_creation_method            fapswitch 2.2
_symmetry_space_group_name_H-M    P1
_symmetry_Int_Tables_number       1
_space_group_crystal_system       triclinic
_cell_length_a                    14.933281
_cell_length_b                    14.838543
_cell_length_c                    14.857821
_cell_angle_alpha                 109.300545
_cell_angle_beta                  108.937925
_cell_angle_gamma                 109.73211
_cell_volume                      2548.09902397

loop_
_atom_site_label
_atom_site_type_symbol
_atom_type_description
_atom_site_fract_x
_atom_site_fract_y
_atom_site_fract_z
_atom_type_partial_charge
Br1   Br    Br    0.349475 0.733745 0.994282 -0.678027
C1    C     C_R   0.004084 0.804428 0.097438 -0.157804
C2    C     C_R   0.219187 0.747227 0.313512 -0.132772
C3    C     C_R   0.904582 0.409340 0.210138 -0.147700
C4    C     C_R   0.790454 0.195568 0.699992 -0.194721
C5    C     C_R   0.295155 0.592994 0.987484 0.267427
C6    C     C_R   0.933714 0.501410 0.302864 0.087380
C7    C     C_R   0.296597 0.502085 0.922480 -0.052281
C8    C     C_R   0.322039 0.776539 0.325550 0.036318
C9    C     C_R   0.051026 0.225424 0.052733 0.080651
C10   C     C_3   0.470568 0.394591 0.827751 -0.410761
C11   C     C_3   0.366222 0.399286 0.817444 -0.380880
C12   C     C_R   0.700908 0.132482 0.703434 0.002184
C13   C     C_3   0.564909 0.505403 0.034335 -0.382436
C14   C     C_3   0.571290 0.600380 0.920536 -0.439339
C15   C     C_3   0.572615 0.500327 0.931203 0.397352
C16   C     C_R   0.025099 0.593408 0.779083 -0.087955
C17   C     C_3   0.395169 0.501533 0.920545 0.376658
C18   C     C_3   0.457427 0.497740 0.024005 -0.411308
C19   C     C_3   0.471851 0.606210 0.924702 -0.349619
C20   C     C_R   0.506892 0.010520 0.602465 0.185715
C21   C     C_R   0.608907 0.026664 0.617495 0.051347
C22   C     C_R   0.616749 0.946428 0.542494 -0.206451
C23   C     C_R   0.951685 0.502805 0.675653 0.040805
C24   C     C_R   0.521174 0.856313 0.447804 -0.198292
C25   C     C_R   0.419556 0.847692 0.430450 0.049649
C26   C     C_R   0.413814 0.921665 0.512173 0.125341
C27   C     C_3   0.358479 0.988411 0.502614 -0.507782
C28   C     C_R   0.686834 0.409078 0.930167 -0.143057
C29   C     C_3   0.462318 0.086976 0.601660 -0.491602
C30   C     C_R   0.944881 0.605256 0.479301 0.157506
C31   C     C_R   0.897901 0.505353 0.383923 0.029714
C32   C     C_R   0.830098 0.408127 0.377744 -0.203531
C33   C     C_R   0.833864 0.409063 0.473474 -0.194370
C34   C     C_R   0.675624 0.501267 0.946672 -0.009330
C35   C     C_R   0.906349 0.506913 0.574871 0.037800
C36   C     C_R   0.949527 0.606106 0.573796 0.148671
C37   C     C_3   0.061010 0.706459 0.643991 -0.497641
C38   C     C_3   0.055464 0.705758 0.540773 -0.525097
C39   C     C_R   0.056404 0.035804 0.162351 0.158824
C40   C     C_R   0.936599 0.409298 0.685331 -0.121474
C41   C     C_R   0.102801 0.986464 0.109011 0.033760
C42   C     C_R   0.171486 0.047752 0.079956 -0.198921
C43   C     C_R   0.168630 0.140252 0.077371 -0.205365
C44   C     C_R   0.096249 0.170045 0.102699 0.032090
C45   C     C_R   0.993965 0.591770 0.298672 -0.159565
C46   C     C_R   0.052570 0.126158 0.158745 0.161077
C47   C     C_3   0.941102 0.086077 0.148297 -0.513361
C48   C     C_3   0.945928 0.988010 0.153070 -0.519911
C49   C     C_R   0.777605 0.592922 0.025155 -0.132223
C50   C     C_R   0.706051 0.193268 0.799973 0.209012
C51   C     C_R   0.094560 0.805602 0.005050 -0.127168
C52   C     C_R   0.065400 0.869213 0.068146 0.066332
C53   C     C_3   0.681290 0.144409 0.870288 -0.358836
C54   C     C_3   0.565541 0.102579 0.853967 -0.932296
C55   C     C_R   0.208115 0.410236 0.900391 -0.209707
C56   C     C_R   0.314318 0.749979 0.223709 -0.098995
C57   C     C_R   0.976644 0.254799 0.068972 -0.169627
C58   C     C_R   0.066586 0.250191 0.974450 -0.123029
H1    H     H_    0.985237 0.832190 0.162148 0.101719
H2    H     H_    0.326532 0.403873 0.742745 0.160825
H3    H     H_    0.817436 0.167430 0.642433 0.111758
H4    H     H_    0.308478 0.321277 0.807204 0.145145
H5    H     H_    0.570879 0.436860 0.046066 0.158682
H6    H     H_    0.406970 0.419626 0.019444 0.163055
H7    H     H_    0.645884 0.679370 0.987336 0.154834
H8    H     H_    0.567517 0.592166 0.841992 0.168407
H9    H     H_    0.427146 0.616282 0.855927 0.188469
H10   H     H_    0.504151 0.680009 0.003440 0.203775
H11   H     H_    0.633788 0.584005 0.108803 0.157589
H12   H     H_    0.179035 0.325075 0.845978 0.108473
H13   H     H_    0.474529 0.566896 0.098954 0.156307
H14   H     H_    0.695630 0.957282 0.553184 0.130942
H15   H     H_    0.051751 0.678740 0.803303 0.107947
H16   H     H_    0.527002 0.798748 0.385565 0.129615
H17   H     H_    0.340235 0.994855 0.426921 0.208867
H18   H     H_    0.288639 0.963518 0.518466 0.186916
H19   H     H_    0.505480 0.149864 0.583278 0.196920
H20   H     H_    0.450896 0.120026 0.673183 0.194191
H21   H     H_    0.785249 0.329619 0.303326 0.130302
H22   H     H_    0.791547 0.331210 0.469163 0.129861
H23   H     H_    0.380105 0.763517 0.204944 0.142033
H24   H     H_    0.060928 0.778914 0.698397 0.189673
H25   H     H_    0.126036 0.690315 0.684659 0.215983
H26   H     H_    0.051564 0.777494 0.535540 0.187135
H27   H     H_    0.624424 0.324536 0.875289 0.109127
H28   H     H_    0.117327 0.689495 0.523747 0.204211
H29   H     H_    0.216195 0.017554 0.046198 0.135180
H30   H     H_    0.211309 0.177856 0.041810 0.126298
H31   H     H_    0.941440 0.140931 0.220773 0.192801
H32   H     H_    0.876041 0.062057 0.067539 0.200343
H33   H     H_    0.949876 0.986861 0.228678 0.189013
H34   H     H_    0.949775 0.252681 0.127539 0.116598
H35   H     H_    0.883647 0.909492 0.075358 0.200732
H36   H     H_    0.884365 0.324358 0.621313 0.097548
H37   H     H_    0.798924 0.678316 0.063222 0.091730
H38   H     H_    0.155776 0.834738 0.982274 0.121184
H39   H     H_    0.012327 0.675143 0.345095 0.099143
H40   H     H_    0.537457 0.162512 0.854128 0.242915
H41   H     H_    0.507099 0.022325 0.778042 0.265046
H42   H     H_    0.564560 0.088393 0.922587 0.259695
H43   H     H_    0.699038 0.075531 0.856508 0.188565
H44   H     H_    0.737870 0.207473 0.957919 0.189792
H45   H     H_    0.120135 0.239461 0.942886 0.091021
H46   H     H_    0.196561 0.757849 0.376786 0.105575
H47   H     H_    0.843921 0.325445 0.178691 0.086668
H48   H     H_    0.463911 0.320014 0.833517 0.147901
H49   H     H_    0.476741 0.386169 0.753065 0.157454
N1    N     N_R   0.995640 0.706130 0.053910 -0.040574
N2    N     N_R   0.054010 0.556790 0.847890 -0.027497
N3    N     N_R   0.789940 0.443190 0.997130 -0.036746
N4    N     N_R   0.997630 0.443170 0.791110 -0.039612
N5    N     N_R   0.846320 0.556810 0.053910 -0.036534
N6    N     N_R   0.791080 0.293860 0.847890 -0.070112
N7    N     N_R   0.052880 0.706130 0.997130 -0.037325
N8    N     N_R   0.002370 0.556830 0.208890 -0.037684
N9    N     N_R   0.153680 0.443190 0.946090 -0.048371
N10   N     N_R   0.208920 0.706140 0.152110 -0.029079
N11   N     N_R   0.947120 0.293870 0.002870 -0.050452
N12   N     N_R   0.004360 0.293870 0.946090 -0.038062
N13   N     N_R   0.151690 0.706140 0.208890 -0.044429
N14   N     N_R   0.945990 0.443210 0.152110 -0.039986
N15   N     N_R   0.210060 0.556810 0.002870 -0.058139
N16   N     N_R   0.848310 0.293860 0.791110 -0.049761
Ni1   Ni    Ni4+2 0.999010 0.630300 0.130220 0.201943
Ni2   Ni    Ni4+2 0.000990 0.369700 0.869780 0.205787
Ni3   Ni    Ni4+2 0.130280 0.630280 0.000000 0.267734
Ni4   Ni    Ni4+2 0.869720 0.369720 0.000000 0.198558

loop_
_geom_bond_atom_site_label_1
_geom_bond_atom_site_label_2
_ccdc_geom_bond_type
C39   C46   A    
C1    N1    A    
C58   N12   A    
C37   H24   S    
C55   N9    A    
C38   H28   S    
C16   N2    A    
C7    C55   A    
C28   N3    A    
C2    H46   S    
C4    N16   A    
C25   C26   A    
C23   C35   S    
N8    N14   A    
C42   H29   S    
C35   C36   A    
C9    C57   A    
C57   H34   S    
C15   C34   S    
C37   C38   S    
C1    H1    S    
N5    Ni1   S    
C39   C48   S    
C51   H38   S    
N7    Ni3   S    
C17   C19   S    
C17   C18   S    
C12   C50   A    
C30   C31   A    
C40   N4    A    
C54   H41   S    
C4    H3    S    
C33   H22   S    
C48   H35   S    
N9    Ni2   S    
C4    C12   A    
N2    Ni3   S    
N6    N16   A    
N11   Ni4   S    
C39   C41   A    
C45   H39   S    
C13   H5    S    
C47   H31   S    
C20   C21   A    
N14   Ni4   S    
C23   C40   A    
C13   H11   S    
C18   H13   S    
C5    N15   A    
C22   H14   S    
C3    C6    A    
C19   H9    S    
C8    C25   S    
C44   C46   A    
C14   C19   S    
C50   N6    A    
C14   C15   S    
Br1   C5    S    
C16   C23   A    
C6    C45   A    
C53   H44   S    
C11   H4    S    
C5    C7    A    
C24   C25   A    
C14   H7    S    
C3    H47   S    
C47   H32   S    
C7    C17   S    
C30   C36   A    
C24   H16   S    
N10   N13   A    
C42   C43   A    
N13   Ni1   S    
C36   C37   S    
C2    C8    A    
N6    Ni4   S    
C10   C15   S    
N15   Ni3   S    
C46   C47   S    
N11   N12   A    
C55   H12   S    
C14   H8    S    
C34   C49   A    
C32   C33   A    
C3    N14   A    
N3    N5    A    
C27   H18   S    
C28   H27   S    
N12   Ni2   S    
C29   H20   S    
N1    Ni1   S    
C47   C48   S    
N8    Ni1   S    
C10   H48   S    
C16   H15   S    
C13   C15   S    
C19   H10   S    
N10   Ni3   S    
C38   H26   S    
C48   H33   S    
C11   C17   S    
C27   H17   S    
C10   H49   S    
C51   C52   A    
N16   Ni2   S    
C51   N7    A    
C54   H42   S    
C53   C54   S    
C6    C31   S    
C37   H25   S    
C21   C22   A    
N4    Ni2   S    
C13   C18   S    
C53   H43   S    
C43   C44   A    
C1    C52   A    
C58   H45   S    
C10   C11   S    
C32   H21   S    
C20   C29   S    
C28   C34   A    
C45   N8    A    
C49   N5    A    
C31   C32   A    
C50   C53   S    
C27   C29   S    
C9    C58   A    
N9    N15   A    
C41   C52   S    
C11   H2    S    
C49   H37   S    
C40   H36   S    
C57   N11   A    
C33   C35   A    
C30   C38   S    
C12   C21   S    
C18   H6    S    
C8    C56   A    
C22   C24   A    
C20   C26   A    
N2    N4    A    
N1    N7    A    
C29   H19   S    
C41   C42   A    
C9    C44   S    
C54   H40   S    
N3    Ni4   S    
C56   H23   S    
C43   H30   S    
C2    N13   A    
C56   N10   A    
C26   C27   S    
