data_mof_unit_12364.cif
_audit_creation_date              2012-12-10T18:59:53-0500
_audit_creation_method            fapswitch 2.2
_symmetry_space_group_name_H-M    P1
_symmetry_Int_Tables_number       1
_space_group_crystal_system       triclinic
_cell_length_a                    10.799973
_cell_length_b                    10.671828
_cell_length_c                    9.88497
_cell_angle_alpha                 87.617353
_cell_angle_beta                  89.563969
_cell_angle_gamma                 89.769541
_cell_volume                      1138.27095543

loop_
_atom_site_label
_atom_site_type_symbol
_atom_type_description
_atom_site_fract_x
_atom_site_fract_y
_atom_site_fract_z
_atom_type_partial_charge
C1    C     C_R   0.498833 0.260440 0.501758 0.918763
C2    C     C_R   0.501446 0.739571 0.498184 0.915210
C3    C     C_R   0.872364 0.498359 0.501017 -0.107898
C4    C     C_R   0.127552 0.500220 0.499108 -0.117566
C5    C     C_R   0.936596 0.440801 0.611537 -0.064948
C6    C     C_R   0.063220 0.558021 0.388868 -0.092864
C7    C     C_R   0.398906 0.061373 0.559505 -0.006019
C8    C     C_R   0.601210 0.938727 0.439933 -0.013781
C9    C     C_R   0.401430 0.931825 0.560245 0.107544
C10   C     C_R   0.598244 0.068271 0.438235 0.091611
C11   C     C_R   0.500365 0.872067 0.496379 -0.116455
C12   C     C_R   0.499874 0.127984 0.503269 -0.120959
C13   C     C_R   0.547781 0.598781 0.066027 0.194057
C14   C     C_R   0.452265 0.401190 0.933973 0.192752
C15   C     C_R   0.547411 0.598458 0.922524 -0.175770
C16   C     C_R   0.452607 0.401529 0.077479 -0.180682
C17   C     C_R   0.260173 0.500816 0.499931 0.909976
C18   C     C_R   0.739790 0.498713 0.500133 0.913820
C19   C     C_R   0.220154 0.804122 0.154909 -0.136996
C20   C     C_R   0.771279 0.204273 0.848777 -0.167226
C21   C     C_R   0.157850 0.750821 0.268159 0.138993
C22   C     C_R   0.833629 0.255324 0.733871 0.146563
C23   C     C_R   0.126932 0.621652 0.270680 0.128135
C24   C     C_R   0.872647 0.381485 0.732007 0.147022
C25   C     C_R   0.152430 0.551658 0.156231 -0.154546
C26   C     C_R   0.853176 0.452514 0.846917 -0.181117
C27   C     C_R   0.211606 0.607269 0.043107 -0.143278
C28   C     C_R   0.793133 0.399826 0.961056 -0.137806
C29   C     C_R   0.247094 0.732677 0.043274 -0.158010
C30   C     C_R   0.751171 0.276458 0.961448 -0.138642
C31   C     C_R   0.935017 0.558269 0.391383 0.033787
C32   C     C_R   0.064908 0.441078 0.609343 0.034527
H1    H     H_    0.294843 0.774836 0.956385 0.129254
H2    H     H_    0.702901 0.236734 0.049217 0.129854
H3    H     H_    0.586188 0.676926 0.864011 0.141336
H4    H     H_    0.413859 0.323049 0.135994 0.143095
H5    H     H_    0.246216 0.902080 0.152689 0.130412
H6    H     H_    0.738900 0.108300 0.851552 0.118342
H7    H     H_    0.126866 0.453643 0.155189 0.126742
H8    H     H_    0.883988 0.548965 0.847486 0.125490
H9    H     H_    0.231139 0.552827 0.955592 0.144573
H10   H     H_    0.777673 0.455015 0.048849 0.144295
N1    N     N_R   0.499970 0.499970 0.857200 -0.073771
N2    N     N_R   0.500030 0.500030 0.142800 -0.073872
O1    O     O_R   0.499990 0.316750 0.614620 -0.598768
O2    O     O_R   0.500010 0.683250 0.385380 -0.597127
O3    O     O_R   0.499990 0.316780 0.385290 -0.625961
O4    O     O_R   0.500010 0.683220 0.614710 -0.628532
O5    O     O_R   0.316760 0.500000 0.614660 -0.586728
O6    O     O_R   0.683240 0.500000 0.385340 -0.585647
O7    O     O_R   0.316760 0.500020 0.385330 -0.622452
O8    O     O_R   0.683240 0.499980 0.614670 -0.624630
Zn1   Zn    Zn3+2 0.500000 0.499980 0.653120 0.973618
Zn2   Zn    Zn3+2 0.500000 0.500020 0.346880 0.975486
N3    N     N_3   0.125253 0.830761 0.376245 -0.484520
H11   H     H_    0.079332 0.781523 0.454867 0.178383
H12   H     H_    0.062437 0.897761 0.337820 0.172366
N4    N     N_3   0.857986 0.179945 0.619846 -0.480334
H13   H     H_    0.953794 0.168353 0.611458 0.172413
H14   H     H_    0.821375 0.090083 0.637229 0.176518
N5    N     N_3   0.867564 0.623934 0.285114 -0.443093
H15   H     H_    0.890519 0.585458 0.192730 0.182927
H16   H     H_    0.893668 0.718179 0.281275 0.175428
N6    N     N_3   0.132571 0.378857 0.717770 -0.441696
H17   H     H_    0.110783 0.421171 0.808398 0.182121
H18   H     H_    0.106302 0.284772 0.726201 0.172481
N7    N     N_3   0.289441 0.123237 0.606165 -0.487872
H19   H     H_    0.312649 0.177411 0.686939 0.220904
H20   H     H_    0.255785 0.182408 0.527736 0.179180
N8    N     N_3   0.710747 0.876977 0.393430 -0.492548
H21   H     H_    0.687493 0.822341 0.313053 0.223988
H22   H     H_    0.744616 0.818269 0.472139 0.173530
N9    N     N_3   0.306348 0.860017 0.629662 -0.439795
H23   H     H_    0.220055 0.892623 0.596838 0.212505
H24   H     H_    0.312090 0.877814 0.732571 0.177778
N10   N     N_3   0.691575 0.140055 0.365691 -0.432185
H25   H     H_    0.779001 0.108434 0.395975 0.211524
H26   H     H_    0.683433 0.121421 0.263212 0.179418
N11   N     N_3   0.599378 0.702992 0.130458 -0.413106
H27   H     H_    0.690310 0.714493 0.095201 0.145497
H28   H     H_    0.549254 0.783036 0.099480 0.161251
N12   N     N_3   0.400781 0.296918 0.869546 -0.412999
H29   H     H_    0.309888 0.285274 0.904868 0.146354
H30   H     H_    0.451030 0.216942 0.900481 0.160379

loop_
_geom_bond_atom_site_label_1
_geom_bond_atom_site_label_2
_ccdc_geom_bond_type
N3    H11   S    
C13   N11   S    
C27   C29   A    
N9    H23   S    
C31   N5    S    
C26   H8    S    
C17   O7    A    
C18   O8    A    
C20   C30   A    
C2    O2    A    
O6    Zn2   S    
C19   C21   A    
C24   C26   A    
N4    H14   S    
C29   H1    S    
C3    C18   S    
C28   H10   S    
N5    H16   S    
C19   H5    S    
C10   N10   S    
N1    Zn1   S    
N8    H21   S    
C16   N2    A    
C5    C32   A    
C6    C31   A    
O1    Zn1   S    
N9    H24   S    
C7    C12   A    
C1    C12   S    
C9    N9    S    
C2    C11   S    
C15   H3    S    
C21   C23   A    
O4    Zn1   S    
C30   H2    S    
N7    H19   S    
N10   H25   S    
C32   N6    S    
C4    C6    A    
C17   O5    A    
N11   H28   S    
C1    O3    A    
C2    O4    A    
N4    H13   S    
N7    H20   S    
N6    H18   S    
C20   H6    S    
C27   H9    S    
O2    Zn2   S    
C3    C31   A    
C9    C11   A    
C4    C32   A    
C10   C12   A    
O3    Zn2   S    
C4    C17   S    
C20   C22   A    
N12   H30   S    
C13   C15   A    
C22   C24   A    
C14   N12   S    
C19   C29   A    
O8    Zn1   S    
C18   O6    A    
C21   N3    S    
C7    C9    A    
C26   C28   A    
N10   H26   S    
C3    C5    A    
C22   N4    S    
C25   C27   A    
C8    N8    S    
O7    Zn2   S    
N6    H17   S    
N3    H12   S    
C15   N1    A    
C16   H4    S    
C1    O1    A    
C5    C24   S    
C8    C11   A    
O5    Zn1   S    
C6    C23   S    
C28   C30   A    
C14   C16   A    
C23   C25   A    
N5    H15   S    
C7    N7    S    
N11   H27   S    
N2    Zn2   S    
C8    C10   A    
N12   H29   S    
N8    H22   S    
C13   N2    A    
C25   H7    S    
C14   N1    A    
