data_mof_unit_52373.cif
_audit_creation_date              2012-12-10T18:12:33-0500
_audit_creation_method            fapswitch 2.2
_symmetry_space_group_name_H-M    P1
_symmetry_Int_Tables_number       1
_space_group_crystal_system       triclinic
_cell_length_a                    12.650987
_cell_length_b                    13.251737
_cell_length_c                    15.669345
_cell_angle_alpha                 92.667763
_cell_angle_beta                  102.160821
_cell_angle_gamma                 83.608226
_cell_volume                      2551.29564591

loop_
_atom_site_label
_atom_site_type_symbol
_atom_type_description
_atom_site_fract_x
_atom_site_fract_y
_atom_site_fract_z
_atom_type_partial_charge
C1    C     C_R   0.440125 0.691411 0.490997 0.968754
C2    C     C_R   0.591471 0.205764 0.540899 -0.223772
C3    C     C_R   0.305263 0.838411 0.430303 -0.127542
C4    C     C_R   0.500820 0.500663 0.661837 0.929373
C5    C     C_R   0.280542 0.943112 0.417654 0.408954
C6    C     C_R   0.354567 0.009889 0.457281 -0.233960
C7    C     C_R   0.453837 0.974798 0.512245 0.016106
C8    C     C_R   0.476367 0.871301 0.531456 -0.022297
C9    C     C_R   0.535468 0.039723 0.543758 -0.126127
C10   C     C_R   0.645066 0.999489 0.572715 -0.135644
C11   C     C_R   0.665609 0.894854 0.587408 0.400534
C12   C     C_3   0.499880 0.508906 0.917264 0.131559
C13   C     C_R   0.576845 0.840847 0.588457 -0.078159
C14   C     C_R   0.510751 0.144049 0.545850 0.440791
C15   C     C_R   0.700607 0.167457 0.565535 -0.415388
C16   C     C_R   0.559148 0.310455 0.516108 0.914802
C17   C     C_R   0.404489 0.801331 0.486886 -0.151997
C18   C     C_R   0.077436 0.417152 0.335299 -0.269084
C19   C     C_R   0.821608 0.585411 0.627926 -0.000634
C20   C     C_R   0.919868 0.630606 0.645922 0.280241
C21   C     C_R   0.983714 0.621857 0.582938 -0.008377
C22   C     C_R   0.958019 0.552881 0.511955 -0.132657
C23   C     C_3   0.471651 0.417555 0.019205 -0.248141
C24   C     C_R   0.849215 0.524785 0.489319 0.039011
C25   C     C_R   0.038046 0.503360 0.467521 -0.045312
C26   C     C_R   0.002446 0.460488 0.383895 0.015484
C27   C     C_R   0.893200 0.448233 0.354939 -0.280603
C28   C     C_R   0.498531 0.501240 0.338186 0.917273
C29   C     C_R   0.824941 0.457372 0.415732 0.533241
C30   C     C_R   0.150594 0.483938 0.505970 0.638002
C31   C     C_R   0.187571 0.412110 0.371987 -0.048308
C32   C     C_3   0.428366 0.581587 0.018490 0.545605
C33   C     C_3   0.527790 0.598951 0.980744 -0.320647
C34   C     C_3   0.498927 0.506799 0.083236 0.124414
C35   C     C_1   0.501742 0.504149 0.751086 -0.142134
C36   C     C_1   0.496032 0.503254 0.248931 -0.117628
C37   C     C_3   0.398927 0.493377 0.953602 -0.246590
C38   C     C_3   0.412973 0.177325 0.653478 0.086309
C39   C     C_3   0.319867 0.118061 0.664558 -0.327629
C40   C     C_3   0.310619 0.116938 0.759956 -0.989796
C41   C     C_2   0.229540 0.771439 0.376070 0.512511
C42   C     C_3   0.207035 0.993814 0.278916 0.057194
C43   C     C_3   0.099640 0.018978 0.214178 -0.308134
C44   C     C_3   0.117779 0.029353 0.121792 -0.977418
C45   C     C_3   0.572259 0.432580 0.980858 -0.210708
C46   C     C_2   0.585943 0.767337 0.658702 0.458831
C47   C     C_3   0.207751 0.398653 0.633883 0.091702
C48   C     C_3   0.111855 0.374605 0.672607 -0.425105
C49   C     C_3   0.112484 0.428073 0.761064 -0.767559
C50   C     C_2   0.792827 0.540923 0.703167 0.527537
C51   C     C_3   0.300270 0.719754 0.975953 0.078376
C52   C     C_3   0.339006 0.825745 0.990898 -0.325676
C53   C     C_3   0.273866 0.899759 0.922679 -0.988976
C54   C     C_2   0.075275 0.685898 0.593396 0.484723
C55   C     C_3   0.925635 0.747793 0.758996 0.081335
C56   C     C_3   0.598152 0.521972 0.045744 0.000185
C57   C     C_3   0.982468 0.767427 0.853541 -0.350379
C58   C     C_3   0.921628 0.854005 0.897065 -0.972020
C59   C     C_3   0.772615 0.292457 0.379290 0.084476
C60   C     C_3   0.708889 0.274392 0.285970 -0.373360
C61   C     C_3   0.597494 0.239618 0.285153 -0.866162
C62   C     C_2   0.709927 0.537682 0.095873 0.361615
C63   C     C_3   0.803179 0.843833 0.514426 0.118810
C64   C     C_3   0.732587 0.787126 0.439381 -0.434536
C65   C     C_3   0.788637 0.765504 0.362262 -0.873884
C66   C     C_3   0.866296 0.079828 0.709778 0.091995
C67   C     C_1   0.501145 0.507065 0.826488 -0.041378
C68   C     C_3   0.988783 0.055927 0.742982 -0.334199
C69   C     C_3   0.026817 0.110050 0.830556 -0.977943
C70   C     C_1   0.496318 0.505113 0.173683 0.040551
C71   C     C_R   0.727803 0.066208 0.590709 0.477109
H1    H     H_    0.550657 0.672310 0.962690 0.144962
H2    H     H_    0.401879 0.255080 0.681646 0.137354
H3    H     H_    0.490749 0.140498 0.692878 0.119340
H4    H     H_    0.241918 0.152518 0.624995 0.217507
H5    H     H_    0.334448 0.038471 0.640944 0.243230
H6    H     H_    0.388262 0.083780 0.800890 0.271490
H7    H     H_    0.245679 0.069536 0.765711 0.277429
H8    H     H_    0.289854 0.195213 0.784213 0.265163
H9    H     H_    0.142720 0.787164 0.372657 0.117768
H10   H     H_    0.249854 0.923328 0.255060 0.155230
H11   H     H_    0.257976 0.057649 0.281266 0.137921
H12   H     H_    0.335785 0.088563 0.439192 0.200369
H13   H     H_    0.046349 0.957623 0.213909 0.228404
H14   H     H_    0.057806 0.091346 0.234939 0.219547
H15   H     H_    0.170535 0.090586 0.120205 0.266073
H16   H     H_    0.038449 0.048689 0.076683 0.264534
H17   H     H_    0.156395 0.956681 0.098730 0.272909
H18   H     H_    0.664717 0.736344 0.693604 0.028173
H19   H     H_    0.280835 0.399502 0.687334 0.177241
H20   H     H_    0.227263 0.335337 0.588367 0.112626
H21   H     H_    0.033750 0.396617 0.626996 0.235241
H22   H     H_    0.117132 0.291402 0.681713 0.194335
H23   H     H_    0.246001 0.383250 0.333160 0.159842
H24   H     H_    0.180035 0.392035 0.811003 0.216555
H25   H     H_    0.034545 0.421477 0.781232 0.267108
H26   H     H_    0.123568 0.509533 0.757730 0.304931
H27   H     H_    0.781168 0.587287 0.759934 0.024632
H28   H     H_    0.211983 0.726118 0.975802 0.167058
H29   H     H_    0.309999 0.689304 0.910073 0.130011
H30   H     H_    0.330177 0.855261 0.056886 0.232694
H31   H     H_    0.426317 0.821107 0.987840 0.216417
H32   H     H_    0.279531 0.871167 0.855839 0.279277
H33   H     H_    0.306736 0.974639 0.933596 0.271092
H34   H     H_    0.867950 0.409984 0.292581 0.174840
H35   H     H_    0.187241 0.910358 0.928238 0.272179
H36   H     H_    0.107314 0.720279 0.656410 0.091661
H37   H     H_    0.837397 0.748343 0.756141 0.151500
H38   H     H_    0.939636 0.809321 0.718008 0.179592
H39   H     H_    0.988351 0.697675 0.891803 0.240697
H40   H     H_    0.066114 0.786045 0.854471 0.208751
H41   H     H_    0.910576 0.923878 0.858854 0.269819
H42   H     H_    0.968788 0.869439 0.963718 0.270742
H43   H     H_    0.840596 0.833189 0.902273 0.265287
H44   H     H_    0.751721 0.237836 0.422644 0.173660
H45   H     H_    0.051097 0.385617 0.270181 0.157674
H46   H     H_    0.861409 0.272203 0.383589 0.078133
H47   H     H_    0.697990 0.344857 0.247965 0.249010
H48   H     H_    0.755828 0.214672 0.252848 0.180429
H49   H     H_    0.607038 0.163730 0.314797 0.244281
H50   H     H_    0.551263 0.234198 0.216787 0.241288
H51   H     H_    0.550511 0.294157 0.322412 0.262099
H52   H     H_    0.774330 0.543879 0.060996 0.069677
H53   H     H_    0.887690 0.807325 0.525270 0.169353
H54   H     H_    0.807504 0.921856 0.493492 0.174882
H55   H     H_    0.715232 0.714647 0.462447 0.266532
H56   H     H_    0.631983 0.371529 0.963216 0.142496
H57   H     H_    0.653727 0.833561 0.416564 0.214991
H58   H     H_    0.804881 0.837725 0.336639 0.254429
H59   H     H_    0.735295 0.725028 0.309383 0.293928
H60   H     H_    0.866577 0.716847 0.382389 0.278364
H61   H     H_    0.822184 0.051552 0.756741 0.133363
H62   H     H_    0.848942 0.164001 0.707150 0.156575
H63   H     H_    0.009416 0.972753 0.750501 0.223046
H64   H     H_    0.032605 0.081144 0.694582 0.229933
H65   H     H_    0.014807 0.193677 0.822515 0.276657
H66   H     H_    0.114454 0.087221 0.855813 0.273466
H67   H     H_    0.449517 0.343758 0.037074 0.153245
H68   H     H_    0.981068 0.089792 0.879386 0.264770
H69   H     H_    0.317004 0.483470 0.913807 0.137566
H70   H     H_    0.764261 0.216895 0.569927 0.202139
N1    N     N_R   0.222180 0.444680 0.455580 -0.157976
N2    N     N_R   0.776980 0.554790 0.543960 -0.147301
O1    O     O_R   0.366730 0.627160 0.478790 -0.547653
O2    O     O_2   0.262329 0.703751 0.329581 -0.578185
O3    O     O_3   0.185162 0.980412 0.362303 -0.656941
O4    O     O_2   0.504916 0.744048 0.680546 -0.607336
O5    O     O_3   0.187040 0.495550 0.595167 -0.620090
O6    O     O_2   0.789960 0.449226 0.704915 -0.588933
O7    O     O_3   0.354046 0.657095 0.045934 -0.639253
O8    O     O_2   0.112708 0.704651 0.530869 -0.609038
O9    O     O_3   0.969979 0.652902 0.731166 -0.693229
O10   O     O_3   0.744445 0.392658 0.409985 -0.572849
O11   O     O_2   0.729114 0.544014 0.175445 -0.593690
O12   O     O_R   0.544830 0.662520 0.507160 -0.660475
O13   O     O_3   0.768040 0.842725 0.595046 -0.672481
O14   O     O_3   0.834762 0.031810 0.627101 -0.631150
O15   O     O_R   0.410960 0.482330 0.609040 -0.601471
O16   O     O_R   0.589060 0.517690 0.637410 -0.603630
O17   O     O_R   0.455170 0.337480 0.492840 -0.595886
O18   O     O_R   0.633270 0.372840 0.521210 -0.550799
O19   O     O_R   0.410940 0.482310 0.362590 -0.623237
O20   O     O_R   0.589040 0.517670 0.390960 -0.559405
O21   O     O_3   0.411694 0.185517 0.563222 -0.640841
Zn1   Zn    Zn3+2 0.381080 0.476390 0.481050 1.025507
Zn2   Zn    Zn3+2 0.618920 0.523610 0.518950 1.005287

loop_
_geom_bond_atom_site_label_1
_geom_bond_atom_site_label_2
_ccdc_geom_bond_type
C69   H68   S    
C66   C68   S    
C34   C56   S    
C8    C13   A    
C23   C45   S    
C16   O17   A    
C23   H67   S    
C19   C20   A    
C42   H11   S    
C43   C44   S    
C28   O20   A    
C41   H9    S    
C65   H59   S    
C59   O10   S    
C28   O19   A    
C55   O9    S    
C46   H18   S    
C57   H40   S    
C52   H31   S    
C26   C27   A    
C54   H36   S    
C58   H41   S    
C45   H56   S    
C63   O13   S    
C50   O6    D    
C21   C54   S    
C4    O16   A    
C27   C29   A    
C27   H34   S    
C53   H33   S    
C66   H62   S    
C25   C30   A    
C60   H48   S    
C61   H50   S    
C12   C37   S    
C1    O12   A    
C24   C29   A    
C33   H1    S    
C15   H70   S    
C53   H35   S    
C4    O15   A    
C57   H39   S    
C51   O7    S    
C68   C69   S    
C64   H57   S    
C22   C25   A    
C18   C26   A    
C58   H42   S    
C60   H47   S    
C5    O3    S    
C39   H4    S    
C44   H16   S    
C2    C16   S    
C9    C10   A    
C34   C70   S    
O18   Zn2   S    
C10   C71   A    
C33   C56   S    
C38   O21   S    
C4    C35   S    
C59   C60   S    
C59   H46   S    
C21   C22   A    
C55   H38   S    
C61   H49   S    
C69   H66   S    
C43   H13   S    
C42   H10   S    
C44   H15   S    
C62   H52   S    
C65   H60   S    
C36   C70   T    
C63   H53   S    
C66   H61   S    
C51   H28   S    
C38   C39   S    
C71   O14   S    
C12   C67   S    
C52   H30   S    
C50   H27   S    
C48   H22   S    
C51   C52   S    
C43   H14   S    
C7    C8    A    
O20   Zn2   S    
C45   C56   S    
C54   O8    D    
C18   H45   S    
C39   C40   S    
C25   C26   A    
C39   H5    S    
C37   H69   S    
C20   O9    S    
C61   H51   S    
C32   C34   S    
C9    C14   A    
N2    Zn2   S    
O19   Zn1   S    
C46   O4    D    
C47   C48   S    
C35   C67   T    
C23   C34   S    
C40   H8    S    
C32   O7    S    
C32   C37   S    
C49   H24   S    
C2    C15   A    
C63   H54   S    
C11   O13   S    
C40   H7    S    
C48   C49   S    
C69   H65   S    
C64   H55   S    
C55   C57   S    
C47   H19   S    
C22   C24   A    
C42   C43   S    
C42   O3    S    
C52   C53   S    
C29   O10   S    
C38   H3    S    
C51   H29   S    
C7    C9    A    
C47   O5    S    
C3    C41   S    
C19   N2    A    
C6    H12   S    
C40   H6    S    
C47   H20   S    
C68   H64   S    
C12   C45   S    
C3    C5    A    
C65   H58   S    
C30   O5    S    
C6    C7    A    
C16   O18   A    
C31   H23   S    
C15   C71   A    
C55   H37   S    
C1    C17   S    
C8    C17   A    
C30   N1    A    
O16   Zn2   S    
O1    Zn1   S    
C64   C65   S    
C31   N1    A    
O17   Zn1   S    
C1    O1    A    
C23   C37   S    
C32   C33   S    
N1    Zn1   S    
C11   C13   A    
C19   C50   S    
C57   C58   S    
C5    C6    A    
C24   N2    A    
C53   H32   S    
C68   H63   S    
C3    C17   A    
C56   C62   S    
C49   H25   S    
C14   O21   S    
C2    C14   A    
C10   C11   A    
C49   H26   S    
C63   C64   S    
C62   O11   D    
C41   O2    D    
C20   C21   A    
C28   C36   S    
C59   H44   S    
C48   H21   S    
C58   H43   S    
C13   C46   S    
C60   C61   S    
C18   C31   A    
O12   Zn2   S    
C12   C33   S    
C44   H17   S    
C66   O14   S    
O15   Zn1   S    
C38   H2    S    
