data_mof_unit_55458.cif
_audit_creation_date              2012-12-10T17:50:37-0500
_audit_creation_method            fapswitch 2.2
_symmetry_space_group_name_H-M    P1
_symmetry_Int_Tables_number       1
_space_group_crystal_system       triclinic
_cell_length_a                    15.713397
_cell_length_b                    10.722366
_cell_length_c                    9.89304
_cell_angle_alpha                 90.6258
_cell_angle_beta                  90.02056
_cell_angle_gamma                 91.634853
_cell_volume                      1666.04855807

loop_
_atom_site_label
_atom_site_type_symbol
_atom_type_description
_atom_site_fract_x
_atom_site_fract_y
_atom_site_fract_z
_atom_type_partial_charge
C1    C     C_R   0.508197 0.260947 0.499889 0.861640
C2    C     C_3   0.082516 0.495992 0.499659 0.212395
C3    C     C_3   0.974002 0.605543 0.549956 -0.166948
C4    C     C_3   0.917313 0.496161 0.499707 0.212909
C5    C     C_3   0.029875 0.589909 0.422580 -0.164396
C6    C     C_3   0.971417 0.480511 0.372312 -0.163232
C7    C     C_1   0.173483 0.496770 0.499750 -0.086092
C8    C     C_1   0.826389 0.497110 0.499822 -0.088346
C9    C     C_R   0.565382 0.122364 0.741614 -0.168734
C10   C     C_R   0.555449 0.067485 0.869340 0.176231
C11   C     C_R   0.509156 0.954727 0.877718 -0.220337
C12   C     C_R   0.337921 0.499419 0.499953 0.897096
C13   C     C_R   0.481996 0.891872 0.760780 -0.190827
C14   C     C_R   0.499761 0.941387 0.631215 0.099088
C15   C     C_R   0.529033 0.065103 0.624441 0.058764
C16   C     C_R   0.517830 0.128211 0.501046 -0.105894
C17   C     C_R   0.499656 0.062724 0.381425 -0.227630
C18   C     C_R   0.489023 0.935808 0.383843 -0.224209
C19   C     C_R   0.489690 0.873877 0.507318 -0.120063
C20   C     C_R   0.390959 0.332985 0.138495 -0.175402
C21   C     C_R   0.338272 0.249108 0.067339 -0.216366
C22   C     C_R   0.338010 0.249226 0.927479 -0.187556
C23   C     C_R   0.494287 0.740005 0.501768 0.882151
C24   C     C_R   0.390426 0.333218 0.858014 -0.136239
C25   C     C_R   0.446116 0.417690 0.926730 0.157860
C26   C     C_R   0.446272 0.417619 0.071439 0.170719
C27   C     C_R   0.551323 0.579011 0.072516 -0.119957
C28   C     C_R   0.551276 0.579021 0.929281 -0.143720
C29   C     C_R   0.662069 0.499981 0.500021 0.910569
C30   C     C_3   0.969917 0.402201 0.576794 -0.167753
C31   C     C_3   0.025865 0.386558 0.449391 -0.167122
C32   C     C_1   0.248877 0.497966 0.499864 -0.189949
C33   C     C_1   0.751048 0.498430 0.499954 -0.195193
C34   C     C_3   0.028395 0.511614 0.627040 -0.164193
H1    H     H_    0.049284 0.297097 0.408300 0.129286
H2    H     H_    0.495583 0.913680 0.975280 0.135654
H3    H     H_    0.444096 0.807467 0.774787 0.179308
H4    H     H_    0.479254 0.886517 0.288615 0.167588
H5    H     H_    0.593250 0.643485 0.127183 0.147680
H6    H     H_    0.386154 0.328947 0.245571 0.209756
H7    H     H_    0.296826 0.184404 0.121235 0.149783
H8    H     H_    0.296323 0.184649 0.872279 0.147627
H9    H     H_    0.384838 0.329514 0.750935 0.205559
H10   H     H_    0.593108 0.643570 0.876095 0.156630
H11   H     H_    0.943190 0.325523 0.639801 0.129453
H12   H     H_    0.945903 0.467788 0.268251 0.130874
H13   H     H_    0.056554 0.666613 0.359561 0.131183
H14   H     H_    0.950635 0.695036 0.591050 0.130786
H15   H     H_    0.053868 0.524303 0.731126 0.133027
H16   H     H_    0.492140 0.109477 0.285958 0.166190
H17   H     H_    0.601402 0.209051 0.732740 0.152367
N1    N     N_R   0.499210 0.498800 0.142780 -0.123480
N2    N     N_R   0.499180 0.498720 0.857170 -0.130392
O1    O     O_R   0.500000 0.316780 0.614690 -0.648464
O2    O     O_R   0.499990 0.316750 0.385360 -0.652449
O3    O     O_R   0.376780 0.500000 0.614650 -0.633592
O4    O     O_R   0.376770 0.499980 0.385310 -0.627440
O5    O     O_R   0.500010 0.683250 0.614640 -0.628431
O6    O     O_R   0.500000 0.683220 0.385310 -0.617269
O7    O     O_R   0.623230 0.500020 0.614690 -0.618455
O8    O     O_R   0.623220 0.500000 0.385350 -0.617831
Zn1   Zn    Zn3+2 0.500010 0.500020 0.653130 0.918613
Zn2   Zn    Zn3+2 0.499990 0.499980 0.346870 0.920719
C35   C     C_3   0.587465 0.127680 0.999868 -0.438958
C36   C     C_3   0.649362 0.239991 0.983662 -0.373163
C37   C     C_3   0.681098 0.288081 0.121000 -0.834126
H18   H     H_    0.626572 0.314388 0.185541 0.290646
H19   H     H_    0.717558 0.215302 0.172790 0.250316
H20   H     H_    0.723372 0.371698 0.107025 0.245429
H21   H     H_    0.704998 0.212509 0.921878 0.219703
H22   H     H_    0.616868 0.316999 0.932591 0.235020
H23   H     H_    0.531321 0.157475 0.058795 0.209906
H24   H     H_    0.620082 0.055562 0.059242 0.201685

loop_
_geom_bond_atom_site_label_1
_geom_bond_atom_site_label_2
_ccdc_geom_bond_type
O5    Zn1   S    
C23   O5    A    
C37   H19   S    
C30   H11   S    
C2    C7    S    
C9    H17   S    
C4    C8    S    
C22   H8    S    
C23   O6    A    
C5    H13   S    
C22   C24   A    
C11   H2    S    
C25   N2    A    
C30   C31   S    
C20   H6    S    
C37   H20   S    
C15   C16   A    
C29   C33   S    
C3    H14   S    
O7    Zn1   S    
C18   C19   A    
O8    Zn2   S    
C27   H5    S    
C16   C17   A    
O2    Zn2   S    
C35   H24   S    
C9    C10   A    
C13   H3    S    
C2    C34   S    
C6    C31   S    
C21   C22   A    
C12   C32   S    
O4    Zn2   S    
C29   O8    A    
C30   C34   S    
C37   H18   S    
C24   C25   A    
C4    C6    S    
O1    Zn1   S    
C3    C34   S    
C25   C26   A    
C36   H22   S    
C28   H10   S    
C2    C31   S    
C19   C23   S    
C1    O1    A    
C26   N1    A    
N2    Zn1   S    
C29   O7    A    
C17   C18   A    
C1    C16   S    
C12   O3    A    
C21   H7    S    
C12   O4    A    
O3    Zn1   S    
C2    C5    S    
C3    C4    S    
C27   N1    A    
C34   H15   S    
C7    C32   T    
C6    H12   S    
C14   C19   A    
C10   C35   S    
C3    C5    S    
N1    Zn2   S    
C17   H16   S    
C28   N2    A    
O6    Zn2   S    
C35   C36   S    
C9    C15   A    
C11   C13   A    
C5    C6    S    
C20   C26   A    
C1    O2    A    
C31   H1    S    
C8    C33   T    
C35   H23   S    
C18   H4    S    
C10   C11   A    
C20   C21   A    
C36   C37   S    
C27   C28   A    
C24   H9    S    
C14   C15   A    
C13   C14   A    
C4    C30   S    
C36   H21   S    
