data_mof_unit_6674.cif
_audit_creation_date              2012-12-10T17:27:56-0500
_audit_creation_method            fapswitch 2.2
_symmetry_space_group_name_H-M    P1
_symmetry_Int_Tables_number       1
_space_group_crystal_system       triclinic
_cell_length_a                    10.629864
_cell_length_b                    11.995039
_cell_length_c                    12.828992
_cell_angle_alpha                 93.845422
_cell_angle_beta                  90.224264
_cell_angle_gamma                 86.514825
_cell_volume                      1629.06753876

loop_
_atom_site_label
_atom_site_type_symbol
_atom_type_description
_atom_site_fract_x
_atom_site_fract_y
_atom_site_fract_z
_atom_type_partial_charge
C1    C     C_R   0.496756 0.522616 0.700493 0.930924
C2    C     C_R   0.417593 0.627523 0.862257 0.459970
C3    C     C_R   0.549100 0.453579 0.868356 -0.356627
C4    C     C_R   0.739501 0.499972 0.497065 0.863514
C5    C     C_R   0.532741 0.455286 0.974703 0.194299
C6    C     C_R   0.458516 0.544006 0.025861 0.121666
C7    C     C_R   0.443353 0.546499 0.132481 -0.242788
C8    C     C_R   0.572663 0.372325 0.137805 -0.222491
C9    C     C_R   0.587964 0.368762 0.030492 -0.195190
C10   C     C_R   0.370563 0.954845 0.413308 -0.334878
C11   C     C_R   0.384466 0.838499 0.420366 0.018048
C12   C     C_R   0.938098 0.434836 0.409608 0.098319
C13   C     C_R   0.558347 0.858025 0.535188 -0.057145
C14   C     C_R   0.548094 0.975503 0.530452 0.102242
C15   C     C_R   0.452607 0.024405 0.468811 0.094999
C16   C     C_R   0.500869 0.477421 0.299615 0.848561
C17   C     C_R   0.442107 0.141914 0.464344 -0.050983
C18   C     C_R   0.615646 0.161468 0.579516 0.036411
C19   C     C_R   0.630080 0.045079 0.586015 -0.347286
C20   C     C_R   0.260526 0.499242 0.497381 0.878271
C21   C     C_R   0.876635 0.373907 0.328186 -0.176920
C22   C     C_R   0.946037 0.312307 0.249672 -0.136361
C23   C     C_R   0.871684 0.499872 0.489554 -0.091726
C24   C     C_R   0.077028 0.311231 0.250243 -0.137475
C25   C     C_R   0.139042 0.371829 0.329273 -0.197511
C26   C     C_R   0.070029 0.433783 0.410177 0.092467
C27   C     C_3   0.396696 0.810494 0.822541 0.089966
C28   C     C_3   0.325418 0.891885 0.753380 -0.308097
C29   C     C_3   0.369991 0.010181 0.771742 -0.962678
C30   C     C_R   0.931583 0.565999 0.565284 -0.222112
C31   C     C_R   0.060169 0.564978 0.565868 -0.201037
C32   C     C_R   0.128365 0.497902 0.490664 -0.102544
C33   C     C_R   0.503095 0.462825 0.188249 -0.041404
C34   C     C_R   0.489787 0.537318 0.812145 -0.155346
C35   C     C_R   0.401081 0.629214 0.970035 -0.325911
H1    H     H_    0.878575 0.616345 0.625420 0.146032
H2    H     H_    0.775089 0.374644 0.323429 0.145291
H3    H     H_    0.897954 0.266196 0.187672 0.131172
H4    H     H_    0.130741 0.264227 0.188704 0.135970
H5    H     H_    0.240667 0.370852 0.325248 0.143836
H6    H     H_    0.106980 0.614908 0.626248 0.172035
H7    H     H_    0.387720 0.615153 0.172600 0.147962
H8    H     H_    0.618864 0.307341 0.181543 0.150300
H9    H     H_    0.340931 0.694957 0.009528 0.146876
H10   H     H_    0.498950 0.807636 0.802591 0.132952
H11   H     H_    0.383043 0.842144 0.905556 0.129280
H12   H     H_    0.644022 0.299860 0.991534 0.133580
H13   H     H_    0.339886 0.862853 0.670030 0.238459
H14   H     H_    0.222871 0.893429 0.770510 0.220859
H15   H     H_    0.346891 0.043914 0.852600 0.261378
H16   H     H_    0.322220 0.065634 0.715914 0.275629
H17   H     H_    0.473348 0.010112 0.759867 0.267046
H18   H     H_    0.605721 0.385257 0.828700 0.170317
H19   H     H_    0.369931 0.180976 0.416713 0.126661
H20   H     H_    0.679049 0.215018 0.622268 0.131743
H21   H     H_    0.296263 0.989985 0.365166 0.147338
H22   H     H_    0.704282 0.009948 0.634250 0.142770
H23   H     H_    0.320798 0.784971 0.377897 0.133606
H24   H     H_    0.630308 0.819006 0.583032 0.123050
N1    N     N_R   0.523130 0.207800 0.519340 -0.100597
N2    N     N_R   0.476870 0.792180 0.480660 -0.103534
O1    O     O_R   0.506170 0.421690 0.658830 -0.623619
O2    O     O_R   0.491330 0.609320 0.646410 -0.594045
O3    O     O_R   0.690660 0.406170 0.506210 -0.629686
O4    O     O_R   0.675810 0.593790 0.493790 -0.618520
O5    O     O_R   0.508670 0.390680 0.353590 -0.637952
O6    O     O_R   0.493830 0.578310 0.341170 -0.617806
O7    O     O_R   0.324190 0.406210 0.506210 -0.622191
O8    O     O_R   0.309340 0.593830 0.493790 -0.618934
O9    O     O_3   0.349104 0.703525 0.804369 -0.636180
Zn1   Zn    Zn3+2 0.509910 0.374720 0.508290 0.936005
Zn2   Zn    Zn3+2 0.490090 0.625280 0.491710 0.949771

loop_
_geom_bond_atom_site_label_1
_geom_bond_atom_site_label_2
_ccdc_geom_bond_type
C2    C35   A    
O1    Zn1   S    
O8    Zn2   S    
C24   C25   A    
C26   C32   A    
C6    C7    A    
C13   H24   S    
C16   C33   S    
O4    Zn2   S    
C10   H21   S    
C28   H14   S    
C4    O3    A    
C31   C32   A    
C14   C15   A    
C8    H8    S    
C30   H1    S    
C29   H15   S    
C1    O1    A    
C27   H10   S    
C8    C9    A    
N1    Zn1   S    
C13   N2    A    
C16   O6    A    
C2    O9    S    
C13   C14   A    
C19   H22   S    
C5    C9    A    
C35   H9    S    
C3    H18   S    
C12   C23   A    
C2    C34   A    
C5    C6    A    
C27   O9    S    
C12   C21   A    
C18   H20   S    
O7    Zn1   S    
C1    O2    A    
C27   H11   S    
C18   N1    A    
C28   C29   S    
C14   C19   A    
C1    C34   S    
C9    H12   S    
C10   C15   A    
C25   H5    S    
C29   H16   S    
C30   C31   A    
C20   O8    A    
C22   C24   A    
O2    Zn2   S    
O3    Zn1   S    
C16   O5    A    
C10   C11   A    
C7    C33   A    
C17   N1    A    
C11   H23   S    
C23   C30   A    
C24   H4    S    
C21   H2    S    
C6    C35   A    
N2    Zn2   S    
O6    Zn2   S    
C20   C32   S    
C7    H7    S    
C27   C28   S    
C15   C17   A    
C4    C23   S    
C4    O4    A    
C18   C19   A    
C31   H6    S    
C3    C34   A    
C3    C5    A    
C25   C26   A    
C21   C22   A    
C17   H19   S    
C20   O7    A    
C28   H13   S    
O5    Zn1   S    
C12   C26   A    
C8    C33   A    
C11   N2    A    
C29   H17   S    
C22   H3    S    
