data_mof_unit_25783.cif
_audit_creation_date              2012-12-10T18:11:55-0500
_audit_creation_method            fapswitch 2.2
_symmetry_space_group_name_H-M    P1
_symmetry_Int_Tables_number       1
_space_group_crystal_system       triclinic
_cell_length_a                    15.843826
_cell_length_b                    10.824567
_cell_length_c                    9.565033
_cell_angle_alpha                 90.410717
_cell_angle_beta                  90.026951
_cell_angle_gamma                 91.770594
_cell_volume                      1639.60186624

loop_
_atom_site_label
_atom_site_type_symbol
_atom_type_description
_atom_site_fract_x
_atom_site_fract_y
_atom_site_fract_z
_atom_type_partial_charge
C1    C     C_R   0.504961 0.260411 0.500268 0.876363
C2    C     C_3   0.083171 0.500603 0.499887 0.025403
C3    C     C_3   0.973114 0.561844 0.614830 -0.149728
C4    C     C_3   0.916684 0.503434 0.499130 0.063780
C5    C     C_3   0.031364 0.618899 0.499798 -0.249281
C6    C     C_3   0.973352 0.560764 0.384070 -0.224510
C7    C     C_1   0.174924 0.499969 0.500036 0.039566
C8    C     C_1   0.825049 0.504912 0.499324 0.016872
C9    C     C_3   0.553506 0.067789 0.640628 0.594510
C10   C     C_3   0.562724 0.927124 0.615501 -0.413653
C11   C     C_3   0.415766 0.070007 0.500908 -0.532559
C12   C     C_R   0.340209 0.499659 0.499989 0.807147
C13   C     C_3   0.547802 0.069579 0.360852 0.284905
C14   C     C_3   0.509232 0.121739 0.502408 -0.081841
C15   C     C_3   0.503821 0.877482 0.497237 0.008814
C16   C     C_3   0.413463 0.927024 0.510861 -0.375218
C17   C     C_3   0.541370 0.926705 0.358076 -0.423072
C18   C     C_3   0.529489 0.624580 0.089229 0.100195
C19   C     C_3   0.522312 0.631006 0.920595 0.477938
C20   C     C_3   0.561745 0.411270 0.081268 -0.157263
C21   C     C_3   0.416430 0.465722 0.080205 0.090839
C22   C     C_3   0.562566 0.415524 0.915788 -0.221887
C23   C     C_R   0.500750 0.739623 0.499635 0.768260
C24   C     C_3   0.418070 0.462188 0.914277 -0.243552
C25   C     C_R   0.659786 0.503432 0.499983 0.895122
C26   C     C_3   0.968379 0.385852 0.499147 0.068253
C27   C     C_3   0.025981 0.443064 0.386014 0.479513
C28   C     C_1   0.250502 0.499690 0.500016 -0.155079
C29   C     C_1   0.749496 0.504915 0.499694 -0.094259
C30   C     C_3   0.025796 0.443915 0.613388 0.127416
Cu1   Cu    Cu3+1 0.500040 0.499860 0.642410 0.924530
Cu2   Cu    Cu3+1 0.499960 0.500140 0.357590 0.931602
H1    H     H_    0.550287 0.877336 0.713443 0.180952
H2    H     H_    0.377712 0.110157 0.586577 0.198291
H3    H     H_    0.383958 0.895844 0.610332 0.174711
H4    H     H_    0.506806 0.100989 0.274206 0.101415
H5    H     H_    0.604181 0.886389 0.341001 0.206748
H6    H     H_    0.500891 0.895862 0.268418 0.162228
H7    H     H_    0.383530 0.097379 0.402874 0.181867
H8    H     H_    0.372851 0.887813 0.425447 0.175666
H9    H     H_    0.485993 0.691434 0.136242 0.157430
H10   H     H_    0.626601 0.427492 0.121682 0.196409
H11   H     H_    0.627460 0.436350 0.878023 0.195364
H12   H     H_    0.370914 0.536463 0.113381 0.155287
H13   H     H_    0.366380 0.518957 0.874482 0.163426
H14   H     H_    0.401787 0.368347 0.871888 0.165263
H15   H     H_    0.546068 0.315798 0.115843 0.200911
H16   H     H_    0.950836 0.608189 0.289177 0.179087
H17   H     H_    0.547476 0.321897 0.876454 0.210666
H18   H     H_    0.058333 0.714775 0.500144 0.174599
H19   H     H_    0.950284 0.610483 0.709456 0.162209
H20   H     H_    0.627897 0.903116 0.586548 0.218822
N1    N     N_3   0.501840 0.500250 0.143650 -0.164332
N2    N     N_3   0.501160 0.503300 0.856280 -0.164263
O1    O     O_R   0.500050 0.317570 0.620260 -0.580761
O2    O     O_R   0.499980 0.317810 0.379740 -0.582321
O3    O     O_R   0.379110 0.499870 0.620240 -0.597016
O4    O     O_R   0.379040 0.500110 0.379720 -0.582482
O5    O     O_R   0.500020 0.682190 0.620260 -0.599506
O6    O     O_R   0.499950 0.682430 0.379740 -0.612970
O7    O     O_R   0.620960 0.499890 0.620280 -0.576726
O8    O     O_R   0.620890 0.500130 0.379760 -0.564455
S1    S     S_3+6 0.062003 0.365070 0.233609 -0.019604
O9    O     O_2   0.115864 0.452631 0.148047 -0.311716
O10   O     O_2   0.113068 0.256923 0.276518 -0.313051
O11   O     O_3   0.978187 0.315057 0.138855 -0.532354
H21   H     H_    0.002137 0.264326 0.062887 0.371317
S2    S     S_3+6 0.652075 0.121066 0.305622 -0.000033
O12   O     O_2   0.664926 0.258316 0.319812 -0.279056
O13   O     O_2   0.719413 0.057236 0.385520 -0.241441
O14   O     O_3   0.661352 0.082930 0.135757 -0.546516
H22   H     H_    0.719725 0.109186 0.110124 0.396711
C31   C     C_3   0.617118 0.673393 0.147895 -0.792783
H23   H     H_    0.629139 0.770541 0.116047 0.221284
H24   H     H_    0.621830 0.680801 0.261222 0.260430
H25   H     H_    0.671056 0.617923 0.114480 0.217263
C32   C     C_3   0.931287 0.254472 0.498915 -0.675915
H26   H     H_    0.983042 0.187727 0.498548 0.234795
H27   H     H_    0.891976 0.240127 0.593707 0.229752
H28   H     H_    0.891405 0.239081 0.404595 0.282844
C33   C     C_3   0.449980 0.725311 0.893773 -0.862569
H29   H     H_    0.473860 0.822241 0.904099 0.215276
H30   H     H_    0.414264 0.712387 0.796058 0.268158
H31   H     H_    0.398228 0.715892 0.971495 0.162264
C34   C     C_3   0.607761 0.685671 0.858679 -0.718531
H32   H     H_    0.663047 0.633162 0.891019 0.188214
H33   H     H_    0.614801 0.686576 0.745747 0.251442
H34   H     H_    0.618940 0.783228 0.891520 0.207486
C35   C     C_3   0.378137 0.339240 0.128389 -0.766418
H35   H     H_    0.412245 0.260386 0.083105 0.192247
H36   H     H_    0.375624 0.326543 0.241889 0.273452
H37   H     H_    0.311838 0.330178 0.090789 0.234859
C36   C     C_3   0.055917 0.378320 0.743455 -0.788354
H38   H     H_    0.000598 0.346980 0.806414 0.244869
H39   H     H_    0.092839 0.297069 0.712530 0.229975
H40   H     H_    0.096351 0.442627 0.807109 0.255378
C37   C     C_3   0.496829 0.079741 0.774810 -0.852028
H41   H     H_    0.470908 0.171692 0.790214 0.223912
H42   H     H_    0.441445 0.015179 0.773979 0.199335
H43   H     H_    0.531803 0.055059 0.870753 0.264126
S3    S     S_3+6 0.657745 0.137542 0.685353 0.011993
O15   O     O_2   0.677488 0.249332 0.598917 -0.264072
O16   O     O_2   0.660680 0.176661 0.836329 -0.326473
O17   O     O_3   0.736015 0.037539 0.663221 -0.515032
H44   H     H_    0.787536 0.081666 0.698376 0.372914

loop_
_geom_bond_atom_site_label_1
_geom_bond_atom_site_label_2
_ccdc_geom_bond_type
S1    O10   D    
C36   H38   S    
C31   H23   S    
Cu1   O7    S    
C2    C7    S    
C11   H2    S    
Cu2   O4    S    
C4    C8    S    
C10   H20   S    
C33   H31   S    
C37   H41   S    
C22   N2    S    
C21   C35   S    
C32   H26   S    
C23   O5    A    
C26   C27   S    
S3    O15   D    
C6    H16   S    
C12   C28   S    
C24   H13   S    
C1    O2    A    
C30   C36   S    
C10   C15   S    
C16   H3    S    
C5    C6    S    
C11   C14   S    
C32   H28   S    
C24   N2    S    
C15   C16   S    
C18   C19   S    
Cu1   O5    S    
C18   N1    S    
C37   H42   S    
C6    C27   S    
S2    O12   D    
C2    C27   S    
C35   H36   S    
C9    C10   S    
C25   O8    A    
C12   O4    A    
C15   C23   S    
O11   H21   S    
S1    O11   S    
C36   H39   S    
C13   C14   S    
C31   H24   S    
O17   H44   S    
C33   H30   S    
C33   H29   S    
C32   H27   S    
C25   C29   S    
C23   O6    A    
C26   C32   S    
C34   H33   S    
C13   H4    S    
C4    C6    S    
C18   H9    S    
C3    H19   S    
C17   H5    S    
C19   C34   S    
C34   H32   S    
C7    C28   T    
C3    C30   S    
C9    C14   S    
C21   H12   S    
C11   C16   S    
C4    C26   S    
C22   H11   S    
C25   O7    A    
C35   H37   S    
C11   H7    S    
C27   S1    S    
C16   H8    S    
C22   H17   S    
C12   O3    A    
C19   N2    S    
C9    S3    S    
C20   C22   S    
C26   C30   S    
C36   H40   S    
C31   H25   S    
C5    H18   S    
C2    C5    S    
Cu2   O6    S    
C3    C4    S    
Cu2   N1    S    
C37   H43   S    
S3    O16   D    
C34   H34   S    
C15   C17   S    
C9    C37   S    
Cu1   Cu2   S    
C20   N1    S    
C3    C5    S    
C20   H10   S    
C1    C14   S    
C8    C29   T    
C13   C17   S    
C2    C30   S    
C24   H14   S    
C18   C31   S    
Cu1   O3    S    
C1    O1    A    
Cu2   O8    S    
O14   H22   S    
C21   N1    S    
S2    O14   S    
C10   H1    S    
C17   H6    S    
Cu1   N2    S    
C20   H15   S    
S1    O9    D    
S2    O13   D    
C21   C24   S    
S3    O17   S    
Cu1   O1    S    
C35   H35   S    
C19   C33   S    
Cu2   O2    S    
C13   S2    S    
