data_mof_unit_16169.cif
_audit_creation_date              2013-03-05T15:52:30-0500
_audit_creation_method            fapswitch 2.2
_symmetry_space_group_name_H-M    P1
_symmetry_Int_Tables_number       1
_space_group_crystal_system       triclinic
_cell_length_a                    11.052459
_cell_length_b                    11.082055
_cell_length_c                    18.595465
_cell_angle_alpha                 90.827887
_cell_angle_beta                  90.222064
_cell_angle_gamma                 59.705304
_cell_volume                      1966.39527316

loop_
_atom_site_label
_atom_site_type_symbol
_atom_site_description
_atom_site_fract_x
_atom_site_fract_y
_atom_site_fract_z
_atom_type_partial_charge
O1    O     O_R   0.748670 0.497520 0.427970 -0.530095
O2    O     O_R   0.476470 0.723930 0.429450 -0.456238
C1    C     C_R   0.386377 0.709553 0.388887 0.574579
O3    O     O_R   0.264730 0.744140 0.416740 -0.524140
O4    O     O_R   0.309440 0.472410 0.418220 -0.562136
C2    C     C_R   0.380352 0.355252 0.388939 0.553636
O5    O     O_R   0.501630 0.260530 0.414310 -0.490086
O6    O     O_R   0.727920 0.305730 0.428950 -0.493915
C3    C     C_R   0.783204 0.374410 0.405388 0.535217
O7    O     O_R   0.738670 0.496020 0.588600 -0.519231
O8    O     O_R   0.467190 0.722540 0.578350 -0.497358
C4    C     C_R   0.341585 0.773521 0.603105 0.565535
O9    O     O_R   0.254720 0.742640 0.577370 -0.514173
O10   O     O_R   0.300170 0.471020 0.567120 -0.514633
C5    C     C_R   0.368892 0.349291 0.594575 0.554773
O11   O     O_R   0.491630 0.259030 0.574940 -0.515851
O12   O     O_R   0.718640 0.304340 0.577850 -0.509062
C6    C     C_R   0.759909 0.379161 0.611204 0.551557
Cr1   Cr    Cr6+3 0.601740 0.606840 0.505840 1.033536
Cr2   Cr    Cr6+3 0.291500 0.601560 0.495070 0.985660
Cr3   Cr    Cr6+3 0.606780 0.291630 0.499130 1.029878
O13   O     O_3   0.500010 0.500010 0.500020 -0.281234
C7    C     C_R   0.792361 0.956763 0.066091 -0.051905
C8    C     C_R   0.746176 0.099366 0.065911 -0.091706
C9    C     C_R   0.651433 0.188403 0.118282 -0.086989
C10   C     C_R   0.594375 0.137011 0.169014 0.029219
C11   C     C_R   0.350170 0.339906 0.165252 -0.013202
C12   C     C_R   0.430393 0.228074 0.277342 -0.035606
C13   C     C_R   0.461164 0.240062 0.206065 -0.041042
C14   C     C_R   0.051345 0.650340 0.376381 -0.101890
C15   C     C_R   0.920029 0.738105 0.405507 -0.133144
C16   C     C_R   0.639863 0.993456 0.167383 -0.079408
C17   C     C_R   0.740280 0.903666 0.117266 -0.060969
C18   C     C_R   0.236454 0.453698 0.200785 -0.129114
C19   C     C_R   0.222183 0.466463 0.276850 -0.047433
C20   C     C_R   0.802752 0.778816 0.364701 0.007028
C21   C     C_R   0.819096 0.734167 0.293315 -0.116533
C22   C     C_R   0.951803 0.635653 0.265708 -0.070456
C23   C     C_R   0.076346 0.583186 0.307733 0.020144
C24   C     C_R   0.334569 0.348671 0.315263 -0.007006
H1    H     H_    0.773172 0.793782 0.115875 0.119791
H2    H     H_    0.910799 0.780783 0.459486 0.104393
H3    H     H_    0.866701 0.887857 0.025914 0.141284
H4    H     H_    0.782041 0.141338 0.024537 0.157353
H5    H     H_    0.614421 0.299323 0.115992 0.119154
H6    H     H_    0.123294 0.658253 0.408453 0.213529
H7    H     H_    0.588546 0.952849 0.199502 0.120506
H8    H     H_    0.151656 0.524270 0.167430 0.208300
H9    H     H_    0.728553 0.769995 0.260038 0.106025
H10   H     H_    0.952117 0.600120 0.211465 0.122569
C25   C     C_R   0.943902 0.290964 0.195073 0.010522
C26   C     C_R   0.870535 0.227746 0.220550 -0.009003
C27   C     C_R   0.823005 0.249178 0.291422 -0.011432
C28   C     C_R   0.961253 0.357337 0.317768 -0.139931
C29   C     C_R   0.002979 0.339020 0.245533 -0.168069
C30   C     C_3   0.928852 0.073288 0.227710 -0.212776
C31   C     C_3   0.858524 0.101270 0.299976 -0.127690
C32   C     C_R   0.862496 0.321664 0.339350 0.016078
H11   H     H_    0.000696 0.403497 0.355946 0.148153
H12   H     H_    0.080044 0.361895 0.227736 0.118339
H13   H     H_    0.045265 0.015710 0.229703 0.167778
H14   H     H_    0.885366 0.030508 0.188573 0.198261
H15   H     H_    0.763595 0.090828 0.300480 0.133048
C33   C     C_R   0.365693 0.793273 0.163357 0.014282
C34   C     C_R   0.489066 0.760086 0.199659 -0.029110
C35   C     C_R   0.499227 0.724093 0.273633 0.036499
C36   C     C_R   0.274220 0.743508 0.269749 -0.155462
C37   C     C_R   0.274299 0.754545 0.195443 0.183189
C38   C     C_3   0.620391 0.624761 0.183034 -0.269230
C39   C     C_3   0.625583 0.586156 0.260034 -0.280104
C40   C     C_R   0.383287 0.736558 0.311064 0.000605
H16   H     H_    0.190516 0.736723 0.294620 0.173433
H17   H     H_    0.708373 0.639505 0.166732 0.145148
H18   H     H_    0.603873 0.554808 0.145800 0.162478
H19   H     H_    0.603935 0.499449 0.267379 0.131248
H20   H     H_    0.716264 0.575780 0.289532 0.169190
C41   C     C_R   0.303704 0.313398 0.810330 0.022166
C42   C     C_R   0.412954 0.205300 0.772296 0.010577
C43   C     C_R   0.421280 0.204134 0.699649 0.023415
C44   C     C_R   0.200162 0.421337 0.696461 -0.170799
C45   C     C_R   0.190258 0.417636 0.771571 -0.166103
C46   C     C_3   0.566538 0.134617 0.784290 -0.279841
C47   C     C_3   0.579044 0.130946 0.703548 -0.265343
C48   C     C_R   0.323199 0.320086 0.661155 0.025865
H21   H     H_    0.118925 0.509157 0.667526 0.123211
H22   H     H_    0.098316 0.498316 0.799062 0.124500
H23   H     H_    0.610165 0.029415 0.807601 0.193760
H24   H     H_    0.598157 0.204331 0.811483 0.152600
H25   H     H_    0.622095 0.196016 0.684821 0.181241
H26   H     H_    0.630040 0.023343 0.680214 0.132667
C49   C     C_R   0.811591 0.328319 0.837244 0.003728
C50   C     C_R   0.744553 0.459477 0.805788 0.063377
C51   C     C_R   0.729147 0.473349 0.732803 -0.008287
C52   C     C_R   0.836544 0.224119 0.718053 -0.176586
C53   C     C_R   0.845816 0.210992 0.793087 -0.181521
C54   C     C_3   0.764673 0.583189 0.813199 0.099483
C55   C     C_3   0.743250 0.600747 0.732625 -0.251422
C56   C     C_R   0.787247 0.355891 0.687334 0.012657
H27   H     H_    0.871040 0.131808 0.684396 0.133430
H28   H     H_    0.891867 0.108168 0.815873 0.141725
H29   H     H_    0.871051 0.559083 0.829564 0.128211
H30   H     H_    0.644648 0.695131 0.716883 0.158090
H31   H     H_    0.838254 0.583662 0.703267 0.108522
C57   C     C_R   0.248676 0.936591 0.814242 0.023672
C58   C     C_R   0.155757 0.909136 0.777071 -0.004548
C59   C     C_R   0.178480 0.870603 0.705582 0.026797
C60   C     C_R   0.374594 0.908555 0.701966 -0.162400
C61   C     C_R   0.351824 0.946839 0.774781 -0.123428
C62   C     C_3   0.107820 0.808226 0.793532 -0.264282
C63   C     C_3   0.132350 0.765885 0.714957 -0.264183
C64   C     C_R   0.295687 0.857078 0.668891 0.023149
H32   H     H_    0.461059 0.907038 0.673970 0.124656
H33   H     H_    0.422712 0.972331 0.801574 0.185774
H34   H     H_    0.995474 0.860822 0.809202 0.136125
H35   H     H_    0.180368 0.723193 0.829798 0.178923
H36   H     H_    0.219709 0.657120 0.706201 0.161559
H37   H     H_    0.034309 0.794359 0.685163 0.133541
O14   O     O_R   0.186620 0.923750 0.087000 -0.463601
O15   O     O_R   0.957350 0.194160 0.084660 -0.514360
C65   C     C_R   0.974000 0.287943 0.118143 0.545448
O16   O     O_R   0.935120 0.407280 0.085350 -0.514141
O17   O     O_R   0.203800 0.365060 0.067090 -0.505319
C66   C     C_R   0.327514 0.296690 0.092730 0.554780
O18   O     O_R   0.417470 0.174910 0.067830 -0.498264
O19   O     O_R   0.375160 0.946380 0.070880 -0.491390
C67   C     C_R   0.311109 0.889417 0.101956 0.574611
O20   O     O_R   0.160500 0.919670 0.926690 -0.501463
O21   O     O_R   0.933140 0.190380 0.936050 -0.545224
C68   C     C_R   0.880520 0.309589 0.905950 0.551322
O22   O     O_R   0.909010 0.403210 0.925030 -0.501556
O23   O     O_R   0.179590 0.361290 0.918480 -0.505444
C69   C     C_R   0.295176 0.287869 0.885300 0.539408
O24   O     O_R   0.391360 0.170840 0.907510 -0.517514
O25   O     O_R   0.350950 0.942600 0.922260 -0.426019
C70   C     C_R   0.237443 0.958472 0.891711 0.572814
Cr4   Cr    Cr6+3 0.062440 0.063060 0.008240 1.021605
Cr5   Cr    Cr6+3 0.062950 0.375000 0.998920 1.037980
Cr6   Cr    Cr6+3 0.374550 0.061770 0.992470 1.084619
O26   O     O_3   0.166650 0.166610 0.999880 -0.318171
C71   C     C_1   0.414248 0.110869 0.293816 0.193301
N1    N     N_1   0.394347 0.020512 0.306190 -0.288318
C72   C     C_1   0.668906 0.867651 0.398112 0.213572
N2    N     N_1   0.564072 0.938105 0.427870 -0.236373
C73   C     C_1   0.952085 0.031880 0.360886 0.220593
N3    N     N_1   0.022360 0.981753 0.410426 -0.255877
N4    N     N_R   0.176749 0.734527 0.153058 0.069847
O27   O     O_R   0.050299 0.779132 0.176243 -0.428435
O28   O     O_R   0.213927 0.672902 0.090235 -0.341896
N5    N     N_R   0.653626 0.696944 0.855503 0.078481
O29   O     O_R   0.565305 0.676543 0.891930 -0.308232
O30   O     O_R   0.662301 0.807548 0.869463 -0.396020

loop_
_geom_bond_atom_site_label_1
_geom_bond_atom_site_label_2
_geom_bond_distance
_ccdc_geom_bond_type
C10   C16   1.405841 A    
O11   Cr3   2.056717 S    
C15   H2    1.086303 S    
C9    H5    1.083607 S    
C11   C13   1.397436 A    
C60   H32   1.082576 S    
C19   C23   1.575848 S    
C71   N1    1.154667 T    
C12   C71   1.434756 S    
C44   C48   1.409077 A    
O21   C68   1.280813 A    
C37   N4    1.436160 S    
C66   O18   1.286870 A    
O4    Cr2   1.945965 S    
C41   C42   1.384223 A    
C65   O16   1.324177 A    
Cr5   O26   1.994452 S    
O8    Cr1   1.927547 S    
C21   C22   1.407433 A    
O4    C2    1.246073 A    
C33   C37   1.417747 A    
Cr3   O13   1.993817 S    
C20   C21   1.390068 A    
C57   C70   1.452716 S    
O20   C70   1.308630 A    
C36   H16   1.072348 S    
N5    O30   1.299290 A    
C59   C63   1.496844 S    
C14   C15   1.382925 A    
C34   C38   1.498452 S    
C52   C56   1.405214 A    
C46   H23   1.106994 S    
C50   C54   1.499975 S    
C7    H3    1.082423 S    
C30   C31   1.503025 S    
C18   C19   1.420927 A    
O16   Cr5   2.048966 S    
C20   C72   1.436575 S    
N5    O29   1.301942 A    
C69   O24   1.266409 A    
C7    C17   1.394749 A    
C7    C8    1.394380 A    
C38   H17   1.108243 S    
C15   C20   1.368113 A    
C25   C29   1.386386 A    
C45   H22   1.080532 S    
O9    Cr2   2.060644 S    
C28   H11   1.080668 S    
C30   H14   1.096639 S    
O24   Cr6   2.067739 S    
C29   H12   1.059121 S    
C43   C48   1.397824 A    
C52   C53   1.402931 A    
Cr4   O26   2.001911 S    
C63   H37   1.111818 S    
C57   C58   1.388773 A    
C25   C65   1.466053 S    
C31   H15   1.112165 S    
N4    O28   1.302898 A    
C59   C64   1.405033 A    
C11   C18   1.410601 A    
C22   C23   1.428594 A    
C47   H25   1.105611 S    
O1    Cr1   2.045559 S    
C5    O11   1.264275 A    
N4    O27   1.298071 A    
C25   C26   1.399460 A    
O10   Cr2   1.952491 S    
Cr1   O13   2.003958 S    
O1    C3    1.281667 A    
C8    C9    1.398656 A    
C53   H28   1.078981 S    
C49   C50   1.392294 A    
C27   C31   1.491305 S    
C42   C43   1.353818 A    
O6    C3    1.274965 A    
C9    C10   1.412273 A    
O5    Cr3   2.081197 S    
O12   Cr3   1.961340 S    
C36   C37   1.388949 A    
C41   C69   1.439364 S    
C61   H33   1.076155 S    
C1    C40   1.478793 S    
C44   H21   1.082878 S    
O23   Cr5   1.932163 S    
C21   H9    1.069326 S    
C42   C46   1.485057 S    
C51   C55   1.496577 S    
C35   C40   1.403984 A    
C41   C45   1.407767 A    
O7    Cr1   2.080498 S    
C60   C61   1.398230 A    
C54   C55   1.515926 S    
O12   C6    1.282489 A    
C38   H18   1.113551 S    
C55   H31   1.112354 S    
O20   Cr4   2.050595 S    
O15   C65   1.294248 A    
C5    C48   1.440136 S    
C62   H34   1.110931 S    
C49   C68   1.447877 S    
Cr2   O13   1.992658 S    
C46   C47   1.506407 S    
C33   C67   1.477890 S    
C39   H20   1.095410 S    
O19   C67   1.303132 A    
C8    H4    1.078948 S    
C16   H7    1.071836 S    
C2    C24   1.472192 S    
C18   H8    1.069926 S    
C1    O3    1.304831 A    
C12   C13   1.394356 A    
C63   H36   1.110405 S    
C57   C61   1.410868 A    
O14   Cr4   2.079464 S    
C26   C27   1.392732 A    
C68   O22   1.272621 A    
C28   C32   1.397159 A    
O18   Cr6   2.074857 S    
C47   H26   1.112108 S    
C58   C62   1.494612 S    
C28   C29   1.400235 A    
C3    C32   1.445157 S    
C11   C66   1.486759 S    
C31   C73   1.468806 S    
O2    Cr1   1.960617 S    
C30   H13   1.111760 S    
C60   C64   1.397131 A    
C14   H6    1.029994 S    
C55   H30   1.106223 S    
O17   Cr5   1.964240 S    
C44   C45   1.404208 A    
O6    Cr3   1.936664 S    
O25   Cr6   1.952379 S    
C27   C32   1.400045 A    
C2    O5    1.308069 A    
C22   H10   1.076869 S    
O19   Cr6   1.950986 S    
O14   C67   1.259831 A    
C58   C59   1.375004 A    
O25   C70   1.304692 A    
O15   Cr4   1.931302 S    
C73   N3    1.155184 T    
C17   H1    1.080865 S    
C16   C17   1.399097 A    
O21   Cr4   1.959772 S    
C19   C24   1.463333 A    
C62   C63   1.511133 S    
C33   C34   1.394414 A    
C43   C47   1.509103 S    
C35   C39   1.479444 S    
C52   H27   1.083266 S    
O7    C6    1.271671 A    
C46   H24   1.111049 S    
C54   N5    1.460221 S    
C50   C51   1.368368 A    
C14   C23   1.423924 A    
O2    C1    1.317807 A    
C36   C40   1.396489 A    
C38   C39   1.492914 S    
Cr6   O26   1.988258 S    
C62   H35   1.112480 S    
C49   C53   1.408286 A    
O3    Cr2   2.073000 S    
C26   C30   1.501988 S    
C4    O9    1.261382 A    
C10   C13   1.495114 S    
C34   C35   1.425954 A    
C39   H19   1.111403 S    
C72   N2    1.156769 T    
C12   C24   1.398427 A    
O10   C5    1.280832 A    
C6    C56   1.445888 S    
O17   C66   1.277179 A    
C54   H29   1.108617 S    
O22   Cr5   2.082818 S    
C51   C56   1.396675 A    
C4    C64   1.452381 S    
O23   C69   1.271872 A    
O8    C4    1.290139 A    
