data_mof_unit_29201.cif
_audit_creation_date              2012-12-10T19:21:58-0500
_audit_creation_method            fapswitch 2.2
_symmetry_space_group_name_H-M    P1
_symmetry_Int_Tables_number       1
_space_group_crystal_system       triclinic
_cell_length_a                    8.824912
_cell_length_b                    17.817476
_cell_length_c                    16.446414
_cell_angle_alpha                 91.786765
_cell_angle_beta                  97.432185
_cell_angle_gamma                 89.573945
_cell_volume                      2563.00789886

loop_
_atom_site_label
_atom_site_type_symbol
_atom_type_description
_atom_site_fract_x
_atom_site_fract_y
_atom_site_fract_z
_atom_type_partial_charge
C1    C     C_R   0.502128 0.355112 0.498730 0.801697
C2    C     C_R   0.497893 0.644886 0.501271 0.801714
C3    C     C_1   0.500561 0.966410 0.500225 0.013836
C4    C     C_1   0.499713 0.033582 0.499805 0.013807
C5    C     C_R   0.622169 0.534874 0.837979 -0.125116
C6    C     C_R   0.377800 0.465137 0.162024 -0.125087
C7    C     C_R   0.614554 0.535409 0.751364 0.043818
C8    C     C_R   0.385439 0.464593 0.248640 0.043925
C9    C     C_R   0.390744 0.462052 0.734454 0.004148
C10   C     C_R   0.609242 0.537956 0.265543 0.004090
C11   C     C_R   0.388910 0.461766 0.820156 0.050085
C12   C     C_R   0.611051 0.538253 0.179841 0.050081
C13   C     C_R   0.503841 0.499566 0.873348 0.079449
C14   C     C_R   0.496114 0.500454 0.126651 0.079409
C15   C     C_1   0.501299 0.499646 0.962874 -0.006012
C16   C     C_1   0.498647 0.500376 0.037124 -0.006016
C17   C     C_R   0.204344 0.499808 0.479794 0.895906
C18   C     C_R   0.795656 0.500193 0.520205 0.895890
C19   C     C_2   0.041822 0.491742 0.468738 -0.085867
C20   C     C_2   0.958177 0.508263 0.531257 -0.085893
C21   C     C_R   0.468611 0.850592 0.573157 -0.078753
C22   C     C_R   0.531362 0.149404 0.426812 -0.078710
C23   C     C_R   0.466584 0.771350 0.574759 -0.065338
C24   C     C_R   0.533351 0.228649 0.425209 -0.065301
C25   C     C_R   0.496096 0.728148 0.504141 -0.118038
C26   C     C_R   0.504001 0.271848 0.495864 -0.118052
C27   C     C_R   0.527127 0.765389 0.434117 -0.272513
C28   C     C_R   0.473210 0.234600 0.565931 -0.272515
C29   C     C_R   0.530126 0.843631 0.432865 0.163360
C30   C     C_R   0.470285 0.156358 0.567194 0.163396
C31   C     C_R   0.500746 0.886038 0.502205 0.068572
C32   C     C_R   0.499478 0.113954 0.497815 0.068569
Cu1   Cu    Cu3+1 0.499990 0.499980 0.580420 0.934876
Cu2   Cu    Cu3+1 0.500010 0.500020 0.419580 0.934864
H1    H     H_    0.550866 0.733755 0.379816 0.159153
H2    H     H_    0.449607 0.266229 0.620263 0.159183
H3    H     H_    0.702067 0.564115 0.724004 0.143792
H4    H     H_    0.297936 0.435881 0.276002 0.143812
H5    H     H_    0.304840 0.431013 0.694446 0.117801
H6    H     H_    0.695148 0.568995 0.305550 0.117794
N1    N     N_R   0.499960 0.499970 0.701210 -0.179675
N2    N     N_R   0.500040 0.500030 0.298790 -0.179685
O1    O     O_R   0.499990 0.391240 0.567930 -0.588984
O2    O     O_R   0.500010 0.608760 0.432070 -0.588981
O3    O     O_R   0.500000 0.391270 0.432120 -0.572840
O4    O     O_R   0.500000 0.608730 0.567880 -0.572842
O5    O     O_R   0.274830 0.499990 0.552240 -0.612887
O6    O     O_R   0.725170 0.500010 0.447760 -0.612903
O7    O     O_R   0.274840 0.500020 0.416420 -0.575242
O8    O     O_R   0.725160 0.499980 0.583580 -0.575248
N3    N     N_3   0.977821 0.460739 0.390061 -0.613424
H7    H     H_    0.912331 0.413736 0.398147 0.228809
H8    H     H_    0.913779 0.501548 0.356675 0.237111
N4    N     N_3   0.022179 0.539285 0.609926 -0.613426
H9    H     H_    0.087674 0.586282 0.601820 0.228859
H10   H     H_    0.086221 0.498485 0.643324 0.237134
C33   C     C_R   0.434827 0.896689 0.645550 0.128116
C34   C     C_R   0.553377 0.933628 0.696101 -0.127826
C35   C     C_R   0.521727 0.976093 0.764859 -0.123653
C36   C     C_R   0.371743 0.982192 0.783208 -0.109834
C37   C     C_R   0.253183 0.945741 0.732882 -0.130319
C38   C     C_R   0.284424 0.903063 0.664193 -0.119244
H11   H     H_    0.669947 0.929109 0.682436 0.111886
H12   H     H_    0.613380 0.004414 0.803805 0.113929
H13   H     H_    0.347389 0.015218 0.836358 0.111734
H14   H     H_    0.137107 0.950516 0.747131 0.117064
H15   H     H_    0.191874 0.874931 0.625629 0.116206
C39   C     C_R   0.564850 0.103308 0.354355 0.128011
C40   C     C_R   0.446190 0.066139 0.304109 -0.127906
C41   C     C_R   0.477527 0.023700 0.235273 -0.123735
C42   C     C_R   0.627312 0.017861 0.216532 -0.109826
C43   C     C_R   0.745985 0.054542 0.266548 -0.130318
C44   C     C_R   0.715057 0.097188 0.335321 -0.119091
H16   H     H_    0.329768 0.070459 0.318072 0.111978
H17   H     H_    0.385786 0.995198 0.196569 0.113937
H18   H     H_    0.651424 0.984859 0.163318 0.111740
H19   H     H_    0.861906 0.049972 0.251993 0.117036
H20   H     H_    0.807696 0.125497 0.373642 0.116206
C45   C     C_R   0.433590 0.736226 0.651057 0.164947
C46   C     C_R   0.542139 0.740085 0.721361 -0.129005
C47   C     C_R   0.504951 0.715708 0.796119 -0.144009
C48   C     C_R   0.360880 0.685423 0.800901 -0.104562
C49   C     C_R   0.252610 0.680880 0.730994 -0.137936
C50   C     C_R   0.288188 0.706924 0.656316 -0.128386
H21   H     H_    0.653684 0.764136 0.718687 0.115156
H22   H     H_    0.587538 0.721225 0.850399 0.126662
H23   H     H_    0.332763 0.666176 0.858887 0.116374
H24   H     H_    0.140274 0.658544 0.735181 0.134074
H25   H     H_    0.202042 0.706048 0.603085 0.097395
C51   C     C_R   0.566133 0.263783 0.348874 0.164786
C52   C     C_R   0.711421 0.293199 0.343556 -0.128198
C53   C     C_R   0.746828 0.319259 0.268851 -0.137914
C54   C     C_R   0.638511 0.314604 0.198968 -0.104676
C55   C     C_R   0.494555 0.284207 0.203807 -0.144037
C56   C     C_R   0.457529 0.259823 0.278596 -0.129041
H26   H     H_    0.797614 0.294150 0.396767 0.097343
H27   H     H_    0.859072 0.341689 0.264623 0.134029
H28   H     H_    0.666501 0.333861 0.140960 0.116363
H29   H     H_    0.411930 0.278612 0.149550 0.126728
H30   H     H_    0.346074 0.235686 0.281315 0.115245
N5    N     N_3   0.562981 0.880152 0.360769 -0.583610
H31   H     H_    0.482113 0.862679 0.311830 0.211093
H32   H     H_    0.670406 0.861965 0.347766 0.213629
N6    N     N_3   0.437683 0.119830 0.639338 -0.583602
H33   H     H_    0.518674 0.137312 0.688218 0.211065
H34   H     H_    0.330303 0.138000 0.652438 0.213660
C57   C     C_R   0.758794 0.567767 0.888820 0.099375
C58   C     C_R   0.744324 0.620346 0.952962 -0.112885
C59   C     C_R   0.874359 0.651050 0.999429 -0.122147
C60   C     C_R   0.019863 0.629208 0.982939 -0.116947
C61   C     C_R   0.035726 0.577284 0.919277 -0.116339
C62   C     C_R   0.906080 0.546862 0.872201 -0.149696
H35   H     H_    0.632672 0.638463 0.966457 0.121058
H36   H     H_    0.862263 0.691832 0.048341 0.121111
H37   H     H_    0.120328 0.652747 0.019249 0.118988
H38   H     H_    0.148615 0.560844 0.906378 0.145434
H39   H     H_    0.920397 0.506535 0.823141 0.118529
C63   C     C_R   0.241169 0.432244 0.111191 0.099439
C64   C     C_R   0.093890 0.453132 0.127835 -0.149746
C65   C     C_R   0.964235 0.422706 0.080774 -0.116342
C66   C     C_R   0.980086 0.370797 0.017098 -0.116880
C67   C     C_R   0.125585 0.348970 0.000582 -0.122212
C68   C     C_R   0.255626 0.379676 0.047037 -0.112902
H40   H     H_    0.079584 0.493448 0.176907 0.118523
H41   H     H_    0.851349 0.439130 0.093696 0.145373
H42   H     H_    0.879614 0.347254 0.980797 0.118977
H43   H     H_    0.137670 0.308197 0.951662 0.121109
H44   H     H_    0.367273 0.361566 0.033528 0.121068
N7    N     N_3   0.272779 0.420938 0.852821 -0.604168
H45   H     H_    0.166605 0.440374 0.825915 0.206798
H46   H     H_    0.282029 0.364533 0.834593 0.203270
N8    N     N_3   0.727162 0.579093 0.147173 -0.604132
H47   H     H_    0.833347 0.559628 0.174043 0.206811
H48   H     H_    0.717942 0.635492 0.165437 0.203271

loop_
_geom_bond_atom_site_label_1
_geom_bond_atom_site_label_2
_ccdc_geom_bond_type
C54   C55   A    
C10   N2    A    
C57   C62   A    
C61   C62   A    
Cu2   N2    S    
N6    H34   S    
C47   C48   A    
C33   C34   A    
C51   C56   A    
C64   H40   S    
C2    O4    A    
C21   C31   A    
C35   H12   S    
N5    H31   S    
C22   C32   A    
C38   H15   S    
C24   C26   A    
C42   H18   S    
C27   C29   A    
C48   H23   S    
C9    H5    S    
C58   C59   A    
C18   C20   S    
C10   H6    S    
C67   H43   S    
C63   C64   A    
Cu1   O8    S    
C43   H19   S    
C52   H26   S    
C60   C61   A    
C37   H14   S    
C1    O1    A    
C19   C20   D    
C2    O2    A    
C39   C40   A    
C57   C58   A    
C41   C42   A    
C5    C13   A    
C47   H22   S    
C43   C44   A    
C7    N1    A    
C49   H24   S    
C35   C36   A    
N5    H32   S    
Cu1   O4    S    
C45   C50   A    
C37   C38   A    
C8    H4    S    
C11   N7    S    
N6    H33   S    
C53   H27   S    
N4    H10   S    
N3    H7    S    
Cu1   O1    S    
C33   C38   A    
Cu2   O2    S    
C20   N4    S    
C17   O7    A    
C52   C53   A    
C5    C7    A    
C56   H30   S    
N8    H47   S    
C6    C8    A    
C27   H1    S    
C39   C44   A    
C24   C51   S    
C36   C37   A    
N3    H8    S    
C58   H35   S    
C21   C33   S    
C46   H21   S    
C6    C14   A    
C49   C50   A    
C44   H20   S    
Cu1   Cu2   S    
C7    H3    S    
C29   N5    S    
C40   H16   S    
Cu2   O3    S    
C3    C31   S    
C9    C11   A    
C22   C39   S    
C66   C67   A    
C4    C32   S    
C10   C12   A    
C59   H36   S    
C12   C14   A    
C36   H13   S    
C55   C56   A    
C21   C23   A    
C1    C26   S    
Cu1   O5    S    
C14   C16   S    
Cu2   O6    S    
C50   H25   S    
C30   N6    S    
C3    C4    T    
C65   C66   A    
C18   O8    A    
N7    H45   S    
C5    C57   S    
C34   H11   S    
N4    H9    S    
Cu2   O7    S    
C12   N8    S    
C65   H41   S    
C9    N1    A    
C17   O5    A    
C8    N2    A    
C46   C47   A    
C18   O6    A    
C64   C65   A    
C25   C27   A    
C26   C28   A    
C61   H38   S    
Cu1   N1    S    
C13   C15   S    
C34   C35   A    
C66   H42   S    
C29   C31   A    
C59   C60   A    
C30   C32   A    
C11   C13   A    
C1    O3    A    
C51   C52   A    
C62   H39   S    
C55   H29   S    
C54   H28   S    
C28   C30   A    
C53   C54   A    
C17   C19   S    
C2    C25   S    
C22   C24   A    
C63   C68   A    
C23   C25   A    
C40   C41   A    
C45   C46   A    
C19   N3    S    
C42   C43   A    
C28   H2    S    
N8    H48   S    
C48   C49   A    
C68   H44   S    
C41   H17   S    
C23   C45   S    
C67   C68   A    
C60   H37   S    
C6    C63   S    
C15   C16   T    
N7    H46   S    
