data_mof_unit_20100.cif
_audit_creation_date              2012-12-10T18:05:54-0500
_audit_creation_method            fapswitch 2.2
_symmetry_space_group_name_H-M    P1
_symmetry_Int_Tables_number       1
_space_group_crystal_system       triclinic
_cell_length_a                    25.960704
_cell_length_b                    26.020305
_cell_length_c                    22.153485
_cell_angle_alpha                 90.135084
_cell_angle_beta                  54.224785
_cell_angle_gamma                 90.154407
_cell_volume                      12141.1433102

loop_
_atom_site_label
_atom_site_type_symbol
_atom_type_description
_atom_site_fract_x
_atom_site_fract_y
_atom_site_fract_z
_atom_type_partial_charge
C1    C     C_R   0.400296 0.249906 0.699339 0.828953
C2    C     C_R   0.599703 0.750094 0.300661 0.828952
C3    C     C_R   0.599808 0.249747 0.300604 0.828994
C4    C     C_R   0.400192 0.750253 0.699396 0.828993
C5    C     C_R   0.900297 0.749906 0.699339 0.828952
C6    C     C_R   0.099704 0.250094 0.300661 0.828953
C7    C     C_R   0.099808 0.749747 0.300604 0.828997
C8    C     C_R   0.900192 0.250253 0.699396 0.828994
C9    C     C_3   0.764319 0.289599 0.026132 -0.056757
C10   C     C_3   0.235682 0.710400 0.973867 -0.056758
C11   C     C_3   0.246900 0.295631 0.974880 -0.053590
C12   C     C_3   0.753101 0.704371 0.025121 -0.053585
C13   C     C_3   0.264320 0.789596 0.026133 -0.056758
C14   C     C_3   0.735681 0.210401 0.973868 -0.056757
C15   C     C_3   0.746899 0.795630 0.974879 -0.053586
C16   C     C_3   0.253100 0.204369 0.025117 -0.053598
C17   C     C_3   0.713471 0.248529 0.073503 0.013095
C18   C     C_3   0.286530 0.751469 0.926497 0.013094
C19   C     C_3   0.287006 0.249600 0.926469 0.012004
C20   C     C_3   0.712990 0.750401 0.073530 0.012038
C21   C     C_3   0.213473 0.748527 0.073503 0.013096
C22   C     C_3   0.786528 0.251470 0.926497 0.013096
C23   C     C_3   0.787010 0.749599 0.926470 0.012038
C24   C     C_3   0.212994 0.250401 0.073529 0.012040
C25   C     C_1   0.673119 0.248048 0.154598 -0.004506
C26   C     C_1   0.326882 0.751952 0.845402 -0.004509
C27   C     C_1   0.327401 0.249330 0.845370 0.000907
C28   C     C_1   0.672595 0.750671 0.154629 0.000904
C29   C     C_1   0.173120 0.748045 0.154598 -0.004512
C30   C     C_1   0.826881 0.251952 0.845402 -0.004507
C31   C     C_1   0.827405 0.749329 0.845371 0.000905
C32   C     C_1   0.172599 0.250671 0.154629 0.000858
C33   C     C_R   0.281690 0.204139 0.491391 -0.247406
C34   C     C_R   0.718307 0.795861 0.508615 -0.247409
C35   C     C_R   0.708571 0.208020 0.527025 -0.251565
C36   C     C_R   0.291427 0.791980 0.472978 -0.251565
C37   C     C_R   0.781692 0.704139 0.491387 -0.247410
C38   C     C_R   0.218310 0.295861 0.508609 -0.247408
C39   C     C_R   0.208572 0.708020 0.527023 -0.251564
C40   C     C_R   0.791428 0.291979 0.472975 -0.251564
C41   C     C_R   0.226538 0.202561 0.494484 0.005577
C42   C     C_R   0.773459 0.797438 0.505523 0.005570
C43   C     C_R   0.762938 0.205403 0.525087 -0.000864
C44   C     C_R   0.237061 0.794597 0.474916 -0.000863
C45   C     C_R   0.726540 0.702561 0.494479 0.005576
C46   C     C_R   0.273462 0.297439 0.505517 0.005577
C47   C     C_R   0.262939 0.705403 0.525085 -0.000865
C48   C     C_R   0.737062 0.294597 0.474913 -0.000864
C49   C     C_R   0.195235 0.249024 0.502113 -0.042548
C50   C     C_R   0.804765 0.750976 0.497887 -0.042551
C51   C     C_R   0.804492 0.248195 0.498411 -0.047828
C52   C     C_R   0.195508 0.751805 0.501589 -0.047827
C53   C     C_R   0.695234 0.749023 0.502114 -0.042552
C54   C     C_R   0.304765 0.250976 0.497886 -0.042548
C55   C     C_R   0.304492 0.748195 0.498412 -0.047827
C56   C     C_R   0.695508 0.251805 0.501588 -0.047828
C57   C     C_R   0.527920 0.026808 0.432120 -0.068123
C58   C     C_R   0.472080 0.973192 0.567880 -0.068122
C59   C     C_R   0.471343 0.027038 0.567971 -0.067258
C60   C     C_R   0.528657 0.972962 0.432029 -0.067256
C61   C     C_R   0.027920 0.526808 0.432120 -0.068123
C62   C     C_R   0.972080 0.473192 0.567880 -0.068123
C63   C     C_R   0.971343 0.527038 0.567971 -0.067256
C64   C     C_R   0.028658 0.472962 0.432029 -0.067256
C65   C     C_R   0.500411 0.946247 0.499965 -0.115194
C66   C     C_R   0.499588 0.053753 0.500035 -0.115193
C67   C     C_R   0.000412 0.446247 0.499965 -0.115194
C68   C     C_R   0.999588 0.553753 0.500035 -0.115194
C69   C     C_R   0.639764 0.250777 0.500792 0.787753
C70   C     C_R   0.360236 0.749223 0.499208 0.787754
C71   C     C_R   0.360087 0.250229 0.499506 0.787806
C72   C     C_R   0.639913 0.749771 0.500494 0.787808
C73   C     C_R   0.139764 0.750777 0.500792 0.787753
C74   C     C_R   0.860236 0.249223 0.499208 0.787753
C75   C     C_R   0.860087 0.750229 0.499506 0.787815
C76   C     C_R   0.139913 0.249771 0.500494 0.787809
C77   C     C_R   0.499847 0.109910 0.500028 0.812570
C78   C     C_R   0.500153 0.890089 0.499972 0.812569
C79   C     C_R   0.999847 0.609911 0.500028 0.812569
C80   C     C_R   0.000153 0.390089 0.499972 0.812570
C81   C     C_R   0.500063 0.390170 0.499993 0.961394
C82   C     C_R   0.499937 0.609830 0.500007 0.961398
C83   C     C_R   0.000063 0.890170 0.499993 0.961406
C84   C     C_R   0.999937 0.109830 0.500007 0.961402
C85   C     C_R   0.533662 0.473110 0.431935 0.267159
C86   C     C_R   0.466339 0.526890 0.568065 0.267157
C87   C     C_R   0.466667 0.473186 0.568020 0.288391
C88   C     C_R   0.533333 0.526814 0.431980 0.288388
C89   C     C_R   0.033659 0.973110 0.431935 0.267169
C90   C     C_R   0.966339 0.026890 0.568066 0.267158
C91   C     C_R   0.966668 0.973186 0.568021 0.288381
C92   C     C_R   0.033331 0.026814 0.431981 0.288398
C93   C     C_R   0.499790 0.553740 0.500028 -0.340939
C94   C     C_R   0.500210 0.446261 0.499972 -0.340940
C95   C     C_R   0.999790 0.053739 0.500029 -0.340931
C96   C     C_R   0.000210 0.946260 0.499972 -0.340944
C97   C     C_3   0.240008 0.793966 0.977437 0.418223
C98   C     C_3   0.759994 0.206033 0.022564 0.418223
C99   C     C_3   0.769695 0.786570 0.024424 0.421912
C100  C     C_3   0.230300 0.213433 0.975577 0.421951
C101  C     C_3   0.740006 0.293967 0.977436 0.418222
C102  C     C_3   0.259994 0.706030 0.022564 0.418223
C103  C     C_3   0.269699 0.286568 0.024421 0.421934
C104  C     C_3   0.730305 0.713430 0.975575 0.421913
C105  C     C_3   0.688237 0.253023 0.025497 -0.309110
C106  C     C_3   0.311764 0.746974 0.974503 -0.309110
C107  C     C_3   0.310760 0.240505 0.975315 -0.317907
C108  C     C_3   0.689240 0.759493 0.024679 -0.317900
C109  C     C_3   0.188239 0.753022 0.025497 -0.309109
C110  C     C_3   0.811763 0.246976 0.974502 -0.309109
C111  C     C_3   0.810760 0.740508 0.975321 -0.317900
C112  C     C_3   0.189240 0.259496 0.024683 -0.317905
C113  C     C_1   0.639775 0.248786 0.221330 -0.132657
C114  C     C_1   0.360225 0.751214 0.778670 -0.132660
C115  C     C_1   0.360633 0.249590 0.778631 -0.123818
C116  C     C_1   0.639365 0.750410 0.221369 -0.123822
C117  C     C_1   0.139776 0.748785 0.221330 -0.132661
C118  C     C_1   0.860225 0.251214 0.778670 -0.132658
C119  C     C_1   0.860635 0.749590 0.778631 -0.123822
C120  C     C_1   0.139368 0.250411 0.221369 -0.123851
H1    H     H_    0.637406 0.256443 0.047816 0.174663
H2    H     H_    0.362595 0.743554 0.952184 0.174661
H3    H     H_    0.360986 0.233840 0.953775 0.171358
H4    H     H_    0.639014 0.766157 0.046218 0.171349
H5    H     H_    0.137408 0.756442 0.047816 0.174661
H6    H     H_    0.862594 0.243557 0.952184 0.174661
H7    H     H_    0.860986 0.733843 0.953782 0.171349
H8    H     H_    0.139013 0.266163 0.046226 0.171348
H9    H     H_    0.305392 0.168513 0.486708 0.154781
H10   H     H_    0.694603 0.831487 0.513302 0.154786
H11   H     H_    0.677251 0.174921 0.546530 0.165802
H12   H     H_    0.322746 0.825080 0.453475 0.165800
H13   H     H_    0.805396 0.668513 0.486700 0.154783
H14   H     H_    0.194608 0.331487 0.513292 0.154780
H15   H     H_    0.177253 0.674920 0.546526 0.165801
H16   H     H_    0.822748 0.325079 0.453470 0.165802
O1    O     O_3   0.500000 0.250030 0.500000 -0.500192
O2    O     O_3   0.500000 0.749970 0.500000 -0.500192
O3    O     O_3   0.000000 0.750030 0.500000 -0.500192
O4    O     O_3   0.000000 0.249970 0.500000 -0.500191
O5    O     O_R   0.387450 0.280380 0.664420 -0.612546
O6    O     O_R   0.612550 0.719620 0.335580 -0.612547
O7    O     O_R   0.612550 0.280380 0.335580 -0.612770
O8    O     O_R   0.387450 0.719620 0.664420 -0.612771
O9    O     O_R   0.887450 0.780380 0.664420 -0.612549
O10   O     O_R   0.112550 0.219620 0.335580 -0.612554
O11   O     O_R   0.112550 0.780380 0.335580 -0.612771
O12   O     O_R   0.887450 0.219620 0.664420 -0.612771
O13   O     O_R   0.594260 0.219670 0.543090 -0.650615
O14   O     O_R   0.405740 0.780330 0.456910 -0.650614
O15   O     O_R   0.405740 0.219670 0.456910 -0.649573
O16   O     O_R   0.594260 0.780330 0.543090 -0.649574
O17   O     O_R   0.094260 0.719670 0.543090 -0.650614
O18   O     O_R   0.905740 0.280330 0.456910 -0.650614
O19   O     O_R   0.905740 0.719670 0.456910 -0.649573
O20   O     O_R   0.094260 0.280330 0.543090 -0.649574
O21   O     O_R   0.508800 0.134220 0.543090 -0.638010
O22   O     O_R   0.491200 0.865780 0.456910 -0.638009
O23   O     O_R   0.491200 0.134220 0.456910 -0.638418
O24   O     O_R   0.508800 0.865780 0.543090 -0.638417
O25   O     O_R   0.008800 0.634220 0.543090 -0.638009
O26   O     O_R   0.991200 0.365780 0.456910 -0.638008
O27   O     O_R   0.991200 0.634220 0.456910 -0.638418
O28   O     O_R   0.008800 0.365780 0.543090 -0.638418
O29   O     O_R   0.448100 0.365830 0.543110 -0.598318
O30   O     O_R   0.551900 0.634170 0.456890 -0.598318
O31   O     O_R   0.551900 0.365830 0.456890 -0.604646
O32   O     O_R   0.448100 0.634170 0.543110 -0.604645
O33   O     O_R   0.948100 0.865830 0.543110 -0.598319
O34   O     O_R   0.051900 0.134170 0.456890 -0.598319
O35   O     O_R   0.051900 0.865830 0.456890 -0.604648
O36   O     O_R   0.948100 0.134170 0.543110 -0.604647
O37   O     O_R   0.637370 0.280400 0.456880 -0.631122
O38   O     O_R   0.362630 0.719600 0.543120 -0.631121
O39   O     O_R   0.362630 0.280400 0.543120 -0.627202
O40   O     O_R   0.637370 0.719600 0.456880 -0.627202
O41   O     O_R   0.137370 0.780400 0.456880 -0.631122
O42   O     O_R   0.862630 0.219600 0.543120 -0.631123
O43   O     O_R   0.862630 0.780400 0.543120 -0.627203
O44   O     O_R   0.137370 0.219600 0.456880 -0.627201
O45   O     O_R   0.448170 0.219660 0.664410 -0.639568
O46   O     O_R   0.551830 0.780340 0.335590 -0.639566
O47   O     O_R   0.551830 0.219660 0.335590 -0.638798
O48   O     O_R   0.448170 0.780340 0.664410 -0.638798
O49   O     O_R   0.948170 0.719660 0.664410 -0.639566
O50   O     O_R   0.051830 0.280340 0.335590 -0.639562
O51   O     O_R   0.051830 0.719660 0.335590 -0.638798
O52   O     O_R   0.948170 0.280340 0.664410 -0.638798
Zn1   Zn    Zn3+2 0.574170 0.293410 0.438410 1.018468
Zn2   Zn    Zn3+2 0.425830 0.706590 0.561590 1.018468
Zn3   Zn    Zn3+2 0.425830 0.293410 0.561590 1.024501
Zn4   Zn    Zn3+2 0.574170 0.706590 0.438410 1.024501
Zn5   Zn    Zn3+2 0.074170 0.793410 0.438410 1.018469
Zn6   Zn    Zn3+2 0.925830 0.206590 0.561590 1.018467
Zn7   Zn    Zn3+2 0.925830 0.793410 0.561590 1.024499
Zn8   Zn    Zn3+2 0.074170 0.206590 0.438410 1.024494
Zn9   Zn    Zn3+2 0.512590 0.206650 0.561580 0.968086
Zn10  Zn    Zn3+2 0.487410 0.793350 0.438420 0.968087
Zn11  Zn    Zn3+2 0.487410 0.206650 0.438420 0.969312
Zn12  Zn    Zn3+2 0.512590 0.793350 0.561580 0.969312
Zn13  Zn    Zn3+2 0.012590 0.706650 0.561580 0.968087
Zn14  Zn    Zn3+2 0.987410 0.293350 0.438420 0.968088
Zn15  Zn    Zn3+2 0.987410 0.706650 0.438420 0.969313
Zn16  Zn    Zn3+2 0.012590 0.293350 0.561580 0.969312
Cl1   Cl    Cl    0.573850 0.439903 0.345894 -0.609858
Cl2   Cl    Cl    0.426152 0.560097 0.654106 -0.609859
Cl3   Cl    Cl    0.427364 0.440065 0.653936 -0.591498
Cl4   Cl    Cl    0.572636 0.559935 0.346064 -0.591509
Cl5   Cl    Cl    0.073844 0.939903 0.345895 -0.609854
Cl6   Cl    Cl    0.926152 0.060097 0.654107 -0.609861
Cl7   Cl    Cl    0.927366 0.940065 0.653936 -0.591514
Cl8   Cl    Cl    0.072631 0.059935 0.346066 -0.591582
Cl9   Cl    Cl    0.226480 0.852273 0.946807 -0.650505
Cl10  Cl    Cl    0.773522 0.147727 0.053195 -0.650511
Cl11  Cl    Cl    0.795053 0.835111 0.058585 -0.643319
Cl12  Cl    Cl    0.204934 0.164894 0.941424 -0.643248
Cl13  Cl    Cl    0.726477 0.352273 0.946805 -0.650514
Cl14  Cl    Cl    0.273522 0.647723 0.053193 -0.650514
Cl15  Cl    Cl    0.295064 0.335105 0.058579 -0.643309
Cl16  Cl    Cl    0.704947 0.664890 0.941415 -0.643320
C121  C     C_R   0.223037 0.665760 0.940855 0.152895
C122  C     C_R   0.162930 0.658407 0.955925 -0.135607
C123  C     C_R   0.152816 0.618041 0.922157 -0.138993
C124  C     C_R   0.202527 0.584878 0.873136 -0.139396
C125  C     C_R   0.262334 0.591740 0.858292 -0.101096
C126  C     C_R   0.272553 0.631892 0.892188 -0.077767
H17   H     H_    0.123980 0.683926 0.993133 0.128849
H18   H     H_    0.106498 0.612656 0.933659 0.129444
H19   H     H_    0.194688 0.553930 0.846627 0.120469
H20   H     H_    0.300875 0.566106 0.820279 0.185097
H21   H     H_    0.319255 0.637015 0.879788 0.160787
C127  C     C_R   0.776963 0.334239 0.059143 0.152893
C128  C     C_R   0.837070 0.341592 0.044075 -0.135606
C129  C     C_R   0.847184 0.381958 0.077844 -0.138994
C130  C     C_R   0.797473 0.415121 0.126863 -0.139396
C131  C     C_R   0.737666 0.408260 0.141705 -0.101092
C132  C     C_R   0.727448 0.368109 0.107809 -0.077769
H22   H     H_    0.876020 0.316072 0.006870 0.128850
H23   H     H_    0.893501 0.387342 0.066345 0.129444
H24   H     H_    0.805312 0.446070 0.153372 0.120470
H25   H     H_    0.699126 0.433895 0.179715 0.185094
H26   H     H_    0.680746 0.362986 0.120206 0.160789
C133  C     C_R   0.752951 0.653068 0.056400 0.157922
C134  C     C_R   0.809063 0.632289 0.041832 -0.139908
C135  C     C_R   0.807623 0.585271 0.073251 -0.150545
C136  C     C_R   0.750320 0.558774 0.119252 -0.081138
C137  C     C_R   0.694427 0.578967 0.133436 -0.064066
C138  C     C_R   0.695662 0.625949 0.102161 -0.102089
H27   H     H_    0.853813 0.652366 0.006759 0.126521
H28   H     H_    0.850894 0.569485 0.062229 0.130291
H29   H     H_    0.749185 0.522717 0.144081 0.134803
H30   H     H_    0.650108 0.558325 0.168912 0.187999
H31   H     H_    0.651927 0.641412 0.114029 0.157263
C139  C     C_R   0.247051 0.346933 0.943600 0.157914
C140  C     C_R   0.190942 0.367708 0.958155 -0.139915
C141  C     C_R   0.192384 0.414724 0.926732 -0.150549
C142  C     C_R   0.249686 0.441224 0.880741 -0.081129
C143  C     C_R   0.305575 0.421036 0.866570 -0.064067
C144  C     C_R   0.304338 0.374056 0.897848 -0.102093
H32   H     H_    0.146194 0.347628 0.993220 0.126529
H33   H     H_    0.149116 0.430506 0.937744 0.130293
H34   H     H_    0.250823 0.477280 0.855908 0.134807
H35   H     H_    0.349893 0.441680 0.831101 0.187990
H36   H     H_    0.348072 0.358596 0.885989 0.157277
C145  C     C_R   0.723036 0.165760 0.940857 0.152892
C146  C     C_R   0.662929 0.158406 0.955928 -0.135603
C147  C     C_R   0.652815 0.118040 0.922161 -0.138991
C148  C     C_R   0.702525 0.084877 0.873139 -0.139402
C149  C     C_R   0.762333 0.091740 0.858295 -0.101094
C150  C     C_R   0.772552 0.131892 0.892190 -0.077766
H37   H     H_    0.623979 0.183925 0.993135 0.128852
H38   H     H_    0.606497 0.112654 0.933663 0.129446
H39   H     H_    0.694686 0.053929 0.846631 0.120468
H40   H     H_    0.800873 0.066105 0.820283 0.185095
H41   H     H_    0.819254 0.137016 0.879790 0.160787
C151  C     C_R   0.276965 0.834235 0.059147 0.152894
C152  C     C_R   0.337072 0.841587 0.044078 -0.135600
C153  C     C_R   0.347185 0.881950 0.077852 -0.138996
C154  C     C_R   0.297474 0.915111 0.126876 -0.139435
C155  C     C_R   0.237667 0.908250 0.141718 -0.101109
C156  C     C_R   0.227449 0.868102 0.107817 -0.077760
H42   H     H_    0.376022 0.816068 0.006869 0.128847
H43   H     H_    0.393503 0.887334 0.066351 0.129445
H44   H     H_    0.305312 0.946057 0.153389 0.120487
H45   H     H_    0.199126 0.933883 0.179733 0.185110
H46   H     H_    0.180747 0.862980 0.120215 0.160790
C157  C     C_R   0.252953 0.153060 0.056377 0.158015
C158  C     C_R   0.309092 0.132234 0.041690 -0.139902
C159  C     C_R   0.307658 0.085207 0.073083 -0.150509
C160  C     C_R   0.250335 0.058747 0.119175 -0.081173
C161  C     C_R   0.194416 0.078984 0.133471 -0.064103
C162  C     C_R   0.195646 0.125974 0.102220 -0.102065
H47   H     H_    0.353859 0.152280 0.006541 0.126468
H48   H     H_    0.350949 0.069386 0.061972 0.130289
H49   H     H_    0.249205 0.022684 0.143986 0.134809
H50   H     H_    0.150082 0.058370 0.169016 0.188087
H51   H     H_    0.151891 0.141471 0.114174 0.157172
C163  C     C_R   0.747049 0.846932 0.943599 0.157920
C164  C     C_R   0.690938 0.867711 0.958165 -0.139909
C165  C     C_R   0.692378 0.914729 0.926746 -0.150547
C166  C     C_R   0.749682 0.941226 0.880747 -0.081139
C167  C     C_R   0.805574 0.921033 0.866565 -0.064064
C168  C     C_R   0.804338 0.874052 0.897840 -0.102089
H52   H     H_    0.646188 0.847634 0.993237 0.126522
H53   H     H_    0.649108 0.930515 0.937767 0.130289
H54   H     H_    0.750817 0.977283 0.855918 0.134803
H55   H     H_    0.849893 0.941675 0.831090 0.187999
H56   H     H_    0.848074 0.858588 0.885973 0.157265
C169  C     C_R   0.200674 0.152054 0.493305 0.128351
C170  C     C_R   0.235412 0.120146 0.430462 -0.135379
C171  C     C_R   0.208401 0.074646 0.427021 -0.107504
C172  C     C_R   0.146944 0.060636 0.486424 -0.074977
C173  C     C_R   0.112849 0.091438 0.549952 -0.122480
C174  C     C_R   0.139544 0.136973 0.553567 -0.146570
H57   H     H_    0.282506 0.131232 0.383470 0.128153
H58   H     H_    0.234783 0.050632 0.377907 0.126244
H59   H     H_    0.125381 0.026214 0.483162 0.115652
H60   H     H_    0.065400 0.080391 0.595968 0.173133
H61   H     H_    0.112176 0.161029 0.602598 0.120454
C175  C     C_R   0.799319 0.847945 0.506709 0.128347
C176  C     C_R   0.860443 0.863034 0.446443 -0.146586
C177  C     C_R   0.887136 0.908569 0.450064 -0.122488
C178  C     C_R   0.853047 0.939360 0.513603 -0.074974
C179  C     C_R   0.791595 0.925341 0.573012 -0.107490
C180  C     C_R   0.764586 0.879842 0.569564 -0.135366
H62   H     H_    0.887807 0.838986 0.397403 0.120468
H63   H     H_    0.934581 0.919622 0.404044 0.173131
H64   H     H_    0.874608 0.973781 0.516870 0.115653
H65   H     H_    0.765218 0.949347 0.622135 0.126242
H66   H     H_    0.717497 0.868750 0.616561 0.128149
C181  C     C_R   0.775518 0.157139 0.549680 0.132045
C182  C     C_R   0.735629 0.142203 0.624668 -0.140991
C183  C     C_R   0.750416 0.098938 0.649108 -0.124522
C184  C     C_R   0.804813 0.070281 0.598864 -0.075803
C185  C     C_R   0.843916 0.084281 0.523801 -0.104415
C186  C     C_R   0.829187 0.127356 0.499085 -0.119575
H67   H     H_    0.694121 0.164788 0.664389 0.130399
H68   H     H_    0.720168 0.088019 0.707180 0.128940
H69   H     H_    0.816762 0.037432 0.618267 0.146661
H70   H     H_    0.886259 0.062367 0.484848 0.129990
H71   H     H_    0.860432 0.138373 0.441079 0.116129
C187  C     C_R   0.224478 0.842862 0.450327 0.132043
C188  C     C_R   0.170806 0.872642 0.500924 -0.119575
C189  C     C_R   0.156074 0.915717 0.476212 -0.104424
C190  C     C_R   0.195175 0.929720 0.401151 -0.075812
C191  C     C_R   0.249575 0.901067 0.350904 -0.124516
C192  C     C_R   0.264365 0.857802 0.375341 -0.140990
H72   H     H_    0.139562 0.861622 0.558930 0.116128
H73   H     H_    0.113728 0.937628 0.515167 0.129992
H74   H     H_    0.183224 0.962569 0.381751 0.146668
H75   H     H_    0.279822 0.911988 0.292834 0.128941
H76   H     H_    0.305876 0.835219 0.335618 0.130399
C193  C     C_R   0.700678 0.652054 0.493296 0.128353
C194  C     C_R   0.735417 0.620149 0.430450 -0.135381
C195  C     C_R   0.708408 0.574649 0.427004 -0.107501
C196  C     C_R   0.646952 0.560637 0.486407 -0.074972
C197  C     C_R   0.612856 0.591435 0.549939 -0.122482
C198  C     C_R   0.639550 0.636970 0.553558 -0.146566
H77   H     H_    0.782510 0.631238 0.383457 0.128149
H78   H     H_    0.734789 0.550638 0.377888 0.126240
H79   H     H_    0.625390 0.526215 0.483142 0.115651
H80   H     H_    0.565408 0.580386 0.595955 0.173126
H81   H     H_    0.612182 0.661023 0.602592 0.120454
C199  C     C_R   0.299326 0.347946 0.506696 0.128354
C200  C     C_R   0.360456 0.363026 0.446435 -0.146565
C201  C     C_R   0.387151 0.408562 0.450050 -0.122480
C202  C     C_R   0.353055 0.439364 0.513578 -0.074973
C203  C     C_R   0.291597 0.425355 0.572980 -0.107506
C204  C     C_R   0.264586 0.379854 0.569538 -0.135384
H82   H     H_    0.387825 0.338971 0.397404 0.120452
H83   H     H_    0.434600 0.419608 0.404035 0.173130
H84   H     H_    0.374617 0.473786 0.516841 0.115651
H85   H     H_    0.265214 0.449369 0.622094 0.126240
H86   H     H_    0.217492 0.368769 0.616530 0.128150
C205  C     C_R   0.275521 0.657138 0.549674 0.132043
C206  C     C_R   0.235636 0.642201 0.624662 -0.140987
C207  C     C_R   0.250427 0.598937 0.649099 -0.124515
C208  C     C_R   0.304825 0.570281 0.598851 -0.075808
C209  C     C_R   0.343923 0.584283 0.523790 -0.104427
C210  C     C_R   0.329191 0.627357 0.499077 -0.119582
H87   H     H_    0.194128 0.664786 0.664385 0.130399
H88   H     H_    0.220182 0.588018 0.707170 0.128943
H89   H     H_    0.316777 0.537434 0.618252 0.146671
H90   H     H_    0.386268 0.562370 0.484834 0.129991
H91   H     H_    0.360433 0.638375 0.441071 0.116131
C211  C     C_R   0.724481 0.342861 0.450321 0.132045
C212  C     C_R   0.670811 0.372643 0.500917 -0.119575
C213  C     C_R   0.656081 0.415717 0.476202 -0.104417
C214  C     C_R   0.695183 0.429719 0.401140 -0.075807
C215  C     C_R   0.749581 0.401063 0.350895 -0.124519
C216  C     C_R   0.764369 0.357798 0.375334 -0.140992
H92   H     H_    0.639566 0.361625 0.558923 0.116128
H93   H     H_    0.613736 0.437630 0.515156 0.129988
H94   H     H_    0.683233 0.462567 0.381739 0.146669
H95   H     H_    0.779829 0.411983 0.292824 0.128941
H96   H     H_    0.805878 0.335214 0.335613 0.130400
C217  C     C_R   0.558880 0.054731 0.360400 0.157718
C218  C     C_R   0.620429 0.074661 0.324988 -0.179496
C219  C     C_R   0.648677 0.102047 0.258437 -0.098079
C220  C     C_R   0.615671 0.109568 0.227020 -0.051645
C221  C     C_R   0.554388 0.089794 0.262077 -0.138081
C222  C     C_R   0.525947 0.062504 0.328641 -0.100820
H97   H     H_    0.646196 0.069183 0.349128 0.125053
H98   H     H_    0.696038 0.117593 0.231352 0.172582
H99   H     H_    0.637354 0.130915 0.175730 0.170991
H100  H     H_    0.528807 0.095840 0.237856 0.126506
H101  H     H_    0.478144 0.047852 0.355846 0.109882
C223  C     C_R   0.441120 0.945269 0.639601 0.157721
C224  C     C_R   0.474052 0.937498 0.671360 -0.100822
C225  C     C_R   0.445611 0.910207 0.737924 -0.138088
C226  C     C_R   0.384330 0.890432 0.772980 -0.051640
C227  C     C_R   0.351324 0.897951 0.741562 -0.098077
C228  C     C_R   0.379572 0.925337 0.675011 -0.179495
H102  H     H_    0.521854 0.952151 0.644156 0.109881
H103  H     H_    0.471192 0.904163 0.762146 0.126501
H104  H     H_    0.362648 0.869085 0.824270 0.170990
H105  H     H_    0.303965 0.882403 0.768646 0.172577
H106  H     H_    0.353806 0.930813 0.650870 0.125050
C229  C     C_R   0.437393 0.055113 0.640035 0.155225
C230  C     C_R   0.375632 0.073499 0.672591 -0.183386
C231  C     C_R   0.343907 0.100348 0.740014 -0.103441
C232  C     C_R   0.373616 0.108922 0.775223 -0.064640
C233  C     C_R   0.435198 0.090863 0.742913 -0.134560
C234  C     C_R   0.467118 0.064084 0.675462 -0.092581
H107  H     H_    0.352257 0.067055 0.645699 0.126137
H108  H     H_    0.296317 0.114537 0.764958 0.174508
H109  H     H_    0.349029 0.129678 0.827404 0.164670
H110  H     H_    0.458258 0.097738 0.770045 0.123983
H111  H     H_    0.515023 0.050654 0.650563 0.109095
C235  C     C_R   0.562606 0.944887 0.359966 0.155229
C236  C     C_R   0.532883 0.935919 0.324536 -0.092591
C237  C     C_R   0.564802 0.909138 0.257086 -0.134556
C238  C     C_R   0.626382 0.891076 0.224779 -0.064626
C239  C     C_R   0.656089 0.899647 0.259990 -0.103442
C240  C     C_R   0.624365 0.926497 0.327413 -0.183385
H112  H     H_    0.484979 0.949351 0.349434 0.109096
H113  H     H_    0.541743 0.902266 0.229953 0.123995
H114  H     H_    0.650969 0.870319 0.172599 0.164684
H115  H     H_    0.703678 0.885455 0.235048 0.174510
H116  H     H_    0.647740 0.932938 0.354306 0.126134
C241  C     C_R   0.058880 0.554731 0.360399 0.157718
C242  C     C_R   0.120430 0.574661 0.324988 -0.179496
C243  C     C_R   0.148677 0.602047 0.258436 -0.098080
C244  C     C_R   0.115671 0.609567 0.227020 -0.051644
C245  C     C_R   0.054389 0.589794 0.262077 -0.138082
C246  C     C_R   0.025947 0.562504 0.328641 -0.100822
H117  H     H_    0.146196 0.569183 0.349127 0.125052
H118  H     H_    0.196038 0.617593 0.231351 0.172581
H119  H     H_    0.137354 0.630914 0.175730 0.170991
H120  H     H_    0.028808 0.595840 0.237856 0.126503
H121  H     H_    0.978144 0.547852 0.355846 0.109882
C247  C     C_R   0.941120 0.445269 0.639601 0.157719
C248  C     C_R   0.974053 0.437496 0.671359 -0.100821
C249  C     C_R   0.945611 0.410206 0.737924 -0.138082
C250  C     C_R   0.884328 0.390432 0.772980 -0.051644
C251  C     C_R   0.851323 0.397952 0.741563 -0.098079
C252  C     C_R   0.879570 0.425339 0.675012 -0.179496
H122  H     H_    0.021855 0.452148 0.644154 0.109881
H123  H     H_    0.971192 0.404160 0.762145 0.126503
H124  H     H_    0.862646 0.369085 0.824270 0.170991
H125  H     H_    0.803962 0.382406 0.768648 0.172582
H126  H     H_    0.853804 0.430816 0.650872 0.125052
C253  C     C_R   0.937393 0.555114 0.640034 0.155229
C254  C     C_R   0.875634 0.573503 0.672588 -0.183385
C255  C     C_R   0.843910 0.600352 0.740010 -0.103443
C256  C     C_R   0.873618 0.608924 0.775221 -0.064628
C257  C     C_R   0.935199 0.590862 0.742913 -0.134556
C258  C     C_R   0.967117 0.564082 0.675463 -0.092590
H127  H     H_    0.852260 0.567060 0.645695 0.126135
H128  H     H_    0.796321 0.614544 0.764953 0.174511
H129  H     H_    0.849031 0.629681 0.827401 0.164684
H130  H     H_    0.958258 0.597735 0.770046 0.123994
H131  H     H_    0.015022 0.550650 0.650565 0.109096
C259  C     C_R   0.062608 0.444886 0.359965 0.155228
C260  C     C_R   0.032886 0.435919 0.324535 -0.092590
C261  C     C_R   0.064805 0.409138 0.257085 -0.134554
C262  C     C_R   0.126386 0.391076 0.224778 -0.064628
C263  C     C_R   0.156092 0.399647 0.259991 -0.103445
C264  C     C_R   0.124366 0.426497 0.327413 -0.183384
H132  H     H_    0.984981 0.449351 0.349431 0.109096
H133  H     H_    0.041747 0.402266 0.229950 0.123995
H134  H     H_    0.150973 0.370319 0.172598 0.164683
H135  H     H_    0.203681 0.385455 0.235050 0.174508
H136  H     H_    0.147740 0.432938 0.354308 0.126134

loop_
_geom_bond_atom_site_label_1
_geom_bond_atom_site_label_2
_ccdc_geom_bond_type
C135  H28   S    
C251  H125  S    
O36   Zn6   S    
C123  C124  A    
C70   O14   A    
C90   C95   A    
O43   Zn7   S    
C183  C184  A    
C41   C169  S    
C197  C198  A    
O41   Zn5   S    
C132  H26   S    
C5    C119  S    
C230  C231  A    
C12   C104  S    
C187  C192  A    
C59   C66   A    
C6    O10   A    
C87   C94   A    
C9    C110  S    
O32   Zn2   S    
C134  C135  A    
O16   Zn12  S    
C155  H45   S    
C28   C116  T    
C91   C96   A    
O1    Zn3   S    
C2    C116  S    
C184  H69   S    
C211  C216  A    
C179  C180  A    
C34   C42   A    
C202  H84   S    
C107  H3    S    
C75   O43   A    
C17   C98   S    
O44   Zn8   S    
C98   Cl10  S    
C214  H94   S    
C135  C136  A    
C162  H51   S    
C237  H113  S    
C69   O37   A    
C108  H4    S    
C41   C49   A    
C203  C204  A    
O3    Zn7   S    
C239  C240  A    
O17   Zn13  S    
C234  H111  S    
C253  C254  A    
C10   C102  S    
C3    O7    A    
C146  C147  A    
C1    O45   A    
C187  C188  A    
C39   H15   S    
C20   C28   S    
C166  C167  A    
C21   C29   S    
C39   C52   A    
C23   C31   S    
C15   C108  S    
C145  C150  A    
C26   C114  T    
C220  H99   S    
O4    Zn14  S    
O42   Zn6   S    
C147  H38   S    
C195  C196  A    
C74   O42   A    
C169  C174  A    
O27   Zn15  S    
C12   C20   S    
C81   O31   A    
C13   C21   S    
C182  C183  A    
C236  H112  S    
C217  C222  A    
C77   O23   A    
C78   O24   A    
C237  C238  A    
O1    Zn9   S    
C60   C65   A    
C52   C73   S    
C3    C113  S    
C214  C215  A    
C36   C44   A    
C163  C164  A    
C37   C45   A    
C212  C213  A    
C233  C234  A    
C165  C166  A    
C39   C47   A    
C231  H108  S    
C40   C48   A    
C66   C77   S    
C189  H73   S    
C100  Cl12  S    
C11   C112  S    
C184  C185  A    
C125  H20   S    
C13   C106  S    
C4    O8    A    
C205  C206  A    
C6    O50   A    
C255  H128  S    
C17   C25   S    
C89   C96   A    
C33   C41   A    
C207  H88   S    
C36   C55   A    
C63   C253  S    
C200  C201  A    
C37   C50   A    
C48   C211  S    
C259  C260  A    
C20   C99   S    
C122  H17   S    
C10   C18   S    
C44   C187  S    
C83   O33   A    
O22   Zn10  S    
C261  H133  S    
C211  C212  A    
C38   H14   S    
C13   C97   S    
C245  C246  A    
C254  C255  A    
C204  H86   S    
C75   O19   A    
C209  C210  A    
C256  C257  A    
C249  H123  S    
C103  C107  S    
C1    C115  S    
C224  C225  A    
C124  H19   S    
C201  H83   S    
C256  H129  S    
C20   C108  S    
C27   C115  T    
C165  H53   S    
C131  H25   S    
C152  H42   S    
C231  C232  A    
C42   C175  S    
C130  H24   S    
C7    C117  S    
C229  C230  A    
C24   C112  S    
C57   C66   A    
O35   Zn5   S    
O45   Zn9   S    
C221  C222  A    
C209  H90   S    
C85   Cl1   S    
C191  H75   S    
O33   Zn7   S    
C205  C210  A    
O50   Zn14  S    
C196  H79   S    
C167  C168  A    
C149  H40   S    
O26   Zn14  S    
C166  H54   S    
C7    O51   A    
C227  C228  A    
C84   O34   A    
C146  H37   S    
C36   H12   S    
C238  H114  S    
C208  H89   S    
C11   C139  S    
C60   C235  S    
C199  C200  A    
C74   O18   A    
C10   C109  S    
C142  C143  A    
C190  H74   S    
C192  H76   S    
C78   O22   A    
C14   C105  S    
O1    Zn11  S    
C213  C214  A    
O48   Zn12  S    
C252  H126  S    
C249  C250  A    
C35   C43   A    
C128  C129  A    
C173  C174  A    
C64   C259  S    
C44   C52   A    
C68   C79   S    
C99   C111  S    
C232  H109  S    
C45   C193  S    
C152  C153  A    
C230  H107  S    
O19   Zn15  S    
C14   C98   S    
C7    O11   A    
C136  H29   S    
O31   Zn1   S    
C5    O9    A    
C134  H27   S    
C175  C180  A    
C248  H122  S    
C155  C156  A    
C91   Cl7   S    
C138  H31   S    
C16   C100  S    
C89   Cl5   S    
C30   C118  T    
C72   O16   A    
C179  H65   S    
O52   Zn16  S    
C4    O48   A    
C185  C186  A    
C83   O35   A    
C244  C245  A    
C84   C95   S    
C199  C204  A    
C18   C106  S    
C121  C122  A    
C86   C93   A    
C97   C109  S    
C131  C132  A    
C58   C65   A    
C236  C237  A    
C154  C155  A    
O6    Zn4   S    
C106  H2    S    
C62   C63   A    
C159  C160  A    
O7    Zn1   S    
C148  C149  A    
C16   C157  S    
C70   O38   A    
C80   O26   A    
C225  C226  A    
C110  H6    S    
C21   C102  S    
C246  H121  S    
C42   C50   A    
C133  C138  A    
C153  H43   S    
C232  C233  A    
C2    O6    A    
C92   Cl8   S    
C85   C88   A    
C9    C17   S    
C33   C54   A    
C136  C137  A    
C22   C30   S    
C226  H104  S    
C150  H41   S    
C137  H30   S    
C181  C186  A    
C220  C221  A    
C84   O36   A    
C182  H67   S    
C227  H105  S    
C21   C109  S    
C147  C148  A    
C168  H56   S    
C40   C51   A    
C23   C111  S    
C24   C103  S    
C14   C22   S    
C47   C205  S    
C143  C144  A    
C208  C209  A    
C217  C218  A    
O34   Zn8   S    
C81   C94   S    
C253  C258  A    
O8    Zn2   S    
C172  H59   S    
C83   C96   S    
C58   C223  S    
C257  H130  S    
C163  C168  A    
C43   C181  S    
C263  C264  A    
C38   C46   A    
C102  Cl14  S    
O3    Zn5   S    
C151  C152  A    
C194  C195  A    
C157  C162  A    
C242  C243  A    
C141  H33   S    
C3    O47   A    
C235  C240  A    
C19   C107  S    
C98   C110  S    
C18   C26   S    
C51   C74   S    
C5    O49   A    
C188  C189  A    
C124  C125  A    
C193  C194  A    
C259  C264  A    
C38   C49   A    
C82   O32   A    
C8    O52   A    
C126  H21   S    
C40   H16   S    
C11   C19   S    
C22   C101  S    
C9    C127  S    
O9    Zn7   S    
C4    C114  S    
C88   Cl4   S    
C79   O25   A    
C185  H70   S    
O21   Zn9   S    
C133  C134  A    
O51   Zn15  S    
C174  H61   S    
C160  C161  A    
O49   Zn13  S    
C224  H102  S    
C201  C202  A    
C80   O28   A    
C16   C107  S    
C260  H132  S    
C140  H32   S    
C245  H120  S    
C71   O15   A    
C54   C71   S    
C143  H35   S    
C22   C110  S    
O5    Zn3   S    
C130  C131  A    
C18   C97   S    
C221  H100  S    
C14   C145  S    
O23   Zn11  S    
C177  C178  A    
C35   C56   A    
C250  C251  A    
C82   C93   S    
C97   Cl9   S    
C149  C150  A    
C8    O12   A    
C248  C249  A    
C61   C241  S    
C261  C262  A    
O18   Zn14  S    
C173  H60   S    
C170  H57   S    
C219  H98   S    
C142  H34   S    
C241  C246  A    
C144  H36   S    
C15   C99   S    
C215  H95   S    
C206  H87   S    
C247  C248  A    
C57   C60   A    
C241  C242  A    
C58   C59   A    
C167  H55   S    
C76   O20   A    
C178  C179  A    
C61   C64   A    
C128  H22   S    
C262  C263  A    
C25   C113  T    
C23   C104  S    
C62   C247  S    
C46   C54   A    
C180  H66   S    
C158  H47   S    
C139  C144  A    
C31   C119  T    
C243  H118  S    
O38   Zn2   S    
O12   Zn6   S    
C100  C112  S    
C250  H124  S    
C129  C130  A    
C35   H11   S    
C104  C108  S    
C240  H116  S    
C82   O30   A    
C33   H9    S    
C170  C171  A    
C65   C78   S    
C86   C87   A    
C218  H97   S    
O2    Zn4   S    
C67   C80   S    
C76   O44   A    
C257  C258  A    
C19   C100  S    
C215  C216  A    
C159  H48   S    
C176  C177  A    
C69   O13   A    
O4    Zn16  S    
C161  H50   S    
C213  H93   S    
C225  H103  S    
C181  C182  A    
O3    Zn15  S    
C50   C75   S    
C158  C159  A    
C43   C51   A    
C90   C91   A    
C263  H135  S    
C121  C126  A    
C127  C128  A    
O29   Zn3   S    
C71   O39   A    
O30   Zn4   S    
C72   O40   A    
C112  H8    S    
C1    O5    A    
C222  H101  S    
C223  C224  A    
C34   C53   A    
C151  C156  A    
C264  H136  S    
C226  C227  A    
C247  C252  A    
C53   C72   S    
O4    Zn6   S    
C228  H106  S    
O14   Zn10  S    
C219  C220  A    
C103  Cl15  S    
O2    Zn12  S    
C171  C172  A    
C254  H127  S    
C202  C203  A    
O46   Zn10  S    
C164  C165  A    
C86   Cl2   S    
C24   C32   S    
C191  C192  A    
C8    C118  S    
O24   Zn12  S    
C169  C170  A    
C172  C173  A    
C139  C140  A    
C62   C67   A    
O25   Zn13  S    
O39   Zn3   S    
C203  H85   S    
O40   Zn4   S    
C258  H131  S    
C194  H77   S    
C178  H64   S    
C2    O46   A    
C242  H117  S    
C235  C236  A    
C104  Cl16  S    
C13   C151  S    
C157  C158  A    
C15   C163  S    
C148  H39   S    
C210  H91   S    
C102  C106  S    
C156  H46   S    
C19   C27   S    
C145  C146  A    
C239  H115  S    
C10   C121  S    
C73   O41   A    
C161  C162  A    
C15   C23   S    
C195  H78   S    
C16   C24   S    
C171  H58   S    
O2    Zn2   S    
C32   C120  T    
C6    C120  S    
C101  C105  S    
C216  H96   S    
C59   C229  S    
C160  H49   S    
C64   C67   A    
O15   Zn11  S    
C212  H92   S    
O3    Zn13  S    
C260  C261  A    
C90   Cl6   S    
C123  H18   S    
C251  C252  A    
C154  H44   S    
C29   C117  T    
C262  H134  S    
C92   C95   A    
O47   Zn11  S    
C186  H71   S    
C17   C105  S    
C85   C94   A    
C177  H63   S    
C12   C133  S    
C141  C142  A    
C255  C256  A    
C49   C76   S    
C105  H1    S    
C198  H81   S    
C183  H68   S    
C189  C190  A    
C89   C92   A    
O4    Zn8   S    
C87   Cl3   S    
C207  C208  A    
C200  H82   S    
O1    Zn1   S    
O2    Zn10  S    
C109  H5    S    
C244  H119  S    
C56   C69   S    
C111  H7    S    
C37   H13   S    
O28   Zn16  S    
O10   Zn8   S    
C140  C141  A    
O20   Zn16  S    
C206  C207  A    
C47   C55   A    
C164  H52   S    
C197  H80   S    
C48   C56   A    
C88   C93   A    
C125  C126  A    
C63   C68   A    
C153  C154  A    
C193  C198  A    
C79   O27   A    
C46   C199  S    
C137  C138  A    
C233  H110  S    
C57   C217  S    
C175  C176  A    
C229  C234  A    
C243  C244  A    
C61   C68   A    
C223  C228  A    
C99   Cl11  S    
O37   Zn1   S    
C196  C197  A    
C176  H62   S    
O11   Zn5   S    
C129  H23   S    
C122  C123  A    
C55   C70   S    
C127  C132  A    
C45   C53   A    
C101  Cl13  S    
C34   H10   S    
C9    C101  S    
C238  C239  A    
C73   O17   A    
C81   O29   A    
C218  C219  A    
C77   O21   A    
C11   C103  S    
C190  C191  A    
C188  H72   S    
C12   C111  S    
O13   Zn9   S    
