data_mof_unit_53278.cif
_audit_creation_date              2012-12-10T17:57:53-0500
_audit_creation_method            fapswitch 2.2
_symmetry_space_group_name_H-M    P1
_symmetry_Int_Tables_number       1
_space_group_crystal_system       triclinic
_cell_length_a                    10.78718
_cell_length_b                    9.514194
_cell_length_c                    15.093022
_cell_angle_alpha                 89.973449
_cell_angle_beta                  90.211932
_cell_angle_gamma                 90.175728
_cell_volume                      1548.9987789

loop_
_atom_site_label
_atom_site_type_symbol
_atom_type_description
_atom_site_fract_x
_atom_site_fract_y
_atom_site_fract_z
_atom_type_partial_charge
C1    C     C_R   0.262493 0.499794 0.499880 0.800184
C2    C     C_R   0.737517 0.500265 0.499091 0.888126
C3    C     C_R   0.398379 0.732785 0.042934 0.415802
C4    C     C_R   0.600715 0.266825 0.957094 0.415854
C5    C     C_R   0.064294 0.430907 0.429852 0.381598
C6    C     C_R   0.934268 0.572585 0.565308 0.369432
C7    C     C_R   0.935594 0.430731 0.429227 0.354386
C8    C     C_R   0.064150 0.569134 0.568076 0.300942
C9    C     C_R   0.871284 0.501365 0.497227 -0.336604
C10   C     C_R   0.128674 0.499395 0.499469 -0.356279
C11   C     C_R   0.423412 0.074233 0.444480 0.018720
C12   C     C_R   0.576588 0.925772 0.555517 0.016660
C13   C     C_R   0.576611 0.074631 0.555494 0.032654
C14   C     C_R   0.423389 0.925369 0.444504 0.036152
C15   C     C_R   0.495345 0.500002 0.328763 0.769292
C16   C     C_R   0.504600 0.499988 0.671244 0.813504
C17   C     C_R   0.567702 0.389192 0.815126 0.439828
C18   C     C_R   0.431732 0.610576 0.184925 0.438742
C19   C     C_R   0.511988 0.500483 0.768033 -0.206001
C20   C     C_R   0.487684 0.499419 0.231993 -0.207972
C21   C     C_R   0.459906 0.613189 0.813157 -0.207589
C22   C     C_R   0.539635 0.386654 0.186856 -0.200524
C23   C     C_R   0.457752 0.617073 0.905442 0.043596
C24   C     C_R   0.541540 0.382652 0.094578 0.042338
C25   C     C_R   0.502882 0.499851 0.953479 -0.091119
C26   C     C_R   0.496362 0.499850 0.046544 -0.091021
C27   C     C_R   0.556739 0.383924 0.908332 0.019206
C28   C     C_R   0.442508 0.615769 0.091700 0.021195
C29   C     C_R   0.409908 0.735260 0.950029 0.044489
C30   C     C_R   0.589222 0.264384 0.049996 0.047355
Cu1   Cu    Cu3+1 0.500000 0.640660 0.500000 0.997632
Cu2   Cu    Cu3+1 0.500000 0.359340 0.500000 0.984282
H1    H     H_    0.417934 0.696235 0.774724 0.205418
H2    H     H_    0.581734 0.303662 0.225266 0.206398
H3    H     H_    0.362057 0.130215 0.400029 0.154259
H4    H     H_    0.637945 0.869799 0.599969 0.162739
H5    H     H_    0.638070 0.130895 0.599866 0.154468
H6    H     H_    0.361931 0.869105 0.400132 0.154738
N1    N     N_R   0.500000 0.852070 0.500000 -0.181801
N2    N     N_R   0.500000 0.147930 0.500000 -0.179664
O1    O     O_R   0.319640 0.618740 0.499990 -0.574869
O2    O     O_R   0.680360 0.381260 0.500010 -0.593291
O3    O     O_R   0.680360 0.618740 0.500010 -0.542176
O4    O     O_R   0.319640 0.381260 0.499990 -0.568788
O5    O     O_R   0.499970 0.618800 0.370260 -0.563518
O6    O     O_R   0.500030 0.381200 0.629740 -0.563970
O7    O     O_R   0.500030 0.618800 0.629740 -0.576774
O8    O     O_R   0.499970 0.381200 0.370260 -0.590266
O9    O     O_3   0.634899 0.287162 0.771513 -0.650704
H7    H     H_    0.679641 0.332024 0.721661 0.319812
O10   O     O_3   0.364520 0.712549 0.228580 -0.648048
H8    H     H_    0.320026 0.667694 0.278550 0.309945
I1    I     I_    0.368150 0.926589 0.879701 -0.257431
I2    I     I_    0.630753 0.073010 0.120346 -0.245343
O11   O     O_3   0.349224 0.846282 0.087596 -0.623033
H9    H     H_    0.285363 0.891251 0.050065 0.350350
O12   O     O_3   0.649707 0.153238 0.912429 -0.625338
H10   H     H_    0.713489 0.108131 0.949960 0.349318
O13   O     O_3   0.123024 0.365996 0.359513 -0.648914
H11   H     H_    0.208913 0.401334 0.353889 0.306605
O14   O     O_3   0.865246 0.639048 0.630169 -0.718426
H12   H     H_    0.920496 0.688423 0.672445 0.383045
O15   O     O_3   0.876876 0.364623 0.358878 -0.639653
H13   H     H_    0.790227 0.397290 0.353730 0.316589
O16   O     O_3   0.124108 0.632376 0.638993 -0.710742
H14   H     H_    0.207859 0.592089 0.646734 0.334205

loop_
_geom_bond_atom_site_label_1
_geom_bond_atom_site_label_2
_ccdc_geom_bond_type
C4    O12   S    
C18   O10   S    
O11   H9    S    
C14   H6    S    
C30   I2    S    
C1    O4    A    
C13   H5    S    
Cu1   Cu2   S    
C2    O3    A    
C2    O2    A    
Cu2   O6    S    
C4    C27   A    
C12   N1    A    
C23   C25   A    
Cu2   O4    S    
O13   H11   S    
C25   C26   A    
Cu1   O7    S    
Cu2   O8    S    
C24   C26   A    
C7    O15   S    
O12   H10   S    
C11   N2    A    
Cu1   O3    S    
C15   O8    A    
C6    C9    A    
C16   C19   S    
C5    O13   S    
C23   C29   A    
C6    O14   S    
C1    O1    A    
C3    C28   A    
C17   C19   A    
C20   C22   A    
C12   H4    S    
O16   H14   S    
C18   C20   A    
C21   C23   A    
O14   H12   S    
C22   H2    S    
C11   C14   A    
C24   C30   A    
C8    O16   S    
C21   H1    S    
C15   O5    A    
C17   O9    S    
O10   H8    S    
C17   C27   A    
C7    C9    A    
C5    C10   A    
Cu2   N2    S    
C18   C28   A    
C12   C13   A    
C16   O7    A    
C3    C29   A    
O9    H7    S    
Cu1   O5    S    
C22   C24   A    
C16   O6    A    
C5    C7    A    
Cu2   O2    S    
C13   N2    A    
C6    C8    A    
Cu1   O1    S    
C19   C21   A    
C14   N1    A    
C2    C9    S    
C26   C28   A    
C11   H3    S    
C8    C10   A    
C4    C30   A    
C1    C10   S    
O15   H13   S    
C29   I1    S    
Cu1   N1    S    
C15   C20   S    
C3    O11   S    
C25   C27   A    
