data_mof_unit_36069.cif
_audit_creation_date              2012-12-10T19:48:29-0500
_audit_creation_method            fapswitch 2.2
_symmetry_space_group_name_H-M    P1
_symmetry_Int_Tables_number       1
_space_group_crystal_system       triclinic
_cell_length_a                    10.827432
_cell_length_b                    10.624727
_cell_length_c                    9.419724
_cell_angle_alpha                 89.04033
_cell_angle_beta                  90.746522
_cell_angle_gamma                 89.148633
_cell_volume                      1083.26384594

loop_
_atom_site_label
_atom_site_type_symbol
_atom_type_description
_atom_site_fract_x
_atom_site_fract_y
_atom_site_fract_z
_atom_type_partial_charge
C1    C     C_R   0.500262 0.259374 0.501024 0.771336
C2    C     C_R   0.499746 0.740626 0.498976 0.771297
C3    C     C_R   0.871556 0.493818 0.502246 -0.084306
C4    C     C_R   0.128444 0.506209 0.497755 -0.084307
C5    C     C_R   0.942016 0.432645 0.610897 -0.001103
C6    C     C_R   0.057983 0.567389 0.389101 -0.001060
C7    C     C_3   0.491620 0.037444 0.635220 -0.146634
C8    C     C_3   0.508399 0.962555 0.364780 -0.146666
C9    C     C_3   0.596874 0.954312 0.575987 -0.171604
C10   C     C_3   0.403143 0.045685 0.424012 -0.171607
C11   C     C_3   0.499732 0.877642 0.497345 0.034244
C12   C     C_3   0.500285 0.122357 0.502655 0.034242
C13   C     C_3   0.394542 0.958465 0.556442 -0.175295
C14   C     C_3   0.605475 0.041535 0.443558 -0.175280
C15   C     C_3   0.535164 0.607380 0.048927 -0.050627
C16   C     C_3   0.464835 0.392620 0.951073 -0.050599
C17   C     C_3   0.426006 0.586105 0.946405 -0.017123
C18   C     C_3   0.573994 0.413895 0.053595 -0.017116
C19   C     C_3   0.609355 0.521181 0.950952 -0.027423
C20   C     C_3   0.390644 0.478819 0.049048 -0.027423
C21   C     C_R   0.262470 0.504036 0.498941 0.783159
C22   C     C_R   0.737530 0.495971 0.501058 0.783180
C23   C     C_R   0.231959 0.821778 0.191267 -0.129045
C24   C     C_R   0.768152 0.178162 0.808690 -0.129031
C25   C     C_R   0.189904 0.745032 0.302108 -0.088141
C26   C     C_R   0.810198 0.254917 0.697855 -0.088280
C27   C     C_R   0.112147 0.643744 0.272784 0.124936
C28   C     C_R   0.887850 0.356288 0.727203 0.125028
C29   C     C_R   0.077054 0.621442 0.131424 -0.179096
C30   C     C_R   0.922839 0.378678 0.868580 -0.179076
C31   C     C_R   0.119289 0.698321 0.021115 -0.159008
C32   C     C_R   0.880600 0.301800 0.978886 -0.159053
C33   C     C_R   0.196398 0.798839 0.051178 -0.140218
C34   C     C_R   0.803605 0.201189 0.948798 -0.140136
C35   C     C_R   0.929967 0.559493 0.392892 -0.242595
C36   C     C_R   0.070030 0.440545 0.607115 -0.242578
Cu1   Cu    Cu3+1 0.500030 0.499990 0.643150 0.934432
Cu2   Cu    Cu3+1 0.499970 0.500010 0.356850 0.934416
H1    H     H_    0.364961 0.658533 0.894869 0.120440
H2    H     H_    0.635036 0.341466 0.105133 0.120424
H3    H     H_    0.564773 0.697880 0.094670 0.112187
H4    H     H_    0.435227 0.302120 0.905330 0.112190
H5    H     H_    0.701368 0.539902 0.905339 0.130464
H6    H     H_    0.298629 0.460110 0.094659 0.130476
H7    H     H_    0.290712 0.900220 0.213569 0.121127
H8    H     H_    0.709487 0.099647 0.786371 0.121110
H9    H     H_    0.215859 0.765924 0.410467 0.088235
H10   H     H_    0.784324 0.233969 0.589481 0.088245
H11   H     H_    0.015871 0.544998 0.107650 0.117782
H12   H     H_    0.983936 0.455197 0.892367 0.117778
H13   H     H_    0.874954 0.608854 0.311871 0.154787
H14   H     H_    0.125037 0.391190 0.688147 0.154810
H15   H     H_    0.483922 0.070656 0.745922 0.122191
H16   H     H_    0.516111 0.929344 0.254080 0.122171
H17   H     H_    0.308182 0.921382 0.602382 0.116223
H18   H     H_    0.691835 0.078617 0.397618 0.116216
N1    N     N_3   0.500090 0.499970 0.858290 -0.158732
N2    N     N_3   0.499910 0.500030 0.141710 -0.158733
O1    O     O_R   0.500060 0.316850 0.620870 -0.584301
O2    O     O_R   0.499940 0.683150 0.379130 -0.584319
O3    O     O_R   0.500000 0.316860 0.379090 -0.585663
O4    O     O_R   0.500000 0.683140 0.620910 -0.585664
O5    O     O_R   0.319670 0.500010 0.620890 -0.587844
O6    O     O_R   0.680330 0.499990 0.379110 -0.587854
O7    O     O_R   0.319620 0.500010 0.379110 -0.574102
O8    O     O_R   0.680380 0.499990 0.620890 -0.574097
H19   H     H_    0.228790 0.858850 0.965890 0.117318
H20   H     H_    0.771214 0.141175 0.034083 0.117301
H21   H     H_    0.091830 0.680332 0.912510 0.130996
H22   H     H_    0.907968 0.319864 0.087507 0.130995
H23   H     H_    0.676221 0.912940 0.637329 0.122986
H24   H     H_    0.323795 0.087046 0.362663 0.123016

loop_
_geom_bond_atom_site_label_1
_geom_bond_atom_site_label_2
_ccdc_geom_bond_type
C7    C13   S    
C14   H18   S    
C4    C36   A    
C23   H7    S    
C27   C29   A    
Cu1   O4    S    
C29   H11   S    
C19   N1    S    
C15   C19   S    
C24   C26   A    
C1    O1    A    
C2    O2    A    
C5    C36   A    
C17   C20   S    
C6    C35   A    
C7    C9    S    
C18   C19   S    
C17   H1    S    
C18   H2    S    
C22   O8    A    
Cu1   O5    S    
Cu2   N2    S    
C18   N2    S    
C23   C33   A    
C31   C33   A    
C25   H9    S    
C36   H14   S    
C26   H10   S    
Cu2   O3    S    
C30   H12   S    
C1    C12   S    
C2    C11   S    
C20   H6    S    
C19   H5    S    
Cu2   O6    S    
C7    C12   S    
C15   H3    S    
C4    C6    A    
C8    H16   S    
C32   H22   S    
C24   C34   A    
C32   C34   A    
C9    C14   S    
Cu1   Cu2   S    
C5    C28   S    
C6    C27   S    
Cu2   O7    S    
C3    C35   A    
C16   C20   S    
Cu1   O8    S    
C9    C11   S    
Cu1   O1    S    
C10   C12   S    
Cu2   O2    S    
C8    C10   S    
C12   C14   S    
C35   H13   S    
C15   N2    S    
C7    H15   S    
C20   N2    S    
C16   H4    S    
C33   H19   S    
C15   C17   S    
C8    C14   S    
C21   O7    A    
C9    H23   S    
C3    C5    A    
C10   C13   S    
C1    O3    A    
C25   C27   A    
C26   C28   A    
C24   H8    S    
C28   C30   A    
C29   C31   A    
C34   H20   S    
C30   C32   A    
C4    C21   S    
C11   C13   S    
C8    C11   S    
C16   N1    S    
C23   C25   A    
C21   O5    A    
C22   O6    A    
C31   H21   S    
C16   C18   S    
C3    C22   S    
Cu1   N1    S    
C2    O4    A    
C17   N1    S    
C13   H17   S    
C10   H24   S    
