data_mof_unit_38535.cif
_audit_creation_date              2012-12-11T15:33:41-0500
_audit_creation_method            fapswitch 2.2
_symmetry_space_group_name_H-M    P1
_symmetry_Int_Tables_number       1
_space_group_crystal_system       triclinic
_cell_length_a                    27.24777
_cell_length_b                    7.205413
_cell_length_c                    22.625793
_cell_angle_alpha                 89.99312
_cell_angle_beta                  101.096902
_cell_angle_gamma                 89.990134
_cell_volume                      4359.09967623

loop_
_atom_site_label
_atom_site_type_symbol
_atom_type_description
_atom_site_fract_x
_atom_site_fract_y
_atom_site_fract_z
_atom_type_partial_charge
O1    O     O_R   0.207310 0.594030 0.676830 -0.536848
O2    O     O_R   0.792690 0.405970 0.323170 -0.536848
O3    O     O_R   0.292690 0.094030 0.823170 -0.536852
O4    O     O_R   0.707310 0.905970 0.176830 -0.536851
O5    O     O_R   0.197320 0.262370 0.795700 -0.551053
O6    O     O_R   0.802680 0.737630 0.204300 -0.551053
O7    O     O_R   0.302680 0.762370 0.704300 -0.551060
O8    O     O_R   0.697320 0.237630 0.295700 -0.551060
C1    C     C_R   0.185322 0.432650 0.812719 0.704234
C2    C     C_R   0.814678 0.567350 0.187281 0.704233
C3    C     C_R   0.314678 0.932644 0.687280 0.704253
C4    C     C_R   0.685322 0.067356 0.312720 0.704253
O9    O     O_R   0.201410 0.264250 0.675590 -0.526845
O10   O     O_R   0.798590 0.735750 0.324410 -0.526848
O11   O     O_R   0.298590 0.764250 0.824410 -0.526854
O12   O     O_R   0.701410 0.235750 0.175590 -0.526855
O13   O     O_R   0.296810 0.094940 0.702210 -0.511951
O14   O     O_R   0.703190 0.905060 0.297790 -0.511951
O15   O     O_R   0.203190 0.594940 0.797790 -0.511976
O16   O     O_R   0.796810 0.405060 0.202210 -0.511976
C5    C     C_R   0.189613 0.432690 0.653488 0.690134
C6    C     C_R   0.810387 0.567310 0.346512 0.690136
C7    C     C_R   0.310391 0.932644 0.846513 0.690073
C8    C     C_R   0.689609 0.067355 0.153487 0.690073
O17   O     O_3   0.281300 0.427390 0.758870 -0.375134
O18   O     O_3   0.718700 0.572610 0.241130 -0.375134
O19   O     O_3   0.218700 0.927390 0.741130 -0.375133
O20   O     O_3   0.781300 0.072610 0.258870 -0.375133
V1    V     V_3+5 0.244190 0.152150 0.748350 1.415871
V2    V     V_3+5 0.755810 0.847850 0.251650 1.415869
V3    V     V_3+5 0.255810 0.652150 0.751650 1.415877
V4    V     V_3+5 0.744190 0.347850 0.248350 1.415876
C9    C     C_R   0.654610 0.061478 0.094878 -0.034822
C10   C     C_R   0.345390 0.938517 0.905122 -0.034826
C11   C     C_R   0.845378 0.561203 0.405119 -0.034612
C12   C     C_R   0.154622 0.438789 0.594880 -0.034619
C13   C     C_R   0.639682 0.111938 0.987405 -0.148546
C14   C     C_R   0.360320 0.888003 0.012593 -0.148532
C15   C     C_R   0.860183 0.609232 0.512695 -0.148523
C16   C     C_R   0.139815 0.390689 0.487307 -0.148494
C17   C     C_R   0.672091 0.107741 0.042897 -0.189685
C18   C     C_R   0.327909 0.892232 0.957102 -0.189679
C19   C     C_R   0.827807 0.605807 0.457173 -0.189705
C20   C     C_R   0.172192 0.394162 0.542828 -0.189698
C21   C     C_R   0.603610 0.020926 0.091007 -0.195340
C22   C     C_R   0.396390 0.979066 0.908994 -0.195339
C23   C     C_R   0.896425 0.521549 0.408948 -0.195323
C24   C     C_R   0.103574 0.478430 0.591051 -0.195322
C25   C     C_R   0.569069 0.027660 0.034778 0.053441
C26   C     C_R   0.430933 0.972289 0.965221 0.053442
C27   C     C_R   0.930924 0.527443 0.465215 0.053463
C28   C     C_R   0.069073 0.472471 0.534786 0.053463
C29   C     C_R   0.588405 0.071903 0.982371 0.101559
C30   C     C_R   0.411597 0.928020 0.017627 0.101549
C31   C     C_R   0.911502 0.569968 0.517693 0.101538
C32   C     C_R   0.088493 0.429912 0.482310 0.101520
C33   C     C_R   0.516240 0.994324 0.028927 0.014678
C34   C     C_R   0.483762 0.005605 0.971072 0.014683
C35   C     C_R   0.983784 0.494816 0.471048 0.014690
C36   C     C_R   0.016211 0.505063 0.528955 0.014699
C37   C     C_R   0.505164 0.048065 0.920730 -0.242349
C38   C     C_R   0.494840 0.951818 0.079267 -0.242346
C39   C     C_R   0.994727 0.545797 0.579364 -0.242365
C40   C     C_R   0.005266 0.454013 0.420641 -0.242356
C41   C     C_R   0.556339 0.078850 0.925682 0.263040
C42   C     C_R   0.443666 0.921018 0.074314 0.263039
C43   C     C_R   0.943522 0.575902 0.574425 0.262981
C44   C     C_R   0.056470 0.423892 0.425582 0.262973
H1    H     H_    0.407640 0.011784 0.867137 0.091465
H2    H     H_    0.592359 0.988246 0.132866 0.091461
H3    H     H_    0.092264 0.509984 0.632960 0.091320
H4    H     H_    0.907737 0.490048 0.367037 0.091315
C45   C     C_R   0.649964 0.913579 0.396613 0.283576
C46   C     C_R   0.350036 0.086420 0.603387 0.283577
C47   C     C_R   0.850040 0.413620 0.103385 0.283591
C48   C     C_R   0.149960 0.586380 0.896615 0.283592
C49   C     C_R   0.613845 0.905173 0.433331 -0.200187
C50   C     C_R   0.386155 0.094826 0.566669 -0.200187
C51   C     C_R   0.886163 0.405204 0.066674 -0.200187
C52   C     C_R   0.113837 0.594796 0.933326 -0.200188
H5    H     H_    0.616940 0.796836 0.467040 0.145174
H6    H     H_    0.383060 0.203163 0.532960 0.145174
H7    H     H_    0.883067 0.296921 0.032956 0.145181
H8    H     H_    0.116933 0.703078 0.967044 0.145181
C53   C     C_R   0.574220 0.032633 0.426754 -0.018807
C54   C     C_R   0.425780 0.967367 0.573246 -0.018808
C55   C     C_R   0.925789 0.532605 0.073259 -0.018815
C56   C     C_R   0.074211 0.467395 0.926741 -0.018817
C57   C     C_R   0.572080 0.173556 0.383231 -0.137223
C58   C     C_R   0.427920 0.826444 0.616770 -0.137221
C59   C     C_R   0.927928 0.673471 0.116790 -0.137211
C60   C     C_R   0.072072 0.326529 0.883210 -0.137207
C61   C     C_R   0.608332 0.184940 0.346857 -0.248315
C62   C     C_R   0.391668 0.815060 0.653143 -0.248314
C63   C     C_R   0.891673 0.684860 0.153160 -0.248316
C64   C     C_R   0.108327 0.315140 0.846840 -0.248315
H9    H     H_    0.605237 0.294204 0.313475 0.131758
H10   H     H_    0.394763 0.705795 0.686525 0.131759
H11   H     H_    0.894767 0.794086 0.186546 0.131752
H12   H     H_    0.105233 0.205914 0.813454 0.131754
C65   C     C_R   0.647543 0.055138 0.352559 -0.075368
C66   C     C_R   0.352457 0.944862 0.647441 -0.075369
C67   C     C_R   0.852461 0.555118 0.147447 -0.075346
C68   C     C_R   0.147539 0.444881 0.852553 -0.075347
N1    N     N_R   0.496945 0.138806 0.459654 -0.288625
N2    N     N_R   0.503055 0.861194 0.540346 -0.288624
N3    N     N_R   0.003057 0.638748 0.040355 -0.288621
N4    N     N_R   0.996943 0.361252 0.959645 -0.288619
N5    N     N_R   0.462317 0.122750 0.493776 -0.291607
N6    N     N_R   0.537683 0.877249 0.506224 -0.291606
N7    N     N_R   0.037680 0.622708 0.006225 -0.291601
N8    N     N_R   0.962320 0.377292 0.993775 -0.291600
C69   C     C_R   0.464505 0.983590 0.534895 0.533212
C70   C     C_R   0.535495 0.016409 0.465105 0.533212
C71   C     C_R   0.035490 0.483607 0.965096 0.533222
C72   C     C_R   0.964510 0.516393 0.034904 0.533222
N9    N     N_2   0.575333 0.118473 0.872606 -0.531397
H13   H     H_    0.551659 0.198499 0.841655 0.259362
C73   C     C_3   0.592900 0.956589 0.845060 -0.552441
H14   H     H_    0.609661 0.000125 0.806246 0.204987
H15   H     H_    0.561250 0.860702 0.828632 0.197098
H16   H     H_    0.621954 0.882491 0.877799 0.206550
N10   N     N_2   0.424675 0.881298 0.127386 -0.531398
H17   H     H_    0.448346 0.801190 0.158315 0.259363
C74   C     C_3   0.407126 0.043134 0.154974 -0.552451
H18   H     H_    0.390362 0.999521 0.193778 0.204992
H19   H     H_    0.378077 0.117328 0.122255 0.206552
H20   H     H_    0.438785 0.138959 0.171426 0.197091
N11   N     N_2   0.924446 0.613730 0.627564 -0.531413
H21   H     H_    0.948032 0.693279 0.658741 0.259375
C75   C     C_3   0.906993 0.450791 0.654667 -0.552391
H22   H     H_    0.890158 0.492966 0.693562 0.204990
H23   H     H_    0.938717 0.354984 0.670885 0.197075
H24   H     H_    0.878024 0.377124 0.621710 0.206564
N12   N     N_2   0.075541 0.385927 0.372448 -0.531418
H25   H     H_    0.051963 0.306235 0.341307 0.259377
C76   C     C_3   0.092958 0.548808 0.345277 -0.552405
H26   H     H_    0.109802 0.506528 0.306400 0.205000
H27   H     H_    0.121911 0.622656 0.378205 0.206572
H28   H     H_    0.061213 0.644487 0.329019 0.197061
H29   H     H_    0.288925 0.858621 0.954748 0.120721
H30   H     H_    0.711076 0.141356 0.045250 0.120721
H31   H     H_    0.211224 0.361344 0.545140 0.120432
H32   H     H_    0.788776 0.638640 0.454862 0.120432
H33   H     H_    0.655127 0.149395 0.948399 0.159391
H34   H     H_    0.344875 0.850534 0.051597 0.159391
H35   H     H_    0.844669 0.645384 0.551766 0.159383
H36   H     H_    0.155329 0.354526 0.448238 0.159385
H37   H     H_    0.483187 0.056616 0.875924 0.125769
H38   H     H_    0.516819 0.943215 0.124071 0.125778
H39   H     H_    0.016662 0.553435 0.624211 0.125780
H40   H     H_    0.983328 0.446293 0.375798 0.125795
N13   N     N_2   0.690008 0.783867 0.406484 -0.530205
H41   H     H_    0.708179 0.780337 0.450885 0.238168
C77   C     C_3   0.676176 0.599720 0.383706 -0.471655
H42   H     H_    0.649575 0.535367 0.409224 0.176863
H43   H     H_    0.710066 0.511222 0.388921 0.184950
H44   H     H_    0.658719 0.605488 0.335141 0.209057
N14   N     N_2   0.309992 0.216133 0.593516 -0.530206
H45   H     H_    0.291822 0.219663 0.549115 0.238169
C78   C     C_3   0.323824 0.400280 0.616294 -0.471655
H46   H     H_    0.350426 0.464633 0.590776 0.176864
H47   H     H_    0.341281 0.394511 0.664859 0.209056
H48   H     H_    0.289934 0.488778 0.611079 0.184950
N15   N     N_2   0.809980 0.284040 0.093480 -0.530319
H49   H     H_    0.791833 0.280622 0.049068 0.238119
C79   C     C_3   0.823775 0.099813 0.116242 -0.471618
H50   H     H_    0.850389 0.035427 0.090743 0.176875
H51   H     H_    0.789871 0.011426 0.110981 0.184932
H52   H     H_    0.841206 0.105443 0.164816 0.209113
N16   N     N_2   0.190020 0.715960 0.906521 -0.530319
H53   H     H_    0.208167 0.719377 0.950932 0.238119
C80   C     C_3   0.176225 0.900186 0.883758 -0.471618
H54   H     H_    0.149611 0.964573 0.909257 0.176876
H55   H     H_    0.158795 0.894557 0.835185 0.209114
H56   H     H_    0.210129 0.988573 0.889019 0.184931
H57   H     H_    0.542223 0.275043 0.377000 0.147494
H58   H     H_    0.457777 0.724957 0.623000 0.147495
H59   H     H_    0.957786 0.774914 0.123027 0.147493
H60   H     H_    0.042215 0.225085 0.876973 0.147494

loop_
_geom_bond_atom_site_label_1
_geom_bond_atom_site_label_2
_ccdc_geom_bond_type
C48   C68   A    
N16   H53   S    
C58   H58   S    
O1    C5    A    
N15   H49   S    
C55   C59   A    
C77   H43   S    
C9    C21   A    
O3    C7    A    
C10   C18   A    
C60   C64   A    
C52   H8    S    
C75   H24   S    
C11   C23   A    
C51   C55   A    
C78   H46   S    
C25   C33   A    
N10   H17   S    
C79   H51   S    
C5    C12   S    
C80   H54   S    
O7    C3    A    
C6    C11   S    
C76   H27   S    
C35   C40   A    
C26   C30   A    
C46   N14   S    
C40   H40   S    
C36   C39   A    
C40   C44   A    
N4    C71   A    
O9    V1    S    
C53   C70   S    
C14   C18   A    
N9    C73   S    
O16   V4    S    
O4    C8    A    
C63   H11   S    
N10   C74   S    
O19   V1    S    
C62   H10   S    
C15   H35   S    
O1    V3    S    
O13   V1    S    
O2    V4    S    
O3    V1    S    
C17   H30   S    
C14   H34   S    
C22   H1    S    
C60   H60   S    
C1    O15   A    
C15   C31   A    
C56   C60   A    
C2    O16   A    
C16   C32   A    
C59   H59   S    
O2    C6    A    
C74   H20   S    
N14   C78   S    
C10   C22   A    
C57   H57   S    
N13   C77   S    
C11   C19   A    
N6    C70   A    
C16   C20   A    
N5    C69   A    
C46   C66   A    
C13   C29   A    
C50   C54   A    
C34   C37   A    
O11   C7    A    
O15   V3    S    
C35   C36   A    
O12   C8    A    
C77   H44   S    
C47   C67   A    
C19   H32   S    
C43   N11   S    
O10   V2    S    
C78   H47   S    
C63   C67   A    
C58   C62   A    
C79   H52   S    
O5    V1    S    
C73   H15   S    
C23   H4    S    
C76   H28   S    
C39   C43   A    
O7    V3    S    
C16   H36   S    
N2    C69   A    
C26   C34   A    
N1    C70   A    
N12   H25   S    
C38   C42   A    
C54   C58   A    
C61   C65   A    
C79   H50   S    
C53   C57   A    
O18   V4    S    
N15   C79   S    
C15   C19   A    
C33   C38   A    
C32   C44   A    
C59   C63   A    
C57   C61   A    
N4    N8    A    
O8    V4    S    
C48   N16   S    
O5    C1    A    
N16   C80   S    
C50   H6    S    
C31   C43   A    
N14   H45   S    
C14   C30   A    
C21   C25   A    
O8    C4    A    
C7    C10   S    
C18   H29   S    
O9    C5    A    
C47   N15   S    
C39   H39   S    
C55   C72   S    
C80   H55   S    
O14   V2    S    
O6    V2    S    
C64   C68   A    
C74   H18   S    
C12   C20   A    
C27   C35   A    
C24   H3    S    
C45   N13   S    
C75   H22   S    
C61   H9    S    
N8    C72   A    
C78   H48   S    
C29   C41   A    
N11   H21   S    
N2    N6    A    
C80   H56   S    
N12   C76   S    
N1    N5    A    
C2    C67   S    
C45   C49   A    
C38   H38   S    
C21   H2    S    
N3    N7    A    
O17   V3    S    
C44   N12   S    
C48   C52   A    
C75   H23   S    
C3    O13   A    
O6    C2    A    
C23   C27   A    
C73   H14   S    
O11   V3    S    
C30   C42   A    
O12   V4    S    
C76   H26   S    
C22   C26   A    
C8    C9    S    
C9    C17   A    
C20   H31   S    
O10   C6    A    
C56   C71   S    
O20   V2    S    
C4    C65   S    
C52   C56   A    
N9    H13   S    
C51   H7    S    
C33   C34   A    
C37   H37   S    
C1    C68   S    
C25   C29   A    
C64   H12   S    
C45   C65   A    
C73   H16   S    
C12   C24   A    
C3    C66   S    
C27   C31   A    
C13   C17   A    
N3    C72   A    
C49   C53   A    
C37   C41   A    
C24   C28   A    
C62   C66   A    
C28   C36   A    
C49   H5    S    
C46   C50   A    
C4    O14   A    
C77   H42   S    
C74   H19   S    
C41   N9    S    
C42   N10   S    
N7    C71   A    
C13   H33   S    
N13   H41   S    
C47   C51   A    
O4    V2    S    
C28   C32   A    
C54   C69   S    
N11   C75   S    
