data_mof_unit_23577.cif
_audit_creation_date              2012-12-11T15:58:42-0500
_audit_creation_method            fapswitch 2.2
_symmetry_space_group_name_H-M    P1
_symmetry_Int_Tables_number       1
_space_group_crystal_system       triclinic
_cell_length_a                    8.3259
_cell_length_b                    18.917683
_cell_length_c                    19.1251
_cell_angle_alpha                 99.140473
_cell_angle_beta                  95.411003
_cell_angle_gamma                 90.861553
_cell_volume                      2959.4471807

loop_
_atom_site_label
_atom_site_type_symbol
_atom_type_description
_atom_site_fract_x
_atom_site_fract_y
_atom_site_fract_z
_atom_type_partial_charge
Ba1   Ba    Ba6+2 0.152460 0.535140 0.468980 1.608443
Ba2   Ba    Ba6+2 0.657710 0.464850 0.530960 1.636188
C1    C     C_3   0.253597 0.715840 0.221113 -0.113171
C2    C     C_3   0.303365 0.690082 0.291598 0.370758
C3    C     C_3   0.549930 0.685377 0.667873 0.412054
C4    C     C_3   0.633935 0.749171 0.717296 -0.316406
C5    C     C_3   0.919458 0.268287 0.675448 0.420323
C6    C     C_3   0.912310 0.194308 0.696787 -0.357473
C7    C     C_3   0.390139 0.271351 0.708993 0.398707
C8    C     C_3   0.453981 0.260217 0.783991 0.116042
C9    C     C_R   0.993919 0.952336 0.543736 -0.016864
C10   C     C_R   0.088960 0.903279 0.576624 0.045927
C11   C     C_R   0.245506 0.924544 0.607946 0.135472
C12   C     C_3   0.867075 0.733750 0.327869 0.406432
C13   C     C_R   0.307077 0.992957 0.604812 -0.128126
C14   C     C_R   0.214775 0.042908 0.572186 -0.002316
C15   C     C_R   0.056585 0.022728 0.542144 -0.003576
C16   C     C_R   0.279171 0.112256 0.569494 0.106990
C17   C     C_R   0.180764 0.164790 0.541582 -0.032548
C18   C     C_R   0.023302 0.143079 0.508483 -0.067911
C19   C     C_R   0.962813 0.071913 0.508942 0.002249
C20   C     C_R   0.230331 0.238461 0.546138 -0.005753
C21   C     C_R   0.119353 0.287472 0.522702 -0.273773
C22   C     C_R   0.977860 0.265501 0.478240 0.082240
C23   C     C_3   0.926415 0.810410 0.324384 -0.062551
C24   C     C_R   0.929009 0.190939 0.471332 -0.036334
C25   C     C_R   0.836573 0.931003 0.512629 0.004353
C26   C     C_R   0.776240 0.859552 0.511349 -0.049057
C27   C     C_R   0.877552 0.808960 0.540364 -0.060762
C28   C     C_R   0.028433 0.833284 0.576055 -0.030082
C29   C     C_R   0.789732 0.161732 0.428245 0.176048
C30   C     C_R   0.715512 0.097247 0.440019 0.046640
C31   C     C_R   0.806088 0.050329 0.477557 -0.036126
C32   C     C_R   0.741909 0.980648 0.480853 -0.004587
C33   C     C_R   0.554350 0.077445 0.413539 0.140285
C34   C     C_3   0.753214 0.361224 0.303268 0.423417
C35   C     C_R   0.490027 0.010918 0.420509 -0.128036
C36   C     C_R   0.582860 0.960857 0.451898 -0.009546
C37   C     C_R   0.616062 0.838790 0.480653 -0.018390
C38   C     C_R   0.517403 0.891934 0.454659 0.133028
C39   C     C_R   0.563806 0.765429 0.476423 0.089741
C40   C     C_R   0.670564 0.716191 0.500883 -0.277009
C41   C     C_R   0.825413 0.735616 0.532544 0.040474
C42   C     C_R   0.605258 0.532038 0.302748 -0.094800
C43   C     C_R   0.458444 0.494984 0.277613 0.073463
C44   C     C_R   0.403559 0.488276 0.204779 -0.156102
C45   C     C_3   0.680716 0.322741 0.229674 -0.055133
C46   C     C_R   0.496882 0.516494 0.156998 -0.032572
C47   C     C_R   0.650125 0.547218 0.182509 -0.169855
C48   C     C_R   0.702107 0.556024 0.254949 0.082908
C49   C     C_R   0.430405 0.572396 0.044328 0.155442
C50   C     C_R   0.373193 0.563997 0.971341 0.147993
C51   C     C_R   0.336816 0.494546 0.931797 0.015874
C52   C     C_R   0.342970 0.435625 0.968055 -0.117574
C53   C     C_R   0.390310 0.444146 0.041034 -0.107557
C54   C     C_R   0.437871 0.511630 0.080039 0.026444
C55   C     C_R   0.147522 0.448354 0.823538 -0.161421
C56   C     C_3   0.016970 0.617679 0.687789 0.286231
C57   C     C_R   0.100964 0.440793 0.750221 -0.010258
C58   C     C_R   0.348151 0.502533 0.733365 0.082436
C59   C     C_R   0.400691 0.507472 0.806232 0.085640
C60   C     C_R   0.296612 0.482236 0.852720 -0.034321
C61   C     C_R   0.202773 0.466769 0.705673 -0.309330
C62   C     C_3   0.012898 0.631422 0.768797 -0.126610
C63   C     C_3   0.328445 0.303933 0.349478 0.414162
C64   C     C_3   0.210141 0.242269 0.316022 -0.073441
H1    H     H_    0.201883 0.660999 0.307823 0.130520
H2    H     H_    0.587175 0.357036 0.208136 0.056555
H3    H     H_    0.774947 0.315591 0.191663 0.057759
H4    H     H_    0.886027 0.637080 0.781756 0.110210
H5    H     H_    0.092877 0.264119 0.298986 0.126172
H6    H     H_    0.362509 0.732666 0.197967 0.057184
H7    H     H_    0.645873 0.653103 0.642837 0.049484
H8    H     H_    0.712768 0.730424 0.760230 0.099125
H9    H     H_    0.709115 0.780010 0.686921 0.076346
H10   H     H_    0.543385 0.785090 0.742036 0.112424
H11   H     H_    0.178137 0.763515 0.230472 0.133367
H12   H     H_    0.293310 0.230003 0.689316 -0.042004
H13   H     H_    0.339346 0.325667 0.711253 -0.035590
H14   H     H_    0.916382 0.722937 0.381115 0.052815
H15   H     H_    0.517154 0.208492 0.779745 0.097552
H16   H     H_    0.151629 0.344007 0.533729 0.076688
H17   H     H_    0.365226 0.999595 0.400080 0.070281
H18   H     H_    0.630591 0.661109 0.496840 0.052584
H19   H     H_    0.395314 0.397098 0.066829 0.073241
H20   H     H_    0.065527 0.430024 0.858073 0.090067
H21   H     H_    0.884257 0.847857 0.369324 0.079796
O1    O     O_2   0.118870 0.674530 0.547560 -0.473941
O2    O     O_3   0.330755 0.353252 0.301565 -0.637252
O3    O     O_3   0.924468 0.684750 0.272575 -0.613886
O4    O     O_2   0.691430 0.325420 0.452420 -0.483467
O5    O     O_3   0.939830 0.414660 0.457830 -0.512081
O6    O     O_3   0.456020 0.368240 0.581510 -0.468358
O7    O     O_3   0.848329 0.314574 0.338516 -0.631710
O8    O     O_3   0.374170 0.535780 0.585810 -0.480195
O9    O     O_3   0.871300 0.403980 0.619270 -0.488423
O10   O     O_2   0.766401 0.449370 0.745527 -0.438609
O11   O     O_3   0.858426 0.318016 0.728196 -0.560454
O12   O     O_3   0.870460 0.585330 0.542110 -0.489580
O13   O     O_3   0.436130 0.464210 0.414140 -0.512349
O14   O     O_2   0.629420 0.533310 0.672080 -0.455368
O15   O     O_3   0.456043 0.647297 0.707897 -0.661939
O16   O     O_2   0.564339 0.243852 0.530222 -0.463960
O17   O     O_3   0.515835 0.263114 0.664559 -0.567184
O18   O     O_3   0.354280 0.631750 0.418430 -0.519851
O19   O     O_2   0.219978 0.754642 0.463128 -0.469125
O20   O     O_3   0.972106 0.679675 0.660658 -0.655310
O21   O     O_3   0.349236 0.749714 0.343299 -0.625709
O22   O     O_2   0.180880 0.466650 0.327890 -0.465301
O23   O     O_3   0.939000 0.596010 0.380670 -0.465134
O24   O     O_2   0.035663 0.553609 0.252301 -0.483663
P1    P     P_3+3 0.947550 0.663200 0.567530 0.966270
P2    P     P_3+3 0.354660 0.445020 0.336980 0.951879
P3    P     P_3+3 0.901386 0.596489 0.289128 0.958960
P4    P     P_3+3 0.862750 0.336790 0.432410 0.968720
P5    P     P_3+3 0.900011 0.404253 0.711291 0.993375
P6    P     P_3+3 0.370644 0.724963 0.428236 0.955543
P7    P     P_3+3 0.449481 0.554949 0.675730 0.953213
P8    P     P_3+3 0.438406 0.276540 0.579564 0.988438
N1    N     N_3   0.608419 0.253033 0.233351 -0.473909
H22   H     H_    0.534763 0.237198 0.185895 0.174734
H23   H     H_    0.700914 0.216270 0.232157 0.194311
H24   H     H_    0.139887 0.604208 0.674512 0.004675
H25   H     H_    0.932774 0.571700 0.666091 0.051050
N2    N     N_3   0.107846 0.695519 0.802585 -0.493461
H26   H     H_    0.224059 0.692231 0.786134 0.205118
H27   H     H_    0.054962 0.740641 0.786044 0.211481
H28   H     H_    0.060493 0.584828 0.791493 0.056640
N3    N     N_3   0.280173 0.333461 0.418757 -0.552585
H29   H     H_    0.190934 0.370765 0.414318 0.189349
H30   H     H_    0.380090 0.356166 0.451943 0.220926
H31   H     H_    0.449908 0.282556 0.356564 0.089741
N4    N     N_3   0.160969 0.659906 0.171622 -0.463557
H32   H     H_    0.132182 0.679245 0.123881 0.181835
H33   H     H_    0.233392 0.615731 0.160755 0.184003
H34   H     H_    0.188158 0.207445 0.355929 0.060883
N5    N     N_3   0.272222 0.199703 0.254462 -0.497669
H35   H     H_    0.256826 0.228365 0.211946 0.196229
H36   H     H_    0.198560 0.153464 0.239769 0.166224
H37   H     H_    0.404363 0.652948 0.284432 -0.045212
N6    N     N_3   0.445890 0.711931 0.612984 -0.523888
H38   H     H_    0.409234 0.668307 0.573853 0.201435
H39   H     H_    0.343231 0.732559 0.635363 0.213187
N7    N     N_3   0.870018 0.834477 0.257490 -0.503051
H40   H     H_    0.894445 0.796024 0.214501 0.214701
H41   H     H_    0.745026 0.840250 0.255181 0.194633
H42   H     H_    0.845086 0.266650 0.623781 0.078612
H43   H     H_    0.046903 0.281811 0.669188 -0.129902
H44   H     H_    0.785373 0.178453 0.701646 0.132782
H45   H     H_    0.961611 0.154398 0.656027 0.066540
H46   H     H_    0.985088 0.194592 0.748578 0.124647
N8    N     N_3   0.319224 0.255833 0.827327 -0.542239
H47   H     H_    0.365273 0.250378 0.878922 0.173196
H48   H     H_    0.256306 0.303461 0.830525 0.165467
N9    N     N_3   0.569076 0.318141 0.816632 -0.430225
H49   H     H_    0.619048 0.306564 0.865625 0.167664
H50   H     H_    0.507770 0.365879 0.826920 0.182606
N10   N     N_3   0.345261 0.876131 0.641650 -0.517910
H51   H     H_    0.377833 0.899825 0.694389 0.166579
H52   H     H_    0.450710 0.869434 0.615947 0.180308
H53   H     H_    0.429177 0.005735 0.628506 0.070233
N11   N     N_3   0.445587 0.128199 0.594099 -0.467596
H54   H     H_    0.517585 0.091868 0.565238 0.176028
H55   H     H_    0.464542 0.123978 0.648069 0.162887
H56   H     H_    0.101389 0.797565 0.603167 0.122226
N12   N     N_3   0.752308 0.186051 0.361921 -0.477082
H57   H     H_    0.745785 0.142070 0.320895 0.159756
H58   H     H_    0.642012 0.210455 0.361953 0.233602
N13   N     N_3   0.449114 0.126569 0.384381 -0.507891
H59   H     H_    0.353309 0.134953 0.416008 0.175183
H60   H     H_    0.402449 0.102308 0.333425 0.183984
N14   N     N_3   0.349630 0.877102 0.432135 -0.452582
H61   H     H_    0.280565 0.913854 0.461991 0.165525
H62   H     H_    0.327582 0.881953 0.378411 0.190982
N15   N     N_3   0.691110 0.731115 0.322715 -0.503994
H63   H     H_    0.646283 0.721907 0.268997 0.175471
H64   H     H_    0.655107 0.687363 0.345111 0.117810
N16   N     N_3   0.559537 0.537332 0.831125 -0.459527
H65   H     H_    0.599159 0.525362 0.881199 0.177940
H66   H     H_    0.557113 0.592863 0.833900 0.163084
N17   N     N_3   0.346950 0.627724 0.940003 -0.497104
H67   H     H_    0.459139 0.650831 0.934951 0.182638
H68   H     H_    0.282402 0.616950 0.889948 0.190971
N18   N     N_3   0.481147 0.643418 0.079702 -0.500071
H69   H     H_    0.385789 0.677712 0.072911 0.190141
H70   H     H_    0.504148 0.646088 0.134400 0.159140
H71   H     H_    0.289587 0.460442 0.185268 0.098168
H72   H     H_    0.313358 0.382314 0.939531 0.073654
H73   H     H_    0.727702 0.565574 0.146216 0.104568
H74   H     H_    0.163394 0.463601 0.649649 0.060230
N19   N     N_3   0.664750 0.542537 0.376351 -0.477657
H75   H     H_    0.695123 0.494468 0.393209 0.196660
H76   H     H_    0.584323 0.569987 0.407644 0.205720
H77   H     H_    0.060092 0.813483 0.331523 0.116854
H78   H     H_    0.652992 0.380876 0.334219 0.010839
N20   N     N_3   0.853675 0.420759 0.291135 -0.537779
H79   H     H_    0.903575 0.447897 0.340059 0.223698
H80   H     H_    0.948597 0.400243 0.262732 0.192185

loop_
_geom_bond_atom_site_label_1
_geom_bond_atom_site_label_2
_ccdc_geom_bond_type
N10   H52   S    
C53   C54   A    
C5    O11   S    
N9    H50   S    
C39   C40   A    
C11   N10   S    
C17   C18   A    
Ba1   O12   S    
N19   H76   S    
N16   H65   S    
C4    H9    S    
N15   H64   S    
C51   C52   A    
N18   H69   S    
C63   O2    S    
N5    H36   S    
C56   H24   S    
C27   C28   A    
C58   C61   A    
O14   P7    D    
C26   C27   A    
C21   H16   S    
C35   C36   A    
C22   C24   A    
C16   C17   A    
N6    H39   S    
C42   N19   S    
C7    H13   S    
C3    C4    S    
N18   H70   S    
N20   H79   S    
C55   C57   A    
C47   H73   S    
C13   C14   A    
C23   H21   S    
C55   H20   S    
C34   C45   S    
C56   O20   S    
O20   P1    S    
C47   C48   A    
C43   P2    S    
C12   O3    S    
C8    N8    S    
C52   C53   A    
O11   P5    S    
C45   H3    S    
C64   H5    S    
N1    H23   S    
C14   C15   A    
C62   H28   S    
C21   C22   A    
C58   P7    S    
C12   H14   S    
C44   H71   S    
C7    C8    S    
O23   P3    S    
C5    H42   S    
O15   P7    S    
O22   P2    D    
O17   P8    S    
Ba1   O22   S    
Ba1   O1    S    
N2    H26   S    
Ba2   O13   S    
C24   C29   A    
O8    P7    S    
C52   H72   S    
C27   C41   A    
N12   H58   S    
N13   H60   S    
O18   P6    S    
Ba2   O4    S    
Ba1   P2    S    
Ba1   O13   S    
N14   H62   S    
C4    H8    S    
N11   H55   S    
N17   H68   S    
C25   C32   A    
C56   C62   S    
C20   P8    S    
O2    P2    S    
N9    H49   S    
C42   C43   A    
C49   C50   A    
C30   C33   A    
C55   C60   A    
C17   C20   A    
C40   H18   S    
C50   N17   S    
N20   H80   S    
C49   N18   S    
C37   C38   A    
C57   P5    S    
C26   C37   A    
N17   H67   S    
C10   C28   A    
C15   C19   A    
N19   H75   S    
C58   C59   A    
C48   P3    S    
C53   H19   S    
C6    H45   S    
C34   N20   S    
C12   N15   S    
C34   O7    S    
Ba1   O23   S    
C2    H37   S    
N4    H32   S    
C2    O21   S    
Ba2   P4    S    
C3    N6    S    
C29   C30   A    
C29   N12   S    
C9    C25   A    
Ba1   O8    S    
C6    H46   S    
C31   C32   A    
N16   H66   S    
N13   H59   S    
C50   C51   A    
C10   C11   A    
O10   P5    D    
Ba2   O5    S    
C22   P4    S    
C64   H34   S    
N7    H41   S    
C46   C47   A    
N8    H48   S    
Ba2   O12   S    
C62   N2    S    
Ba1   O5    S    
C62   H4    S    
C11   C13   A    
O19   P6    D    
N12   H57   S    
C33   N13   S    
C23   N7    S    
C40   C41   A    
C1    C2    S    
C1    H11   S    
C45   H2    S    
C38   N14   S    
C63   H31   S    
N1    H22   S    
N4    H33   S    
C5    H43   S    
C42   C48   A    
C46   C54   S    
C3    O15   S    
Ba2   O8    S    
C33   C35   A    
C32   C36   A    
C56   H25   S    
O21   P6    S    
C13   H53   S    
Ba2   O6    S    
O16   P8    D    
O13   P2    S    
C49   C54   A    
C28   H56   S    
N7    H40   S    
C9    C15   A    
C8    N9    S    
C2    H1    S    
C63   N3    S    
O7    P4    S    
C4    H10   S    
N11   H54   S    
C61   H74   S    
N5    H35   S    
C8    H15   S    
C57   C61   A    
Ba2   O14   S    
C39   P6    S    
C30   C31   A    
Ba2   O9    S    
C1    H6    S    
N3    H29   S    
C34   H78   S    
C35   H17   S    
Ba1   P1    S    
N15   H63   S    
N6    H38   S    
C36   C38   A    
C16   N11   S    
N10   H51   S    
C64   N5    S    
C18   C24   A    
C7    O17   S    
O12   P1    S    
Ba1   Ba2   S    
O4    P4    D    
C6    H44   S    
O24   P3    D    
C7    H12   S    
O3    P3    S    
C12   C23   S    
C3    H7    S    
C59   C60   A    
O5    P4    S    
C5    C6    S    
N14   H61   S    
O1    P1    D    
C44   C46   A    
C43   C44   A    
C59   N16   S    
C19   C31   A    
C18   C19   A    
C37   C39   A    
C51   C60   S    
C14   C16   A    
C63   C64   S    
C41   P1    S    
C25   C26   A    
N2    H27   S    
C45   N1    S    
C20   C21   A    
O9    P5    S    
N8    H47   S    
O6    P8    S    
C1    N4    S    
C23   H77   S    
C9    C10   A    
Ba1   O18   S    
N3    H30   S    
