data_mof_unit_56189.cif
_audit_creation_date              2013-03-05T15:45:41-0500
_audit_creation_method            fapswitch 2.2
_symmetry_space_group_name_H-M    P1
_symmetry_Int_Tables_number       1
_space_group_crystal_system       triclinic
_cell_length_a                    6.937718
_cell_length_b                    16.661876
_cell_length_c                    16.94603
_cell_angle_alpha                 101.346692
_cell_angle_beta                  90.200841
_cell_angle_gamma                 90.424232
_cell_volume                      1920.51876885

loop_
_atom_site_label
_atom_site_type_symbol
_atom_site_description
_atom_site_fract_x
_atom_site_fract_y
_atom_site_fract_z
_atom_type_partial_charge
O1    O     O_R   0.506340 0.439070 0.579550 -0.590850
O2    O     O_R   0.170010 0.404890 0.412100 -0.594144
O3    O     O_R   0.005010 0.560930 0.420450 -0.590380
C1    C     C_R   0.339459 0.381628 0.383254 0.943842
O4    O     O_R   0.176280 0.429360 0.578400 -0.602374
O5    O     O_R   0.011320 0.585570 0.587940 -0.592550
C2    C     C_R   0.343456 0.413763 0.605374 0.933164
O6    O     O_R   0.500030 0.414430 0.412060 -0.593562
O7    O     O_3   0.340950 0.551220 0.502940 -0.275193
V1    V     V_3+5 0.064020 0.490500 0.499460 1.149909
O8    O     O_R   0.681910 0.595110 0.587900 -0.597189
C3    C     C_R   0.851556 0.618418 0.616692 0.905625
O9    O     O_R   0.675640 0.570640 0.421600 -0.601334
C4    C     C_R   0.842690 0.586124 0.394533 0.948401
V2    V     V_3+5 0.564670 0.509500 0.500540 1.152073
O10   O     O_3   0.837610 0.448780 0.497060 -0.273827
C5    C     C_R   0.926870 0.861138 0.167205 -0.132902
C6    C     C_R   0.838795 0.638602 0.332705 -0.140258
C7    C     C_R   0.649105 0.694645 0.234253 -0.222722
C8    C     C_R   0.669793 0.639690 0.286211 -0.107307
C9    C     C_R   0.989734 0.693004 0.324421 -0.293250
C10   C     C_R   0.968923 0.749227 0.272497 0.223384
C11   C     C_R   0.796763 0.750428 0.227325 0.210712
C12   C     C_R   0.775932 0.806702 0.175438 -0.288226
C13   C     C_R   0.095935 0.859956 0.213641 -0.151105
C14   C     C_R   0.116624 0.804972 0.265555 -0.234063
H1    H     H_    0.645835 0.806163 0.139670 0.140100
H2    H     H_    0.214911 0.901249 0.209004 0.132479
H3    H     H_    0.516445 0.694013 0.200126 0.137411
H4    H     H_    0.249316 0.805564 0.299655 0.126672
H5    H     H_    0.550886 0.598360 0.290848 0.145442
H6    H     H_    0.119824 0.693573 0.360201 0.137514
C15   C     C_3   0.808754 0.817931 0.731222 -0.139247
C16   C     C_3   0.978594 0.768541 0.687176 -0.136970
H7    H     H_    0.057007 0.783467 0.634847 0.103600
H8    H     H_    0.747771 0.874514 0.716182 0.099475
C17   C     C_3   0.865743 0.688683 0.687481 -0.085552
C18   C     C_3   0.695756 0.737257 0.730720 -0.094926
C19   C     C_3   0.787494 0.731386 0.812884 -0.129689
C20   C     C_3   0.957335 0.681996 0.768838 -0.130182
C21   C     C_3   0.070332 0.762670 0.769339 -0.094276
C22   C     C_3   0.900346 0.811244 0.812579 -0.084184
H9    H     H_    0.541402 0.726454 0.714311 0.108879
H10   H     H_    0.709082 0.716461 0.865213 0.111345
H11   H     H_    0.018317 0.625413 0.783877 0.108588
H12   H     H_    0.224687 0.773473 0.785749 0.108884
C23   C     C_3   0.555803 0.282890 0.275600 -0.181232
C24   C     C_3   0.492751 0.192511 0.271823 -0.197337
H13   H     H_    0.583719 0.144670 0.290056 0.122500
H14   H     H_    0.699197 0.309479 0.295684 0.144019
C25   C     C_3   0.408915 0.189449 0.186805 -0.224288
C26   C     C_3   0.468476 0.278698 0.191503 0.407206
C27   C     C_3   0.272912 0.309317 0.227486 -0.220792
C28   C     C_3   0.211053 0.218793 0.223846 -0.114995
C29   C     C_3   0.295327 0.222206 0.309413 -0.105012
C30   C     C_3   0.357426 0.311710 0.312204 -0.128501
H15   H     H_    0.183261 0.357296 0.208765 0.155509
H16   H     H_    0.067930 0.192461 0.202988 0.143888
H17   H     H_    0.221788 0.198984 0.358607 0.103969
C31   C     C_R   0.427614 0.139442 0.833297 -0.131711
C32   C     C_R   0.339023 0.360976 0.666973 -0.134158
C33   C     C_R   0.149192 0.303422 0.764454 -0.215780
C34   C     C_R   0.169711 0.358429 0.712486 -0.151514
C35   C     C_R   0.490305 0.307914 0.676225 -0.290241
C36   C     C_R   0.469612 0.251612 0.728136 0.223306
C37   C     C_R   0.297233 0.248987 0.772337 0.210078
C38   C     C_R   0.276464 0.192616 0.824176 -0.256258
C39   C     C_R   0.597031 0.142084 0.787876 -0.138764
C40   C     C_R   0.617662 0.197185 0.736018 -0.231279
H18   H     H_    0.146033 0.192018 0.859119 0.149217
H19   H     H_    0.716216 0.101793 0.793160 0.128194
H20   H     H_    0.016391 0.302973 0.797866 0.142894
H21   H     H_    0.750495 0.197662 0.702632 0.125037
H22   H     H_    0.050487 0.398684 0.707149 0.136685
H23   H     H_    0.620719 0.308485 0.641267 0.138012
O11   O     O_R   0.266070 0.085680 0.087850 -0.603034
O12   O     O_R   0.590090 0.070660 0.921580 -0.584805
O13   O     O_R   0.754780 0.914400 0.912080 -0.597063
C41   C     C_R   0.422971 0.086428 0.894684 0.968703
O14   O     O_R   0.596110 0.095130 0.087880 -0.572895
O15   O     O_R   0.760850 0.939050 0.079570 -0.599114
C42   C     C_R   0.426621 0.118766 0.116380 0.994806
O16   O     O_R   0.260010 0.061030 0.920360 -0.597675
O17   O     O_3   0.425070 0.948840 0.997010 -0.284038
V3    V     V_3+5 0.702100 0.009490 0.000550 1.180713
O18   O     O_R   0.090200 0.929250 0.078500 -0.601045
C43   C     C_R   0.923072 0.913730 0.105464 0.928761
O19   O     O_R   0.084180 0.904770 0.912200 -0.598988
C44   C     C_R   0.914538 0.881512 0.883365 0.902058
V4    V     V_3+5 0.201420 0.990350 0.999580 1.156774
O20   O     O_3   0.928580 0.051150 0.002990 -0.258135
N1    N     N_R   0.564375 0.312117 0.128580 0.225881
O21   O     O_R   0.611952 0.389244 0.141543 -0.407145
O22   O     O_R   0.600172 0.265888 0.059061 -0.413648

loop_
_geom_bond_atom_site_label_1
_geom_bond_atom_site_label_2
_geom_bond_distance
_ccdc_geom_bond_type
C24   C29   1.555219 S    
C29   C30   1.540920 S    
C31   C41   1.491588 S    
C29   H17   1.109935 S    
C16   C17   1.539730 S    
C21   C22   1.539340 S    
C4    C6    1.491201 S    
O2    C1    1.306674 A    
C7    C8    1.397335 A    
C12   H1    1.084448 S    
C1    O6    1.288477 A    
V3    O20   1.710107 S    
C27   C28   1.554545 S    
C13   H2    1.083598 S    
C33   C34   1.397267 A    
C15   C22   1.540231 S    
C17   C18   1.539341 S    
C17   C20   1.540232 S    
O5    C3    1.293572 A    
C18   C19   1.549703 S    
V2    O10   2.149036 S    
C6    C9    1.405330 A    
C15   H8    1.110171 S    
C16   H7    1.110089 S    
C3    C17   1.504723 S    
C32   C34   1.412412 A    
C2    C32   1.491733 S    
O8    V2    2.007812 S    
C24   C25   1.543171 S    
C31   C38   1.405333 A    
C39   C40   1.397155 A    
C21   H12   1.109886 S    
C40   H21   1.083849 S    
O1    V2    1.987094 S    
C23   H14   1.110653 S    
C25   C28   1.553261 S    
O7    V1    2.159913 S    
C37   C38   1.413577 A    
O12   V3    1.993651 S    
C5    C43   1.491365 S    
O9    C4    1.290720 A    
C1    C30   1.507863 S    
C16   C21   1.549703 S    
O17   V4    1.700675 S    
C19   C22   1.539733 S    
O12   C41   1.291878 A    
O13   C44   1.293593 A    
C20   H11   1.110174 S    
C9    H6    1.084460 S    
C5    C12   1.405500 A    
C33   C37   1.398525 A    
C25   C26   1.527252 S    
O17   V3    2.159928 S    
O14   C42   1.306526 A    
O18   V4    1.987894 S    
O11   C42   1.288638 A    
C19   C20   1.549702 S    
O4    C2    1.291954 A    
C27   H15   1.110107 S    
O18   C43   1.290674 A    
C13   C14   1.397153 A    
C32   C35   1.405312 A    
C7    C11   1.398851 A    
O14   V3    1.989761 S    
C23   C24   1.554110 S    
C11   C12   1.413744 A    
N1    O22   1.300255 A    
C15   C16   1.549695 S    
C33   H20   1.083856 S    
C25   C42   1.508791 S    
O15   C43   1.309033 A    
O3    C4    1.308949 A    
O13   V3    1.992291 S    
C24   H13   1.110020 S    
O19   V4    2.007736 S    
C14   H4    1.084146 S    
O6    V2    2.002163 S    
O9    V2    1.987916 S    
C26   N1    1.456984 S    
O2    V1    1.989782 S    
C26   C27   1.538361 S    
C28   H16   1.110598 S    
C27   C30   1.541956 S    
O16   V4    1.993278 S    
C28   C29   1.552003 S    
C20   C21   1.549610 S    
O1    C2    1.309704 A    
O5    V1    1.992201 S    
O8    C3    1.299521 A    
C19   H10   1.110090 S    
C34   H22   1.083402 S    
C15   C18   1.549612 S    
C22   C44   1.504719 S    
C5    C13   1.412563 A    
C35   C36   1.413537 A    
C38   H18   1.084207 S    
O7    V2    1.702702 S    
O4    V1    1.993614 S    
O3    V1    1.989697 S    
V1    O10   1.710099 S    
C41   O16   1.309734 A    
V4    O20   2.149126 S    
C39   H19   1.083398 S    
C36   C40   1.398477 A    
N1    O21   1.300291 A    
C35   H23   1.084199 S    
C6    C8    1.412551 A    
C18   H9    1.109886 S    
O19   C44   1.299543 A    
C31   C39   1.412374 A    
C36   C37   1.418305 A    
C10   C14   1.398686 A    
C23   C26   1.535268 S    
C10   C11   1.418768 A    
C9    C10   1.413545 A    
O15   V3    1.989576 S    
O11   V4    2.002860 S    
C23   C30   1.551788 S    
C8    H5    1.083623 S    
C7    H3    1.084138 S    
