data_mof_unit_38093.cif
_audit_creation_date              2012-10-26T19:04:22-0400
_audit_creation_method            fapswitch 2.2
_symmetry_space_group_name_H-M    P1
_symmetry_Int_Tables_number       1
_space_group_crystal_system       triclinic
_cell_length_a                    14.95528
_cell_length_b                    15.774512
_cell_length_c                    9.58293
_cell_angle_alpha                 90.023038
_cell_angle_beta                  89.673055
_cell_angle_gamma                 89.933985
_cell_volume                      2260.6920231

loop_
_atom_site_label
_atom_site_type_symbol
_atom_type_description
_atom_site_fract_x
_atom_site_fract_y
_atom_site_fract_z
_atom_type_partial_charge
C1    C     C_R   0.383886 0.878409 0.501648 0.546148
C2    C     C_R   0.717547 0.219230 0.379142 -0.128540
C3    C     C_R   0.202784 0.266546 0.384118 -0.158651
C4    C     C_R   0.217546 0.719230 0.379142 -0.128542
C5    C     C_R   0.676511 0.805210 0.509003 0.001614
C6    C     C_R   0.673548 0.196672 0.502764 0.001168
C7    C     C_R   0.176515 0.305213 0.509004 0.001618
C8    C     C_R   0.173546 0.696673 0.502762 0.001167
C9    C     C_R   0.664923 0.036627 0.134928 0.048207
C10   C     C_R   0.164923 0.536626 0.134928 0.048208
C11   C     C_R   0.729951 0.078235 0.054732 -0.168690
C12   C     C_R   0.385136 0.122324 0.500742 0.537582
C13   C     C_R   0.229951 0.578235 0.054733 -0.168689
C14   C     C_R   0.731926 0.064292 0.912919 -0.183437
C15   C     C_R   0.231925 0.564294 0.912920 -0.183435
C16   C     C_R   0.660867 0.023445 0.850803 -0.085399
C17   C     C_R   0.160867 0.523446 0.850803 -0.085402
C18   C     C_R   0.579481 0.012187 0.923159 0.124067
C19   C     C_R   0.079481 0.512188 0.923159 0.124064
C20   C     C_R   0.580447 0.014590 0.072613 0.104014
C21   C     C_R   0.080447 0.514590 0.072613 0.104014
C22   C     C_R   0.424198 0.987602 0.074682 -0.013871
C23   C     C_R   0.883887 0.378408 0.501648 0.546150
C24   C     C_R   0.924198 0.487602 0.074682 -0.013872
C25   C     C_R   0.612999 0.123670 0.500372 0.572655
C26   C     C_R   0.614121 0.876959 0.501589 0.565529
C27   C     C_R   0.112998 0.623671 0.500371 0.572655
C28   C     C_R   0.114123 0.376961 0.501589 0.565530
C29   C     C_R   0.424118 0.988513 0.926792 -0.019155
C30   C     C_R   0.924118 0.488512 0.926792 -0.019156
C31   C     C_R   0.354066 0.233391 0.749692 -0.089011
C32   C     C_R   0.312721 0.799703 0.770381 -0.103736
C33   C     C_R   0.854046 0.733378 0.749709 -0.089012
C34   C     C_R   0.885136 0.622324 0.500743 0.537582
C35   C     C_R   0.812729 0.299697 0.770381 -0.103733
C36   C     C_R   0.322329 0.261294 0.878609 -0.123824
C37   C     C_R   0.260286 0.790411 0.890074 -0.138238
C38   C     C_R   0.822298 0.761271 0.878625 -0.123829
C39   C     C_R   0.760296 0.290405 0.890076 -0.138238
C40   C     C_R   0.735148 0.790485 0.890707 -0.129784
C41   C     C_R   0.672777 0.262378 0.878800 -0.112464
C42   C     C_R   0.235181 0.290510 0.890702 -0.129784
C43   C     C_R   0.172768 0.762382 0.878795 -0.112462
C44   C     C_R   0.682948 0.799454 0.771691 -0.101210
C45   C     C_R   0.272342 0.208907 0.382288 -0.153804
C46   C     C_R   0.641228 0.234879 0.750143 -0.087893
C47   C     C_R   0.182971 0.299473 0.771694 -0.101218
C48   C     C_R   0.141220 0.734883 0.750138 -0.087891
C49   C     C_R   0.718095 0.780810 0.636854 0.031946
C50   C     C_R   0.696261 0.237611 0.629465 0.020690
C51   C     C_R   0.218108 0.280821 0.636853 0.031949
C52   C     C_R   0.196256 0.737614 0.629462 0.020691
C53   C     C_R   0.299017 0.235207 0.629765 0.031536
C54   C     C_R   0.277247 0.782969 0.635858 0.031570
C55   C     C_R   0.799006 0.735198 0.629772 0.031536
C56   C     C_R   0.286660 0.777216 0.381028 -0.158080
C57   C     C_R   0.777253 0.282965 0.635858 0.031570
C58   C     C_R   0.321055 0.192454 0.503710 -0.006515
C59   C     C_R   0.317965 0.809533 0.507764 -0.005932
C60   C     C_R   0.821053 0.692452 0.503713 -0.006516
C61   C     C_R   0.817968 0.309531 0.507763 -0.005932
C62   C     C_2   0.710439 0.981901 0.235500 0.295088
C63   C     C_2   0.210439 0.481901 0.235500 0.295085
C64   C     C_R   0.772346 0.708911 0.382286 -0.153803
C65   C     C_R   0.786662 0.277215 0.381028 -0.158079
C66   C     C_R   0.702786 0.766548 0.384115 -0.158646
Cu1   Cu    Cu3+1 0.499990 1.000000 0.640660 0.908835
Cu2   Cu    Cu3+1 0.999990 0.500000 0.640660 0.908834
Cu3   Cu    Cu3+1 0.500010 0.000000 0.359340 0.949909
Cu4   Cu    Cu3+1 0.000010 0.500000 0.359340 0.949909
H1    H     H_    0.287800 0.177032 0.284912 0.136775
H2    H     H_    0.861761 0.479643 0.872118 0.126287
H3    H     H_    0.422358 0.212095 0.745437 0.129478
H4    H     H_    0.381611 0.816494 0.787275 0.143367
H5    H     H_    0.922340 0.712085 0.745463 0.129484
H6    H     H_    0.881620 0.316487 0.787271 0.143368
H7    H     H_    0.364481 0.257601 0.969900 0.112346
H8    H     H_    0.287437 0.805737 0.991499 0.098600
H9    H     H_    0.864443 0.757574 0.969923 0.112344
H10   H     H_    0.787449 0.305730 0.991500 0.098600
H11   H     H_    0.708159 0.807214 0.992156 0.096320
H12   H     H_    0.316565 0.795731 0.282422 0.127267
H13   H     H_    0.630670 0.258023 0.970796 0.114896
H14   H     H_    0.208199 0.307246 0.992153 0.096319
H15   H     H_    0.130659 0.758028 0.970789 0.114897
H16   H     H_    0.614208 0.817248 0.789474 0.144719
H17   H     H_    0.573223 0.212858 0.746462 0.128795
H18   H     H_    0.114233 0.317268 0.789489 0.144722
H19   H     H_    0.073215 0.712862 0.746452 0.128794
H20   H     H_    0.668528 0.779823 0.287325 0.114914
H21   H     H_    0.698556 0.192130 0.280073 0.147360
H22   H     H_    0.168521 0.279818 0.287331 0.114919
H23   H     H_    0.787810 0.677042 0.284907 0.136773
H24   H     H_    0.198557 0.692130 0.280074 0.147361
H25   H     H_    0.361985 0.977717 0.130407 0.115693
H26   H     H_    0.861985 0.477716 0.130407 0.115694
H27   H     H_    0.790657 0.102012 0.102268 0.148999
H28   H     H_    0.290657 0.602012 0.102269 0.148999
H29   H     H_    0.710023 0.914142 0.218319 0.090605
H30   H     H_    0.210022 0.414141 0.218319 0.090604
H31   H     H_    0.816565 0.295731 0.282420 0.127266
H32   H     H_    0.790858 0.080520 0.852444 0.143225
H33   H     H_    0.290857 0.580523 0.852444 0.143225
H34   H     H_    0.672135 0.002991 0.746227 0.203625
H35   H     H_    0.172135 0.502992 0.746228 0.203623
H36   H     H_    0.361761 0.979644 0.872118 0.126285
N1    N     N_R   0.501200 1.000000 0.147910 -0.249942
N2    N     N_R   0.001200 0.500000 0.147910 -0.249942
N3    N     N_R   0.501270 1.000000 0.852040 -0.253663
N4    N     N_R   0.001270 0.500000 0.852040 -0.253664
O1    O     O_R   0.409820 0.909830 0.618810 -0.518972
O2    O     O_R   0.590170 0.909830 0.618760 -0.538180
O3    O     O_R   0.090170 0.590170 0.618760 -0.533672
O4    O     O_R   0.090170 0.409830 0.618760 -0.538184
O5    O     O_R   0.590190 0.090180 0.381190 -0.478159
O6    O     O_R   0.590190 0.909820 0.381190 -0.506193
O7    O     O_R   0.090190 0.590180 0.381190 -0.478160
O8    O     O_R   0.090190 0.409820 0.381190 -0.506193
O9    O     O_2   0.755626 0.011551 0.329455 -0.518849
O10   O     O_2   0.255627 0.511550 0.329454 -0.518849
O11   O     O_R   0.409820 0.090170 0.618810 -0.510626
O12   O     O_R   0.909820 0.409830 0.618810 -0.518969
O13   O     O_R   0.909820 0.590170 0.618810 -0.510629
O14   O     O_R   0.409840 0.909830 0.381240 -0.510402
O15   O     O_R   0.409840 0.090170 0.381240 -0.506934
O16   O     O_R   0.909840 0.409830 0.381240 -0.510401
O17   O     O_R   0.909840 0.590170 0.381240 -0.506933
O18   O     O_R   0.590170 0.090170 0.618760 -0.533675

loop_
_geom_bond_atom_site_label_1
_geom_bond_atom_site_label_2
_ccdc_geom_bond_type
C44   C49   A    
C33   C55   A    
Cu3   O6    S    
C34   O13   A    
C22   C29   A    
C45   H1    S    
C22   H25   S    
C36   C42   A    
C10   C63   S    
C18   N3    A    
C65   H31   S    
C4    C8    A    
C2    C65   A    
Cu3   N1    S    
C39   C41   A    
C30   N4    A    
C25   O5    A    
C29   N3    A    
C19   C21   A    
C25   O18   A    
C64   H23   S    
C3    C7    A    
C36   H7    S    
C24   H26   S    
C32   H4    S    
C11   C14   A    
C14   H32   S    
C6    C25   S    
C38   H9    S    
Cu4   O7    S    
C22   N1    A    
C41   H13   S    
C13   H28   S    
C33   H5    S    
C12   O11   A    
C52   C54   A    
C34   O17   A    
C41   C46   A    
C24   N2    A    
C43   C48   A    
C8    C52   A    
C40   C44   A    
Cu2   O3    S    
C20   N1    A    
C12   C58   S    
Cu2   Cu4   S    
Cu4   O16   S    
Cu3   O15   S    
C55   C60   A    
C4    C56   A    
C34   C60   S    
C5    C49   A    
C2    C6    A    
C44   H16   S    
Cu1   O11   S    
Cu2   O13   S    
C32   C54   A    
C16   H34   S    
C23   O12   A    
C24   C30   A    
C54   C59   A    
C27   O7    A    
C10   C21   A    
C35   H6    S    
C45   C58   A    
C9    C62   S    
C43   H15   S    
C42   H14   S    
C66   H20   S    
Cu2   O12   S    
C47   C51   A    
C12   O15   A    
Cu3   O14   S    
C49   C55   A    
C3    C45   A    
C31   C53   A    
C7    C28   S    
C5    C26   S    
C3    H22   S    
Cu1   Cu3   S    
C64   C66   A    
C37   C43   A    
C35   C39   A    
C63   H30   S    
C17   H35   S    
C9    C20   A    
C48   C52   A    
Cu2   N4    S    
C32   C37   A    
C6    C50   A    
C57   C61   A    
C9    C11   A    
C62   O9    D    
C28   O4    A    
C23   O16   A    
C4    H24   S    
C27   O3    A    
Cu1   O1    S    
C48   H19   S    
C13   C15   A    
C14   C16   A    
C29   H36   S    
C26   O2    A    
C46   H17   S    
C19   N4    A    
C15   C17   A    
Cu3   O5    S    
C50   C57   A    
C40   H11   S    
C5    C66   A    
C10   C13   A    
C30   H2    S    
C53   C58   A    
C56   H12   S    
C37   H8    S    
C46   C50   A    
C33   C38   A    
C56   C59   A    
C60   C64   A    
C11   H27   S    
C15   H33   S    
C47   H18   S    
C1    C59   S    
C1    O14   A    
C7    C51   A    
Cu4   O17   S    
C28   O8    A    
Cu1   O18   S    
C39   H10   S    
C38   C40   A    
C63   O10   D    
Cu1   N3    S    
Cu4   O8    S    
C17   C19   A    
C18   C20   A    
C42   C47   A    
C2    H21   S    
C26   O6    A    
C21   N2    A    
C31   H3    S    
C62   H29   S    
C61   C65   A    
Cu1   O2    S    
C23   C61   S    
C16   C18   A    
C35   C57   A    
C8    C27   S    
C31   C36   A    
Cu4   N2    S    
C51   C53   A    
C1    O1    A    
Cu2   O4    S    
