data_mof_unit_6209.cif
_audit_creation_date              2012-12-10T17:47:38-0500
_audit_creation_method            fapswitch 2.2
_symmetry_space_group_name_H-M    P1
_symmetry_Int_Tables_number       1
_space_group_crystal_system       triclinic
_cell_length_a                    10.668744
_cell_length_b                    10.715409
_cell_length_c                    9.947883
_cell_angle_alpha                 90.905806
_cell_angle_beta                  89.966436
_cell_angle_gamma                 92.902472
_cell_volume                      1135.64069943

loop_
_atom_site_label
_atom_site_type_symbol
_atom_type_description
_atom_site_fract_x
_atom_site_fract_y
_atom_site_fract_z
_atom_type_partial_charge
C1    C     C_R   0.514345 0.262025 0.499619 0.923162
C2    C     C_R   0.553532 0.069216 0.623018 0.048228
C3    C     C_R   0.534800 0.130557 0.500380 -0.089163
C4    C     C_R   0.258049 0.503870 0.499474 0.952485
C5    C     C_R   0.512084 0.063146 0.381350 -0.143532
C6    C     C_R   0.496202 0.935891 0.384720 -0.151671
C7    C     C_R   0.495158 0.874862 0.508007 -0.082000
C8    C     C_R   0.352893 0.318095 0.136557 -0.170138
C9    C     C_R   0.293964 0.218388 0.065648 0.135824
C10   C     C_R   0.290660 0.220418 0.925979 0.158746
C11   C     C_R   0.349590 0.320109 0.858133 -0.142515
C12   C     C_3   0.878104 0.503582 0.497981 -0.047943
C13   C     C_R   0.425618 0.411736 0.926488 0.037173
C14   C     C_R   0.426370 0.411303 0.070646 0.118341
C15   C     C_R   0.570741 0.584305 0.074090 -0.085148
C16   C     C_R   0.495178 0.740300 0.502116 0.890230
C17   C     C_R   0.572680 0.584221 0.931889 0.438397
C18   C     C_R   0.741914 0.503215 0.499626 0.929337
C19   C     C_3   0.064882 0.381835 0.567199 0.542664
C20   C     C_3   0.918930 0.376358 0.551542 0.174063
C21   C     C_3   0.076286 0.618538 0.582669 -0.082406
C22   C     C_3   0.069490 0.509709 0.346288 0.503056
C23   C     C_3   0.932070 0.613928 0.586751 -0.560970
C24   C     C_3   0.121143 0.504742 0.496958 -0.138567
C25   C     C_3   0.927557 0.523002 0.352433 -0.384780
C26   C     C_R   0.606539 0.130415 0.738529 -0.281755
C27   C     C_R   0.594531 0.076239 0.865724 0.497510
C28   C     C_R   0.530972 0.960343 0.876447 -0.082252
C29   C     C_R   0.489777 0.894697 0.761233 -0.178644
C30   C     C_R   0.512448 0.943718 0.631101 0.099073
H1    H     H_    0.903094 0.617326 0.318936 0.177225
H2    H     H_    0.334576 0.322630 0.752409 0.255468
H3    H     H_    0.873558 0.360158 0.651547 0.085470
H4    H     H_    0.110782 0.611648 0.687461 0.198137
H5    H     H_    0.899916 0.602982 0.692601 0.206930
H6    H     H_    0.880350 0.454851 0.280811 0.237831
H7    H     H_    0.039364 0.429090 0.759745 0.317726
H8    H     H_    0.677936 0.218882 0.956924 0.332734
H9    H     H_    0.653990 0.655127 0.776004 0.385385
H10   H     H_    0.855072 0.205003 0.516686 0.350443
H11   H     H_    0.068095 0.404907 0.182960 0.353634
H12   H     H_    0.896466 0.703280 0.550684 0.237546
H13   H     H_    0.502837 0.108714 0.285661 0.198702
H14   H     H_    0.657022 0.220179 0.730611 0.157390
H15   H     H_    0.513989 0.920301 0.974505 0.169819
H16   H     H_    0.434705 0.809236 0.777972 0.208164
H17   H     H_    0.481828 0.885746 0.290067 0.187860
H18   H     H_    0.628977 0.652699 0.129798 0.168637
H19   H     H_    0.339559 0.319679 0.242612 0.244988
I1    I     I_    0.152891 0.803476 0.539637 -0.259632
I2    I     I_    0.145314 0.212939 0.491441 -0.137481
I3    I     I_    0.215749 0.062867 0.171875 -0.193373
I4    I     I_    0.198629 0.072704 0.815112 -0.210943
I5    I     I_    0.148223 0.658262 0.217067 -0.281984
N1    N     N_R   0.498810 0.498800 0.142780 -0.143805
N2    N     N_R   0.498760 0.498720 0.857170 -0.175804
O1    O     O_R   0.500000 0.316780 0.614690 -0.652841
O2    O     O_3   0.638821 0.136341 0.981139 -0.757773
O3    O     O_3   0.652366 0.672108 0.873028 -0.782211
O4    O     O_3   0.876679 0.279915 0.462161 -0.714336
O5    O     O_3   0.093419 0.397202 0.278341 -0.723017
O6    O     O_R   0.499990 0.316750 0.385360 -0.636046
O7    O     O_R   0.314800 0.499990 0.614670 -0.608204
O8    O     O_R   0.314790 0.499970 0.385330 -0.590667
O9    O     O_R   0.500010 0.683250 0.614640 -0.655095
O10   O     O_R   0.500000 0.683220 0.385310 -0.616694
O11   O     O_R   0.685210 0.500030 0.614670 -0.671006
O12   O     O_R   0.685200 0.500010 0.385330 -0.614853
O13   O     O_3   0.098571 0.381387 0.704795 -0.792133
Zn1   Zn    Zn3+2 0.500010 0.500020 0.653130 0.937145
Zn2   Zn    Zn3+2 0.499990 0.499980 0.346870 0.979854

loop_
_geom_bond_atom_site_label_1
_geom_bond_atom_site_label_2
_ccdc_geom_bond_type
C25   H1    S    
C8    C14   A    
N1    Zn2   S    
C6    C7    A    
H10   O4    S    
C1    O1    A    
O1    Zn1   S    
C20   O4    S    
C9    C10   A    
C12   C25   S    
C23   H12   S    
O10   Zn2   S    
C17   N2    A    
O7    Zn1   S    
H11   O5    S    
C29   H16   S    
C2    C30   A    
C13   N2    A    
H9    O3    S    
C1    O6    A    
O11   Zn1   S    
H7    O13   S    
C14   N1    A    
C5    H13   S    
C3    C5    A    
C26   H14   S    
C22   I5    S    
C7    C30   A    
C13   C14   A    
C22   O5    S    
O8    Zn2   S    
C11   C13   A    
C4    O7    A    
C12   C20   S    
C26   C27   A    
C29   C30   A    
C9    I3    S    
C15   H18   S    
C17   O3    S    
O12   Zn2   S    
C20   H3    S    
C28   C29   A    
C16   O9    A    
O6    Zn2   S    
C2    C3    A    
N2    Zn1   S    
C21   C23   S    
C5    C6    A    
C4    C24   S    
C23   H5    S    
C22   C24   S    
C28   H15   S    
C19   O13   S    
C16   O10   A    
C10   C11   A    
C25   H6    S    
C18   O12   A    
O9    Zn1   S    
C19   I2    S    
C2    C26   A    
C6    H17   S    
C21   C24   S    
C12   C18   S    
C27   C28   A    
C15   C17   A    
C10   I4    S    
C4    O8    A    
C21   I1    S    
C12   C23   S    
C21   H4    S    
C1    C3    S    
C18   O11   A    
H8    O2    S    
C19   C24   S    
C8    H19   S    
C22   C25   S    
C7    C16   S    
C19   C20   S    
C8    C9    A    
C11   H2    S    
C27   O2    S    
C15   N1    A    
