data_mof_unit_50925.cif
_audit_creation_date              2012-12-10T17:18:57-0500
_audit_creation_method            fapswitch 2.2
_symmetry_space_group_name_H-M    P1
_symmetry_Int_Tables_number       1
_space_group_crystal_system       triclinic
_cell_length_a                    9.710194
_cell_length_b                    10.819941
_cell_length_c                    13.602165
_cell_angle_alpha                 93.766589
_cell_angle_beta                  75.498583
_cell_angle_gamma                 91.219827
_cell_volume                      1380.5593731

loop_
_atom_site_label
_atom_site_type_symbol
_atom_type_description
_atom_site_fract_x
_atom_site_fract_y
_atom_site_fract_z
_atom_type_partial_charge
C1    C     C_R   0.502664 0.738607 0.497930 0.858639
C2    C     C_R   0.446671 0.438564 0.966783 0.097983
C3    C     C_R   0.491884 0.439406 0.860019 0.012550
C4    C     C_R   0.547406 0.458967 0.026235 -0.047762
C5    C     C_R   0.694009 0.450707 0.976259 0.020937
C6    C     C_R   0.735122 0.418533 0.871490 0.395548
C7    C     C_R   0.635470 0.414113 0.814351 -0.153081
C8    C     C_R   0.507958 0.494290 0.131837 0.373126
C9    C     C_R   0.756153 0.496426 0.136347 -0.167022
C10   C     C_R   0.388894 0.455644 0.803974 -0.087375
C11   C     C_R   0.307203 0.890800 0.415190 0.356031
C12   C     C_R   0.426166 0.487926 0.696870 0.787760
C13   C     C_R   0.172144 0.939737 0.422923 0.373768
C14   C     C_R   0.124574 0.039685 0.492423 -0.214782
C15   C     C_R   0.219579 0.103828 0.539411 0.377037
C16   C     C_R   0.361189 0.061531 0.520977 -0.019793
C17   C     C_R   0.390572 0.940100 0.479450 -0.149109
C18   C     C_R   0.505621 0.876218 0.499565 -0.127906
C19   C     C_R   0.607743 0.946580 0.538156 0.439964
C20   C     C_R   0.592520 0.073943 0.556120 -0.159147
C21   C     C_R   0.476593 0.133817 0.538244 -0.113503
C22   C     C_R   0.895708 0.341087 0.362850 0.410977
C23   C     C_R   0.492289 0.265479 0.515248 0.891175
C24   C     C_R   0.979286 0.321537 0.265244 0.260535
C25   C     C_R   0.122711 0.311289 0.257333 -0.256048
C26   C     C_R   0.181970 0.351940 0.337959 0.402996
C27   C     C_R   0.097348 0.426582 0.424669 0.131689
C28   C     C_R   0.946677 0.425207 0.429104 -0.051345
C29   C     C_R   0.905039 0.566630 0.571332 0.520841
C30   C     C_R   0.051632 0.566641 0.570721 0.009457
C31   C     C_R   0.574418 0.503377 0.301254 0.914628
C32   C     C_R   0.796090 0.475653 0.031457 -0.063256
C33   C     C_R   0.612421 0.499424 0.188555 -0.082081
C34   C     C_R   0.245202 0.437953 0.851885 -0.107025
C35   C     C_R   0.205183 0.403139 0.951244 -0.101691
C36   C     C_R   0.304588 0.406072 0.008490 -0.064148
Cu1   Cu    Cu3+1 0.359340 0.500010 0.500010 1.086171
Cu2   Cu    Cu3+1 0.640660 0.499990 0.499990 1.076982
H1    H     H_    0.182772 0.252221 0.194577 0.230159
H2    H     H_    0.672029 0.382170 0.735492 0.204227
N1    N     N_R   0.852480 0.498790 0.499000 -0.225189
N2    N     N_R   0.148360 0.498710 0.498970 -0.190667
O1    O     O_R   0.381190 0.680360 0.500010 -0.580475
O2    O     O_R   0.618760 0.680340 0.500000 -0.501822
O3    O     O_R   0.323240 0.499990 0.650990 -0.577369
O4    O     O_R   0.560820 0.499960 0.650980 -0.567168
O5    O     O_R   0.381240 0.319660 0.500000 -0.512250
O6    O     O_R   0.618810 0.319640 0.499990 -0.566097
O7    O     O_R   0.439180 0.500040 0.349020 -0.496164
O8    O     O_R   0.676760 0.500010 0.349010 -0.608700
H3    H     H_    0.838858 0.510154 0.176648 0.190287
Cl1   Cl    Cl    0.389983 0.798443 0.307141 -0.442964
Cl2   Cl    Cl    0.061735 0.877073 0.347418 -0.377921
H4    H     H_    0.015816 0.070145 0.507561 0.261396
Cl3   Cl    Cl    0.149859 0.218212 0.635852 -0.517324
H5    H     H_    0.674546 0.127229 0.581075 0.214312
Cl4   Cl    Cl    0.792427 0.650282 0.673631 -0.503612
Cl5   Cl    Cl    0.855360 0.192826 0.407946 -0.539529
Cl6   Cl    Cl    0.909222 0.242183 0.171139 -0.503588
Cl7   Cl    Cl    0.341013 0.269719 0.320718 -0.569047
Cl8   Cl    Cl    0.909219 0.378456 0.807598 -0.590316
H6    H     H_    0.087638 0.621116 0.629181 0.165244
H7    H     H_    0.907296 0.480050 0.993640 0.176225
Cl9   Cl    Cl    0.338841 0.561353 0.186226 -0.527644
H8    H     H_    0.165239 0.446017 0.810722 0.239529
H9    H     H_    0.271087 0.378264 0.084136 0.172031
H10   H     H_    0.097546 0.374933 0.984835 0.192257
Cl10  Cl    Cl    0.765561 0.886591 0.555722 -0.481541

loop_
_geom_bond_atom_site_label_1
_geom_bond_atom_site_label_2
_ccdc_geom_bond_type
Cu1   O1    S    
C2    C4    A    
C7    H2    S    
C31   C33   S    
C24   C25   A    
C22   Cl5   S    
C29   C30   A    
Cu2   O8    S    
Cu1   O5    S    
Cu1   O7    S    
C1    O2    A    
Cu2   O6    S    
C19   C20   A    
C9    H3    S    
C35   H10   S    
C4    C8    A    
C5    C32   A    
C31   O7    A    
C30   H6    S    
C2    C3    A    
C1    C18   S    
C19   Cl10  S    
C10   C34   A    
C3    C10   A    
C22   C28   A    
C13   C14   A    
C25   H1    S    
C9    C33   A    
C11   C13   A    
C27   N2    A    
C26   C27   A    
C16   C21   A    
C10   C12   S    
C8    Cl9   S    
C24   Cl6   S    
C23   O6    A    
C34   H8    S    
C14   H4    S    
Cu1   Cu2   S    
C29   Cl4   S    
Cu2   O2    S    
C17   C18   A    
C6    C7    A    
C13   Cl2   S    
C8    C33   A    
C21   C23   S    
C5    C6    A    
C22   C24   A    
Cu2   O4    S    
C23   O5    A    
C31   O8    A    
Cu1   O3    S    
C15   C16   A    
C9    C32   A    
C16   C17   A    
C28   N1    A    
C27   C28   A    
C32   H7    S    
C20   C21   A    
C6    Cl8   S    
Cu2   N1    S    
C12   O4    A    
C34   C35   A    
C2    C36   A    
Cu1   N2    S    
C12   O3    A    
C14   C15   A    
C18   C19   A    
C20   H5    S    
C11   Cl1   S    
C36   H9    S    
C3    C7    A    
C29   N1    A    
C25   C26   A    
C26   Cl7   S    
C1    O1    A    
C11   C17   A    
C35   C36   A    
C30   N2    A    
C4    C5    A    
C15   Cl3   S    
