data_mof_unit_63704.cif
_audit_creation_date              2012-12-10T20:55:08-0500
_audit_creation_method            fapswitch 2.2
_symmetry_space_group_name_H-M    P1
_symmetry_Int_Tables_number       1
_space_group_crystal_system       triclinic
_cell_length_a                    15.839694
_cell_length_b                    15.047876
_cell_length_c                    10.762882
_cell_angle_alpha                 90.001267
_cell_angle_beta                  89.975892
_cell_angle_gamma                 91.084257
_cell_volume                      2564.91373889

loop_
_atom_site_label
_atom_site_type_symbol
_atom_type_description
_atom_site_fract_x
_atom_site_fract_y
_atom_site_fract_z
_atom_type_partial_charge
Br1   Br    Br    0.666391 0.652812 0.263754 -0.506632
Br2   Br    Br    0.666040 0.653241 0.735918 -0.498717
C1    C     C_R   0.338829 0.499244 0.500069 0.918588
C2    C     C_R   0.506957 0.953161 0.611781 -0.153409
C3    C     C_R   0.500702 0.905016 0.499965 0.073781
C4    C     C_R   0.506860 0.046992 0.611787 -0.161396
C5    C     C_R   0.494477 0.046742 0.388154 -0.159997
C6    C     C_R   0.500535 0.094918 0.499983 0.083123
C7    C     C_1   0.500337 0.807206 0.499989 0.089199
C8    C     C_1   0.500229 0.192776 0.500000 0.040322
C9    C     C_R   0.509541 0.500655 0.260042 0.899139
C10   C     C_R   0.509539 0.500663 0.739948 0.898716
C11   C     C_R   0.589824 0.657768 0.127286 0.288212
C12   C     C_R   0.661178 0.500602 0.499940 0.960204
C13   C     C_R   0.589659 0.657907 0.872727 0.287917
C14   C     C_R   0.595407 0.738358 0.064226 -0.224122
C15   C     C_R   0.595297 0.738432 0.935955 -0.224731
C16   C     C_R   0.558359 0.580130 0.934280 0.002493
C17   C     C_R   0.558401 0.580089 0.065690 0.002807
C18   C     C_R   0.528959 0.502070 0.128619 -0.089696
C19   C     C_R   0.528943 0.502100 0.871351 -0.089996
C20   C     C_R   0.511763 0.423739 0.063441 -0.205139
C21   C     C_R   0.511769 0.423751 0.936528 -0.205821
C22   C     C_R   0.958330 0.572578 0.448630 -0.148731
C23   C     C_R   0.954107 0.428774 0.552392 -0.180794
C24   C     C_R   0.045825 0.571248 0.448150 -0.183406
C25   C     C_R   0.913145 0.501324 0.500760 0.158909
C26   C     C_R   0.086796 0.498669 0.499732 0.167904
C27   C     C_R   0.041592 0.427439 0.551901 -0.174236
C28   C     C_1   0.824408 0.502154 0.500471 -0.033709
C29   C     C_1   0.175560 0.497695 0.499808 -0.067631
C30   C     C_1   0.250415 0.497797 0.499935 -0.180162
C31   C     C_1   0.749577 0.501927 0.500193 -0.090413
C32   C     C_R   0.494580 0.952915 0.388139 -0.158051
H1    H     H_    0.492237 0.362979 0.110263 0.169461
H2    H     H_    0.511681 0.082169 0.699373 0.132477
H3    H     H_    0.489789 0.917712 0.300555 0.133689
H4    H     H_    0.511860 0.918148 0.699353 0.133988
H5    H     H_    0.492255 0.362992 0.889713 0.169368
H6    H     H_    0.615771 0.798226 0.112405 0.181524
H7    H     H_    0.615566 0.798365 0.887826 0.179955
H8    H     H_    0.081404 0.626359 0.407939 0.148001
H9    H     H_    0.926028 0.628611 0.408604 0.166177
H10   H     H_    0.918526 0.373652 0.592574 0.146347
H11   H     H_    0.073868 0.371378 0.591882 0.144874
H12   H     H_    0.489592 0.081720 0.300574 0.132248
N1    N     N_1   0.500000 0.270550 0.500000 -0.089837
N2    N     N_1   0.500000 0.729450 0.500000 -0.057241
O1    O     O_R   0.378020 0.573650 0.500040 -0.612657
O2    O     O_R   0.621980 0.573650 0.499960 -0.531960
O3    O     O_R   0.378020 0.426320 0.500100 -0.608687
O4    O     O_R   0.621980 0.426320 0.499900 -0.634352
O5    O     O_R   0.500000 0.573680 0.316780 -0.599921
O6    O     O_R   0.500000 0.573680 0.683220 -0.599672
O7    O     O_R   0.500000 0.426350 0.316830 -0.626680
O8    O     O_R   0.500000 0.426350 0.683170 -0.627181
Zn1   Zn    Zn3+2 0.500000 0.598370 0.500000 1.036092
Zn2   Zn    Zn3+2 0.500000 0.401630 0.500000 0.979461

loop_
_geom_bond_atom_site_label_1
_geom_bond_atom_site_label_2
_ccdc_geom_bond_type
C13   C16   A    
C4    H2    S    
C3    C7    S    
C20   H1    S    
C23   C25   A    
C32   H3    S    
C17   C18   A    
C24   C26   A    
C29   C30   T    
C9    O5    A    
C22   C25   A    
C3    C32   A    
C12   C31   S    
C1    O1    A    
O1    Zn1   S    
N2    Zn1   S    
O3    Zn2   S    
C10   O8    A    
N1    Zn2   S    
Br2   C13   S    
C12   O2    A    
O4    Zn2   S    
C14   H6    S    
C10   O6    A    
C21   H5    S    
C23   H10   S    
C2    C4    A    
C26   C27   A    
C18   C20   A    
C19   C21   A    
C23   C27   A    
C1    C30   S    
C5    C32   A    
C15   H7    S    
C9    C18   S    
O7    Zn2   S    
Br1   C11   S    
C11   C17   A    
C16   C19   A    
C5    H12   S    
C5    C6    A    
C9    O7    A    
C24   H8    S    
C7    N2    T    
C6    C8    S    
C16   C17   A    
C11   C14   A    
C27   H11   S    
C8    N1    T    
C13   C15   A    
C22   H9    S    
C1    O3    A    
C20   C21   A    
C2    C3    A    
C4    C6    A    
C28   C31   T    
C2    H4    S    
O2    Zn1   S    
C10   C19   S    
C26   C29   S    
C12   O4    A    
C22   C24   A    
O8    Zn2   S    
C14   C15   A    
C25   C28   S    
O6    Zn1   S    
O5    Zn1   S    
