data_mof_unit_9192.cif
_audit_creation_date              2012-12-11T18:37:48-0500
_audit_creation_method            fapswitch 2.2
_symmetry_space_group_name_H-M    P1
_symmetry_Int_Tables_number       1
_space_group_crystal_system       triclinic
_cell_length_a                    8.261777
_cell_length_b                    14.29382
_cell_length_c                    27.040685
_cell_angle_alpha                 93.362307
_cell_angle_beta                  92.943279
_cell_angle_gamma                 88.232179
_cell_volume                      3182.35477012

loop_
_atom_site_label
_atom_site_type_symbol
_atom_type_description
_atom_site_fract_x
_atom_site_fract_y
_atom_site_fract_z
_atom_type_partial_charge
Ba1   Ba    Ba6+2 0.849670 0.455410 0.524690 1.675884
Ba2   Ba    Ba6+2 0.340150 0.544510 0.475310 1.689843
C1    C     C_3   0.664212 0.109317 0.672587 0.257041
C2    C     C_R   0.932226 0.601734 0.176841 0.563441
C3    C     C_2   0.773844 0.572364 0.271842 -0.043594
C4    C     C_3   0.110666 0.254974 0.665163 0.395193
C5    C     C_3   0.753662 0.597152 0.326114 -0.069658
C6    C     C_1   0.980993 0.487959 0.344278 0.057357
C7    C     C_2   0.024222 0.487175 0.297142 -0.048421
C8    C     C_2   0.912406 0.528150 0.257243 0.227865
C9    C     C_R   0.026080 0.513753 0.103004 -0.078731
C10   C     C_R   0.046571 0.434054 0.131268 -0.049439
C11   C     C_R   0.103910 0.350218 0.108116 -0.046476
C12   C     C_3   0.600532 0.209259 0.665347 0.375987
C13   C     C_R   0.968286 0.597936 0.126165 -0.019513
C14   C     C_2   0.849711 0.533733 0.359909 -0.255388
C15   C     C_2   0.343791 0.470530 0.640728 -0.293997
C16   C     C_3   0.097388 0.228386 0.718351 -0.292137
C17   C     C_R   0.159871 0.419628 0.977492 0.020134
C18   C     C_R   0.074459 0.585758 0.972050 0.020494
C19   C     C_R   0.135230 0.500507 0.949348 0.050426
C20   C     C_R   0.222402 0.336984 0.953099 -0.100414
C21   C     C_R   0.258096 0.333683 0.903278 -0.059946
C22   C     C_R   0.233632 0.412491 0.875073 -0.024212
C23   C     C_3   0.534465 0.673812 0.622414 0.291013
C24   C     C_R   0.172047 0.496059 0.897904 -0.078834
C25   C     C_R   0.147860 0.575144 0.869319 -0.041298
C26   C     C_R   0.186131 0.569773 0.818558 0.600313
C27   C     C_R   0.270020 0.408721 0.824433 0.572033
C28   C     C_3   0.149398 0.248397 0.417461 0.676393
C29   C     C_2   0.425715 0.439264 0.729148 -0.095416
C30   C     C_3   0.441251 0.409405 0.675235 -0.065357
C31   C     C_1   0.211380 0.515207 0.656146 0.047738
C32   C     C_2   0.169650 0.517870 0.703482 -0.081365
C33   C     C_2   0.285449 0.481433 0.743679 0.201632
C34   C     C_3   0.526393 0.695900 0.678143 0.209078
C35   C     C_R   0.121950 0.423782 0.028714 0.019622
C36   C     C_R   0.062750 0.509291 0.051548 0.051348
C37   C     C_R   0.039582 0.590417 0.023528 0.019777
C38   C     C_R   0.140752 0.345037 0.058257 -0.095199
C39   C     C_R   0.947634 0.677383 0.098277 -0.056238
C40   C     C_3   0.043821 0.163115 0.416599 -0.321759
C41   C     C_R   0.050565 0.663651 0.942078 -0.097383
C42   C     C_R   0.086546 0.658324 0.892140 -0.057627
C43   C     C_R   0.982238 0.673913 0.048358 -0.101210
C44   C     C_R   0.685990 0.063788 0.473941 -0.033153
C45   C     C_3   0.088079 0.748343 0.333986 0.326994
C46   C     C_R   0.510996 0.198715 0.502481 0.137748
C47   C     C_R   0.373458 0.230277 0.527196 -0.243737
C48   C     C_R   0.273551 0.167242 0.547520 -0.019585
C49   C     C_R   0.318205 0.072623 0.547737 -0.146556
C50   C     C_R   0.459181 0.039476 0.524944 -0.020150
C51   C     C_R   0.553621 0.101440 0.500206 -0.021270
C52   C     C_3   0.996772 0.748033 0.587128 0.678234
C53   C     C_R   0.638524 0.907773 0.500452 -0.031860
C54   C     C_R   0.731175 0.968487 0.474549 0.003801
C55   C     C_R   0.683604 0.811848 0.500068 0.003656
C56   C     C_3   0.111249 0.775559 0.281326 -0.294877
C57   C     C_R   0.816148 0.777528 0.473955 -0.251260
C58   C     C_R   0.914690 0.838048 0.451592 0.054226
C59   C     C_R   0.870492 0.933289 0.450737 -0.135672
C60   C     C_R   0.503593 0.944428 0.525630 -0.050952
C61   C     C_3   0.934132 0.838660 0.612967 -0.176499
C62   C     C_3   0.655514 0.331387 0.376987 0.296530
C63   C     C_3   0.663035 0.297761 0.321652 0.993330
C64   C     C_3   0.553762 0.799028 0.358092 0.358169
C65   C     C_3   0.518964 0.895869 0.338861 -0.356423
C66   C     C_R   0.008082 0.439372 0.182001 0.623365
H1    H     H_    0.062384 0.128109 0.452077 0.072086
H2    H     H_    0.624138 0.615282 0.616538 0.008387
H3    H     H_    0.102256 0.292487 0.743341 0.108567
H4    H     H_    0.957931 0.735337 0.337765 -0.059081
H5    H     H_    0.227564 0.811362 0.278981 0.147724
H6    H     H_    0.114496 0.711542 0.256226 0.113280
H7    H     H_    0.010514 0.823364 0.269020 0.128303
H8    H     H_    0.687123 0.785729 0.357981 -0.070874
H9    H     H_    0.514091 0.799597 0.396775 0.069580
H10   H     H_    0.589679 0.948672 0.361909 0.064974
H11   H     H_    0.388231 0.914998 0.340788 0.151930
H12   H     H_    0.916075 0.185875 0.410779 0.101291
H13   H     H_    0.554320 0.896984 0.299833 0.127195
H14   H     H_    0.120781 0.287452 0.128612 0.133391
H15   H     H_    0.516428 0.414513 0.756149 0.113509
H16   H     H_    0.305727 0.268222 0.886839 0.123026
H17   H     H_    0.246539 0.272838 0.971383 0.071002
H18   H     H_    0.183138 0.277286 0.044085 0.072000
H19   H     H_    0.685510 0.599878 0.244951 0.112249
H20   H     H_    0.962945 0.738857 0.030470 0.071142
H21   H     H_    0.826350 0.540734 0.399087 0.071132
H22   H     H_    0.241413 0.024841 0.564803 0.098854
H23   H     H_    0.891288 0.707368 0.572392 -0.074318
H24   H     H_    0.945639 0.979394 0.432203 0.066812
H25   H     H_    0.849318 0.703678 0.473873 0.051422
H26   H     H_    0.755257 0.107625 0.452898 0.083775
H27   H     H_    0.430502 0.899816 0.545813 0.126441
H28   H     H_    0.198095 0.178995 0.728796 0.113806
H29   H     H_    0.137782 0.287539 0.453887 0.011213
H30   H     H_    0.543873 0.211698 0.627141 -0.057844
H31   H     H_    0.072928 0.112253 0.385439 0.101815
H32   H     H_    0.102510 0.713497 0.526985 0.314428
H33   H     H_    0.037384 0.881406 0.628070 0.133402
H34   H     H_    0.858635 0.822535 0.644024 0.069889
H35   H     H_    0.775402 0.357015 0.390829 -0.063912
H36   H     H_    0.708032 0.066015 0.605270 0.297659
H37   H     H_    0.774280 0.176876 0.332528 0.265403
H38   H     H_    0.583529 0.409473 0.289500 0.301526
H39   H     H_    0.511586 0.193694 0.317964 0.287642
H40   H     H_    0.441507 0.823839 0.681515 0.321596
H41   H     H_    0.502545 0.630609 0.696458 0.037452
H42   H     H_    0.644855 0.722250 0.693827 0.041681
H43   H     H_    0.726576 0.105893 0.709818 0.075577
H44   H     H_    0.161429 0.683248 0.340320 0.087345
H45   H     H_    0.859841 0.880511 0.586483 0.055897
H46   H     H_    0.033933 0.319152 0.659688 0.081233
H47   H     H_    0.140809 0.456672 0.287208 0.127788
H48   H     H_    0.903973 0.743496 0.115052 0.125863
H49   H     H_    0.003258 0.730580 0.955849 0.070465
H50   H     H_    0.239018 0.269465 0.659197 -0.116906
H51   H     H_    0.065778 0.720436 0.871312 0.125447
H52   H     H_    0.051637 0.546397 0.713314 0.123654
H53   H     H_    0.366466 0.462100 0.601528 0.079738
H54   H     H_    0.338359 0.303880 0.527909 0.056165
H55   H     H_    0.980263 0.194810 0.722901 0.147123
H56   H     H_    0.563573 0.389221 0.380825 0.037719
H57   H     H_    0.318151 0.186762 0.379033 0.316190
H58   H     H_    0.506783 0.225465 0.692883 -0.073476
H59   H     H_    0.560697 0.060902 0.670953 -0.036302
H60   H     H_    0.413496 0.651693 0.607262 0.045165
N1    N     N_R   0.952194 0.522919 0.204706 -0.430553
N2    N     N_R   0.246217 0.486893 0.796245 -0.424213
O1    O     O_2   0.918080 0.549800 0.616640 -0.482877
O2    O     O_2   0.250782 0.834973 0.458535 -0.453135
O3    O     O_3   0.139075 0.821492 0.367372 -0.607395
O4    O     O_3   0.150070 0.549720 0.556460 -0.505069
O5    O     O_3   0.546340 0.387390 0.478340 -0.477038
O6    O     O_2   0.398940 0.728800 0.517420 -0.421697
O7    O     O_3   0.581643 0.753788 0.599756 -0.669232
O8    O     O_2   0.416849 0.549922 0.321048 -0.509172
O9    O     O_3   0.468891 0.731323 0.327847 -0.595036
O10   O     O_2   0.021863 0.368982 0.205590 -0.538497
O11   O     O_2   0.322303 0.334992 0.805438 -0.622259
O12   O     O_3   0.613533 0.255775 0.403777 -0.656004
O13   O     O_2   0.883565 0.676029 0.196142 -0.621715
O14   O     O_2   0.168301 0.639520 0.794581 -0.572753
O15   O     O_3   0.658250 0.379560 0.591530 -0.466922
O16   O     O_2   0.775623 0.454896 0.677894 -0.506858
O17   O     O_3   0.092035 0.699211 0.621773 -0.601690
O18   O     O_3   0.727188 0.273120 0.673334 -0.583180
O19   O     O_2   0.790750 0.271170 0.482550 -0.489435
O20   O     O_3   0.062300 0.331660 0.568480 -0.500725
O21   O     O_2   0.936001 0.165700 0.542127 -0.465176
O22   O     O_3   0.092614 0.771122 0.548884 -0.735164
O23   O     O_3   0.056934 0.180800 0.632890 -0.538815
O24   O     O_3   0.773547 0.080678 0.636389 -0.668902
O25   O     O_3   0.794514 0.233983 0.314893 -0.660057
O26   O     O_3   0.688536 0.374601 0.293517 -0.707996
O27   O     O_3   0.516271 0.256289 0.304202 -0.706428
O28   O     O_3   0.400708 0.761381 0.688088 -0.674739
O29   O     O_3   0.309737 0.217573 0.412710 -0.769872
O30   O     O_2   0.271610 0.450170 0.383330 -0.456783
O31   O     O_3   0.039630 0.450200 0.443530 -0.514952
O32   O     O_3   0.531440 0.620360 0.408460 -0.476592
O33   O     O_3   0.100335 0.301150 0.376937 -0.600232
O34   O     O_3   0.643350 0.612530 0.521650 -0.483233
O35   O     O_3   0.127390 0.668260 0.431510 -0.507270
P1    P     P_3+3 0.090020 0.577590 0.608380 0.998623
P2    P     P_3+3 0.614340 0.285150 0.467650 1.031440
P3    P     P_3+3 0.081163 0.210412 0.571978 0.996211
P4    P     P_3+3 0.099670 0.422330 0.391610 1.035075
P5    P     P_3+3 0.107331 0.790590 0.427637 0.966955
P6    P     P_3+3 0.651872 0.382791 0.655844 0.953553
P7    P     P_3+3 0.581399 0.728607 0.535670 0.944483
P8    P     P_3+3 0.540902 0.620638 0.344477 0.944024

loop_
_geom_bond_atom_site_label_1
_geom_bond_atom_site_label_2
_ccdc_geom_bond_type
C62   H35   S    
C57   C58   A    
C53   C54   A    
O15   P6    S    
C40   H12   S    
C16   H28   S    
Ba1   O15   S    
C31   P1    S    
O19   P2    D    
C6    P4    S    
C61   H33   S    
Ba2   O32   S    
C2    O13   D    
O32   P8    S    
H32   O22   S    
C10   C66   A    
C28   H29   S    
C24   C25   A    
Ba2   O4    S    
C15   C31   D    
C17   C19   A    
C23   H60   S    
C22   C24   A    
C32   C33   S    
C63   O26   S    
C49   H22   S    
C36   C37   A    
C1    H59   S    
C55   C57   A    
H40   O28   S    
C52   C61   S    
Ba1   P2    S    
O21   P3    D    
C53   C60   A    
C12   O18   S    
O35   P5    S    
O18   P6    S    
C29   H15   S    
Ba1   Ba2   S    
C20   H17   S    
C38   H18   S    
C22   C27   A    
C4    H46   S    
O7    P7    S    
C17   C35   A    
O12   P2    S    
C9    C13   A    
C25   C42   A    
C64   O9    S    
O6    P7    D    
O1    P1    D    
C1    H43   S    
C6    C7    D    
C11   C38   A    
O30   P4    D    
O4    P1    S    
Ba1   O19   S    
C26   O14   D    
C7    C8    S    
C59   H24   S    
C34   O28   S    
C16   H55   S    
C37   C43   A    
C55   P7    S    
O31   P4    S    
C64   C65   S    
C64   H8    S    
C14   H21   S    
C6    C14   D    
O16   P6    D    
C45   O3    S    
C28   O29   S    
C65   H10   S    
O2    P5    D    
C28   O33   S    
C61   H34   S    
Ba2   O31   S    
H39   O27   S    
C19   C24   A    
C56   H7    S    
C12   H30   S    
Ba2   O30   S    
C32   H52   S    
C46   C51   A    
C4    C16   S    
C21   H16   S    
C49   C50   A    
C7    H47   S    
C17   C20   A    
C65   H11   S    
Ba1   O34   S    
C63   O27   S    
Ba2   O34   S    
C3    C5    S    
C18   C37   A    
C52   O22   S    
Ba2   P4    S    
C42   H51   S    
C62   H56   S    
C11   H14   S    
C40   H1    S    
Ba2   O6    S    
C58   C59   A    
C61   H45   S    
C9    C36   A    
C23   O7    S    
O3    P5    S    
C35   C36   A    
O17   P1    S    
C27   N2    Am   
C44   H26   S    
C21   C22   A    
O20   P3    S    
C43   H20   S    
O8    P8    D    
C48   C49   A    
Ba1   O20   S    
C10   C11   A    
O34   P7    S    
Ba2   O35   S    
C13   C39   A    
C1    C12   S    
C41   H49   S    
C15   H53   S    
C46   C47   A    
H37   O25   S    
C30   P6    S    
C65   H13   S    
C33   N2    S    
C53   C55   A    
C41   C42   A    
C34   H42   S    
C29   C33   D    
O9    P8    S    
C39   H48   S    
Ba1   O4    S    
C27   O11   D    
C34   H41   S    
C18   C41   A    
C50   C51   A    
C56   H6    S    
C16   H3    S    
C64   H9    S    
C5    C14   S    
C39   C43   A    
C60   H27   S    
C54   C59   A    
C29   C30   S    
Ba1   O1    S    
C9    C10   A    
H57   O29   S    
C2    N1    Am   
C35   C38   A    
H38   O26   S    
Ba2   O5    S    
C12   H58   S    
C58   P5    S    
C62   C63   S    
C2    C13   A    
C8    N1    S    
C52   H23   S    
O23   P3    S    
C50   C60   A    
C40   H31   S    
C45   C56   S    
C48   P3    S    
C46   P2    S    
C62   O12   S    
Ba1   P1    S    
C47   H54   S    
C5    P8    S    
C44   C51   A    
C31   C32   D    
C26   N2    Am   
C1    O24   S    
C66   N1    Am   
O33   P4    S    
C45   H4    S    
C4    O23   S    
C66   O10   D    
C23   C34   S    
Ba1   O31   S    
C3    H19   S    
C3    C8    D    
C18   C19   A    
C63   O25   S    
C47   C48   A    
C44   C54   A    
C25   C26   A    
C15   C30   S    
O5    P2    S    
C20   C21   A    
C28   C40   S    
C23   H2    S    
C57   H25   S    
H36   O24   S    
Ba1   O5    S    
C4    H50   S    
C45   H44   S    
C56   H5    S    
C52   O17   S    
