data_mof_unit_46178.cif
_audit_creation_date              2012-10-26T19:52:47-0400
_audit_creation_method            fapswitch 2.2
_symmetry_space_group_name_H-M    P1
_symmetry_Int_Tables_number       1
_space_group_crystal_system       triclinic
_cell_length_a                    15.032777
_cell_length_b                    10.808081
_cell_length_c                    9.555754
_cell_angle_alpha                 90.025697
_cell_angle_beta                  89.948417
_cell_angle_gamma                 90.035508
_cell_volume                      1552.5745533

loop_
_atom_site_label
_atom_site_type_symbol
_atom_type_description
_atom_site_fract_x
_atom_site_fract_y
_atom_site_fract_z
_atom_type_partial_charge
C1    C     C_R   0.498445 0.262317 0.499992 0.555326
C2    C     C_R   0.187211 0.407815 0.570587 -0.134120
C3    C     C_R   0.233204 0.501024 0.500537 -0.019853
C4    C     C_R   0.329159 0.500080 0.500094 0.541803
C5    C     C_R   0.187925 0.596360 0.433021 -0.131989
C6    C     C_R   0.481683 0.063716 0.625022 0.030736
C7    C     C_R   0.489271 0.129168 0.499535 0.000830
C8    C     C_R   0.483580 0.064226 0.372378 -0.152850
C9    C     C_R   0.483537 0.935457 0.372493 -0.153671
C10   C     C_R   0.488292 0.870612 0.499737 -0.029396
C11   C     C_R   0.480038 0.936115 0.625151 -0.032007
C12   C     C_R   0.907146 0.601044 0.436785 -0.029512
C13   C     C_3   0.534557 0.929225 0.757788 0.144052
C14   C     C_3   0.536710 0.070946 0.755831 -0.061317
C15   C     C_R   0.573704 0.537011 0.073660 0.182847
C16   C     C_R   0.497947 0.737614 0.500048 0.532785
C17   C     C_R   0.425176 0.472624 0.074233 -0.017562
C18   C     C_R   0.425069 0.473195 0.925883 0.016971
C19   C     C_R   0.573730 0.536796 0.926147 0.185628
C20   C     C_3   0.662752 0.476071 0.920727 -0.277334
C21   C     C_3   0.662831 0.476532 0.079001 -0.262336
C22   C     C_R   0.670909 0.499259 0.499939 0.515565
C23   C     C_R   0.956223 0.308547 0.631964 -0.097262
C24   C     C_R   0.813198 0.600726 0.438445 -0.017134
C25   C     C_R   0.767826 0.499990 0.499936 -0.053926
C26   C     C_R   0.813967 0.397359 0.555089 -0.007033
C27   C     C_R   0.907580 0.401185 0.561628 0.040154
C28   C     C_R   0.953882 0.501823 0.499945 0.006481
C29   C     C_2   0.760297 0.705133 0.379580 0.225703
C30   C     C_3   0.403031 0.851964 0.869599 0.010396
C31   C     C_3   0.366772 0.817846 0.013096 -0.371065
C32   C     C_2   0.490491 0.132815 0.877534 0.275203
C33   C     C_2   0.763296 0.284185 0.596365 0.196717
C34   C     C_R   0.048469 0.311521 0.635543 -0.144855
C35   C     C_3   0.118924 0.886095 0.417806 -0.030289
C36   C     C_3   0.049878 0.988783 0.430593 -0.362870
C37   C     C_R   0.094593 0.406857 0.569366 0.020307
C38   C     C_R   0.047699 0.503151 0.501918 0.019960
C39   C     C_R   0.094983 0.600649 0.436936 0.015514
C40   C     C_R   0.048516 0.700998 0.378893 0.259580
C41   C     C_R   0.955833 0.700177 0.378587 -0.078757
Cu1   Cu    Cu3+1 0.500000 0.499980 0.640670 0.956549
Cu2   Cu    Cu3+1 0.500000 0.500020 0.359330 0.949208
H1    H     H_    0.484812 0.887411 0.273087 0.159182
H2    H     H_    0.923835 0.234219 0.687905 0.165668
H3    H     H_    0.083848 0.238731 0.690117 0.110745
H4    H     H_    0.223752 0.334754 0.623046 0.124332
H5    H     H_    0.225714 0.668341 0.380860 0.145393
H6    H     H_    0.923372 0.779583 0.333231 0.191880
H7    H     H_    0.484161 0.112100 0.272809 0.146600
H8    H     H_    0.705034 0.742929 0.438966 0.117594
H9    H     H_    0.392598 0.772131 0.798271 0.163891
H10   H     H_    0.364786 0.933277 0.831354 0.162291
H11   H     H_    0.370442 0.899192 0.083884 0.156080
H12   H     H_    0.601311 0.888113 0.738885 0.133064
H13   H     H_    0.296248 0.788354 0.003893 0.110476
H14   H     H_    0.406139 0.740954 0.058658 0.170801
H15   H     H_    0.522251 0.132828 0.979418 0.110164
H16   H     H_    0.700406 0.291697 0.650935 0.118338
H17   H     H_    0.182434 0.928459 0.382703 0.152952
H18   H     H_    0.132293 0.845231 0.523012 0.116074
H19   H     H_    0.987503 0.952269 0.476998 0.156971
H20   H     H_    0.075848 0.063108 0.499553 0.109114
H21   H     H_    0.035379 0.028624 0.325974 0.181958
H22   H     H_    0.604229 0.109265 0.736123 0.072063
H23   H     H_    0.365093 0.446574 0.128828 0.134851
H24   H     H_    0.364890 0.447611 0.871399 0.149683
H25   H     H_    0.659867 0.381299 0.875717 0.130157
H26   H     H_    0.714463 0.537428 0.874750 0.145707
H27   H     H_    0.660324 0.382155 0.125240 0.151307
H28   H     H_    0.714564 0.538243 0.123873 0.187841
N1    N     N_R   0.500570 0.500930 0.147930 -0.245178
N2    N     N_R   0.500570 0.500890 0.852020 -0.232007
O1    O     O_R   0.500000 0.319640 0.618810 -0.475374
O2    O     O_3   0.494831 0.879098 0.881552 -0.554274
O3    O     O_2   0.418218 0.182865 0.863654 -0.526211
O4    O     O_2   0.789139 0.181314 0.562610 -0.526273
O5    O     O_3   0.092843 0.798383 0.315495 -0.564303
O6    O     O_R   0.500010 0.319680 0.381230 -0.506113
O7    O     O_R   0.370250 0.499950 0.618800 -0.513204
O8    O     O_R   0.370260 0.499990 0.381220 -0.513230
O9    O     O_R   0.499990 0.680320 0.618770 -0.497399
O10   O     O_R   0.500000 0.680360 0.381190 -0.499641
O11   O     O_R   0.629740 0.500010 0.618780 -0.527523
O12   O     O_R   0.629750 0.500050 0.381200 -0.491344
O13   O     O_2   0.774290 0.744249 0.261772 -0.520280

loop_
_geom_bond_atom_site_label_1
_geom_bond_atom_site_label_2
_ccdc_geom_bond_type
Cu1   O7    S    
Cu2   N1    S    
C23   H2    S    
C34   C37   A    
Cu2   O10   S    
C19   C20   S    
Cu1   O9    S    
C32   H15   S    
C7    C8    A    
C15   C19   A    
C15   N1    A    
C26   C27   A    
C12   C41   A    
C21   H28   S    
C1    O1    A    
C4    O7    A    
C30   C31   S    
Cu2   O6    S    
C22   O12   A    
C24   C29   S    
C4    O8    A    
C35   C36   S    
C8    C9    A    
C9    H1    S    
C22   C25   S    
C34   H3    S    
C23   C27   A    
C31   H13   S    
C36   H20   S    
C9    C10   A    
C33   H16   S    
C13   C14   S    
C36   H19   S    
C41   H6    S    
C30   H10   S    
C5    H5    S    
Cu1   O1    S    
Cu2   O12   S    
C13   O2    S    
C19   N2    A    
Cu1   O11   S    
C24   C25   A    
C39   C40   A    
C18   H24   S    
C16   O10   A    
C35   H17   S    
C22   O11   A    
C37   C38   A    
C6    C14   S    
C26   C33   S    
C28   C38   A    
C23   C34   A    
C16   O9    A    
C17   C18   A    
C17   H23   S    
C35   H18   S    
C29   O13   D    
C40   C41   A    
C12   C28   A    
C18   N2    A    
C5    C39   A    
C1    O6    A    
C40   O5    S    
C20   H26   S    
Cu1   Cu2   S    
C3    C4    S    
C8    H7    S    
C6    C11   A    
C29   H8    S    
C30   H9    S    
Cu1   N2    S    
C1    C7    S    
C20   H25   S    
C14   C32   S    
C3    C5    A    
C32   O3    D    
C6    C7    A    
C2    H4    S    
C12   C24   A    
C35   O5    S    
C21   H27   S    
C31   H14   S    
C2    C3    A    
C25   C26   A    
C10   C16   S    
C30   O2    S    
C11   C13   S    
C2    C37   A    
C33   O4    D    
C38   C39   A    
Cu2   O8    S    
C14   H22   S    
C31   H11   S    
C10   C11   A    
C15   C21   S    
C20   C21   S    
C17   N1    A    
C27   C28   A    
C36   H21   S    
C13   H12   S    
