data_mof_unit_61967.cif
_audit_creation_date              2012-12-10T16:51:56-0500
_audit_creation_method            fapswitch 2.2
_symmetry_space_group_name_H-M    P1
_symmetry_Int_Tables_number       1
_space_group_crystal_system       triclinic
_cell_length_a                    18.390163
_cell_length_b                    18.365798
_cell_length_c                    18.40952
_cell_angle_alpha                 90.817033
_cell_angle_beta                  119.685625
_cell_angle_gamma                 119.429312
_cell_volume                      4423.7012415

loop_
_atom_site_label
_atom_site_type_symbol
_atom_type_description
_atom_site_fract_x
_atom_site_fract_y
_atom_site_fract_z
_atom_type_partial_charge
C1    C     C_R   0.776982 0.638821 0.638604 0.856060
C2    C     C_2   0.112256 0.307746 0.303156 -0.289232
C3    C     C_2   0.432209 0.166842 0.722902 -0.274782
C4    C     C_R   0.222971 0.361584 0.361168 0.845820
C5    C     C_2   0.513366 0.195188 0.806722 0.405425
C6    C     C_2   0.436456 0.218890 0.663368 -0.120157
C7    C     C_2   0.492398 0.307848 0.694963 -0.236034
C8    C     C_2   0.056025 0.778619 0.718694 -0.159934
C9    C     C_2   0.112387 0.803289 0.807657 -0.294148
C10   C     C_2   0.943630 0.719924 0.662601 -0.158580
C11   C     C_2   0.887753 0.696751 0.695556 -0.292982
C12   C     C_3   0.594107 0.827205 0.801753 -0.291460
C13   C     C_2   0.438348 0.161064 0.221459 -0.166766
C14   C     C_2   0.508658 0.195513 0.204216 -0.286840
C15   C     C_2   0.442872 0.216781 0.281580 -0.166925
C16   C     C_R   0.498960 0.637964 0.360815 0.851177
C17   C     C_2   0.491675 0.304058 0.296552 -0.284665
C18   C     C_2   0.435351 0.773783 0.215681 -0.204235
C19   C     C_2   0.496473 0.800742 0.188135 -0.317165
C20   C     C_2   0.426676 0.710249 0.263833 0.019339
C21   C     C_2   0.500969 0.696482 0.308033 -0.343112
C22   C     C_R   0.502146 0.138935 0.861617 0.729274
C23   C     C_3   0.524170 0.790958 0.699099 0.552250
C24   C     C_R   0.499760 0.860983 0.137893 0.864444
C25   C     C_R   0.777106 0.138597 0.138832 0.853278
C26   C     C_R   0.223117 0.861225 0.861580 0.849108
C27   C     C_R   0.501361 0.140933 0.142238 0.862133
C28   C     C_R   0.498702 0.361548 0.638491 0.829987
C29   C     C_R   0.499988 0.858334 0.858223 0.802491
C30   C     C_R   0.498740 0.358980 0.357972 0.863833
C31   C     C_R   0.500036 0.641663 0.641732 0.832740
C32   C     C_3   0.569031 0.733213 0.801827 -0.175267
C33   C     C_3   0.475067 0.708133 0.801597 -0.148392
C34   C     C_3   0.430963 0.765759 0.698027 -0.044393
C35   C     C_3   0.499558 0.801125 0.800399 -0.054505
C36   C     C_3   0.661864 0.330023 0.915590 -0.285274
C37   C     C_1   0.334650 0.664581 0.261472 0.235350
C38   C     C_3   0.587883 0.919708 0.667221 -0.303827
C39   C     C_1   0.354691 0.782528 0.639888 0.222313
C40   C     C_3   0.406012 0.672449 0.698206 -0.282500
C41   C     C_3   0.500022 0.698586 0.699232 -0.034134
C42   C     C_2   0.943962 0.162537 0.219762 -0.161687
C43   C     C_2   0.887810 0.195432 0.196798 -0.293630
C44   C     C_2   0.056327 0.218772 0.278547 -0.163528
H1    H     H_    0.455038 0.674813 0.844990 0.144861
H2    H     H_    0.376601 0.090705 0.191808 0.182261
H3    H     H_    0.625335 0.718432 0.843757 0.164519
H4    H     H_    0.574634 0.264142 0.237200 0.148670
H5    H     H_    0.404343 0.185003 0.312851 0.181533
H6    H     H_    0.525293 0.336655 0.262196 0.147133
H7    H     H_    0.386573 0.796754 0.199682 0.182716
H8    H     H_    0.542212 0.775898 0.198478 0.154134
H9    H     H_    0.569159 0.731677 0.308996 0.147610
H10   H     H_    0.670872 0.890841 0.845098 0.145719
H11   H     H_    0.329356 0.608582 0.655349 0.156859
H12   H     H_    0.078201 0.343943 0.280054 0.154093
H13   H     H_    0.906709 0.091273 0.195725 0.176492
H14   H     H_    0.921700 0.265607 0.221257 0.151158
H15   H     H_    0.093784 0.184878 0.301217 0.176317
H16   H     H_    0.709409 0.315379 0.970980 0.204860
H17   H     H_    0.609637 0.335545 0.925859 0.142584
H18   H     H_    0.714777 0.396120 0.917221 0.181626
H19   H     H_    0.666217 0.957051 0.729755 0.157978
H20   H     H_    0.538401 0.932180 0.675191 0.160876
H21   H     H_    0.593912 0.945735 0.615036 0.201832
H22   H     H_    0.359685 0.103837 0.696735 0.139450
H23   H     H_    0.389144 0.183199 0.592502 0.169940
H24   H     H_    0.532705 0.343288 0.764506 0.176947
H25   H     H_    0.093121 0.801167 0.684726 0.179468
H26   H     H_    0.078631 0.780350 0.843874 0.151814
H27   H     H_    0.906088 0.696073 0.591304 0.178188
H28   H     H_    0.921883 0.720971 0.765772 0.150774
N1    N     N_1   0.261026 0.628205 0.259387 -0.192555
N2    N     N_1   0.294616 0.795799 0.594090 -0.196419
O1    O     O_3   0.500000 0.500000 0.500000 -0.495815
O2    O     O_R   0.270900 0.886160 0.946260 -0.646347
O3    O     O_R   0.560160 0.177420 0.117340 -0.650726
O4    O     O_R   0.729180 0.615300 0.675360 -0.642113
O5    O     O_R   0.440020 0.882760 0.822680 -0.642287
O6    O     O_R   0.439990 0.057240 0.117340 -0.646129
O7    O     O_R   0.560190 0.882760 0.942820 -0.637770
O8    O     O_R   0.729270 0.053840 0.113900 -0.642184
O9    O     O_R   0.270910 0.884750 0.824690 -0.639358
O10   O     O_R   0.560170 0.175430 0.946260 -0.649096
O11   O     O_R   0.440000 0.886160 0.115330 -0.642477
O12   O     O_R   0.439910 0.615300 0.386140 -0.621484
O13   O     O_R   0.270820 0.446200 0.386140 -0.641817
O14   O     O_R   0.560090 0.613880 0.384720 -0.645023
O15   O     O_R   0.439920 0.324620 0.553780 -0.644916
O16   O     O_R   0.560100 0.442800 0.382710 -0.648611
O17   O     O_R   0.560070 0.617290 0.677370 -0.656197
O18   O     O_R   0.439930 0.322630 0.382710 -0.647244
O19   O     O_R   0.439900 0.617290 0.557220 -0.617827
O20   O     O_3   0.609992 0.266471 0.833217 -0.602073
O21   O     O_3   0.546433 0.828420 0.640376 -0.605703
O22   O     O_R   0.560080 0.446200 0.675360 -0.643687
O23   O     O_R   0.729180 0.613880 0.553780 -0.641274
O24   O     O_R   0.270820 0.324620 0.384720 -0.646348
O25   O     O_3   0.500090 0.000040 0.000040 -0.487025
O26   O     O_R   0.440010 0.053840 0.824690 -0.653336
O27   O     O_R   0.560180 0.884750 0.113900 -0.647206
O28   O     O_R   0.729260 0.175430 0.115330 -0.647326
Zn1   Zn    Zn3+2 0.414150 0.543930 0.458110 1.001506
Zn2   Zn    Zn3+2 0.585850 0.541910 0.456060 0.971079
Zn3   Zn    Zn3+2 0.414160 0.370220 0.456060 0.959261
Zn4   Zn    Zn3+2 0.585840 0.543930 0.629770 0.971647
Zn5   Zn    Zn3+2 0.585940 0.956110 0.041940 0.967838
Zn6   Zn    Zn3+2 0.585930 0.129820 0.043980 0.960363
Zn7   Zn    Zn3+2 0.414240 0.958130 0.043980 0.964774
Zn8   Zn    Zn3+2 0.414250 0.956110 0.870280 0.972629

loop_
_geom_bond_atom_site_label_1
_geom_bond_atom_site_label_2
_ccdc_geom_bond_type
O27   Zn5   S    
O1    Zn1   S    
O7    Zn5   S    
O26   Zn8   S    
C26   O9    A    
C17   C30   S    
C4    O24   A    
C33   H1    S    
C1    C11   S    
C30   O16   A    
C3    C6    S    
C25   C43   S    
C5    O20   S    
C4    O13   A    
O25   Zn6   S    
C12   C23   S    
C8    H25   S    
C16   C21   S    
O24   Zn3   S    
C34   C40   S    
C24   O27   A    
O11   Zn7   S    
C13   H2    S    
C25   O28   A    
C44   H15   S    
O25   Zn7   S    
C34   C35   S    
C39   N2    T    
C37   N1    T    
C43   H14   S    
O10   Zn6   S    
C7    H24   S    
C19   H8    S    
C5    C22   S    
C2    C44   D    
O2    Zn7   S    
C38   O21   S    
C9    C26   S    
C26   O2    A    
C32   C41   S    
O28   Zn6   S    
C28   O15   A    
C14   C27   S    
C24   O11   A    
C10   H27   S    
C23   C34   S    
C13   C14   D    
C12   C32   S    
C16   O12   A    
C1    O4    A    
O17   Zn4   S    
O19   Zn1   S    
C42   C44   S    
C36   H18   S    
O12   Zn1   S    
C42   H13   S    
O14   Zn2   S    
C18   H7    S    
C38   H20   S    
C33   C40   S    
C22   O26   A    
C34   C39   S    
C9    H26   S    
C30   O18   A    
C27   O6    A    
C1    O23   A    
C11   H28   S    
C18   C19   D    
C14   H4    S    
C27   O3    A    
C31   O19   A    
O25   Zn8   S    
C7    C28   S    
C22   O10   A    
O6    Zn7   S    
C2    C4    S    
C29   O7    A    
C29   O5    A    
C38   H21   S    
C40   H11   S    
C8    C9    D    
O9    Zn8   S    
O8    Zn5   S    
C12   C35   S    
O16   Zn2   S    
O13   Zn1   S    
C6    H23   S    
O1    Zn3   S    
C31   O17   A    
C13   C15   S    
O1    Zn2   S    
C32   H3    S    
C3    H22   S    
C42   C43   D    
C36   H17   S    
C38   H19   S    
C15   C17   D    
O22   Zn4   S    
C40   C41   S    
C31   C41   S    
O5    Zn8   S    
O3    Zn6   S    
C3    C5    D    
C17   H6    S    
C6    C7    D    
O25   Zn5   S    
C29   C35   S    
C23   C41   S    
O4    Zn4   S    
C28   O22   A    
C32   C33   S    
C19   C24   S    
C2    H12   S    
C21   H9    S    
C20   C37   S    
C25   O8    A    
C33   C35   S    
C23   O21   S    
C18   C20   S    
C15   H5    S    
O23   Zn2   S    
C10   C11   D    
C36   O20   S    
O18   Zn3   S    
C20   C21   D    
O1    Zn4   S    
C8    C10   S    
O15   Zn3   S    
C16   O14   A    
C36   H16   S    
C12   H10   S    
