data_mof_unit_19307.cif
_audit_creation_date              2012-12-10T18:32:54-0500
_audit_creation_method            fapswitch 2.2
_symmetry_space_group_name_H-M    P1
_symmetry_Int_Tables_number       1
_space_group_crystal_system       triclinic
_cell_length_a                    14.994131
_cell_length_b                    15.402522
_cell_length_c                    15.761601
_cell_angle_alpha                 90.569002
_cell_angle_beta                  104.425646
_cell_angle_gamma                 82.632899
_cell_volume                      3495.31506106

loop_
_atom_site_label
_atom_site_type_symbol
_atom_type_description
_atom_site_fract_x
_atom_site_fract_y
_atom_site_fract_z
_atom_type_partial_charge
C1    C     C_R   0.442316 0.662651 0.488787 0.872018
C2    C     C_R   0.592216 0.244768 0.536602 -0.078231
C3    C     C_R   0.287791 0.865690 0.527610 0.103515
C4    C     C_R   0.500984 0.500355 0.661638 0.905735
C5    C     C_R   0.319240 0.779051 0.509116 -0.251093
C6    C     C_R   0.469241 0.818348 0.505340 0.041806
C7    C     C_R   0.447229 0.899068 0.541671 0.036648
C8    C     C_R   0.353567 0.927719 0.544851 0.064284
C9    C     C_R   0.516323 0.954700 0.568713 0.086587
C10   C     C_R   0.489188 0.044394 0.566938 0.039639
C11   C     C_R   0.398237 0.074627 0.571358 -0.281413
C12   C     C_3   0.417332 0.534138 0.031156 -0.552361
C13   C     C_R   0.331476 0.017386 0.564307 0.075753
C14   C     C_R   0.611205 0.923203 0.601092 -0.266643
C15   C     C_R   0.678379 0.980700 0.621003 0.090999
C16   C     C_R   0.557826 0.337357 0.513614 0.885749
C17   C     C_R   0.651532 0.071133 0.600405 0.128890
C18   C     C_R   0.555545 0.101027 0.565855 -0.024757
C19   C     C_R   0.716103 0.132494 0.610351 0.119562
C20   C     C_R   0.684955 0.219343 0.581398 -0.328851
C21   C     C_R   0.529027 0.183451 0.522997 0.060419
C22   C     C_R   0.840968 0.639330 0.633473 -0.302399
C23   C     C_3   0.512212 0.487963 0.085793 0.292892
C24   C     C_R   0.751192 0.617713 0.606727 -0.014752
C25   C     C_R   0.797552 0.506135 0.516498 -0.062950
C26   C     C_R   0.890728 0.523575 0.542508 -0.052775
C27   C     C_R   0.911817 0.592846 0.601024 0.176953
C28   C     C_R   0.499308 0.499147 0.338372 0.904127
C29   C     C_R   0.961773 0.476749 0.509236 0.077153
C30   C     C_R   0.051498 0.504775 0.527068 0.086109
C31   C     C_R   0.070672 0.572740 0.586975 -0.298155
C32   C     C_R   0.002614 0.615043 0.625137 0.089813
C33   C     C_R   0.945531 0.402317 0.458419 -0.235607
C34   C     C_3   0.524555 0.391791 0.052725 -0.070192
C35   C     C_R   0.007294 0.367364 0.411890 -0.218565
C36   C     C_R   0.089305 0.403322 0.416492 0.102857
C37   C     C_R   0.117495 0.465079 0.482013 -0.016964
C38   C     C_R   0.144998 0.377038 0.358739 -0.000085
C39   C     C_R   0.237872 0.393674 0.381922 0.207821
C40   C     C_3   0.413948 0.532489 0.932421 -0.069147
C41   C     C_R   0.209645 0.485312 0.497728 -0.116744
C42   C     C_3   0.587374 0.542943 0.971756 -0.456677
C43   C     C_3   0.590234 0.541433 0.071092 -0.028865
C44   C     C_1   0.500105 0.494222 0.249703 -0.219516
C45   C     C_3   0.530060 0.393869 0.953993 -0.087827
C46   C     C_3   0.510046 0.491569 0.919331 0.248342
C47   C     C_3   0.186248 0.890551 0.529865 -0.378584
C48   C     C_3   0.122256 0.818562 0.506958 -0.394912
C49   C     C_3   0.022344 0.853631 0.507308 -0.877935
C50   C     C_3   0.105618 0.338223 0.269316 -0.422237
C51   C     C_3   0.102811 0.402451 0.194349 -0.306693
C52   C     C_3   0.060486 0.365659 0.105194 -0.913618
C53   C     C_3   0.691816 0.512311 0.124962 -0.410870
C54   C     C_3   0.709149 0.525927 0.224189 -0.332310
C55   C     C_3   0.812335 0.526517 0.267025 -0.883330
C56   C     C_1   0.505512 0.490427 0.175800 -0.104775
C57   C     C_3   0.621058 0.343624 0.935745 -0.370927
C58   C     C_3   0.609803 0.248757 0.908217 -0.370910
C59   C     C_3   0.699676 0.200578 0.892704 -0.874331
C60   C     C_1   0.506756 0.495878 0.826909 -0.066943
C61   C     C_1   0.504147 0.498632 0.751139 -0.189792
C62   C     C_R   0.408599 0.755264 0.497580 -0.142254
H1    H     H_    0.405406 0.602643 0.053218 0.185493
H2    H     H_    0.854179 0.692276 0.678739 0.165434
H3    H     H_    0.696572 0.652635 0.632334 0.130681
H4    H     H_    0.774456 0.457463 0.469515 0.129535
H5    H     H_    0.655115 0.514527 0.959788 0.165010
H6    H     H_    0.137688 0.595568 0.605001 0.136866
H7    H     H_    0.884888 0.369724 0.452576 0.139162
H8    H     H_    0.576245 0.611888 0.947171 0.165150
H9    H     H_    0.572226 0.610459 0.089146 0.136847
H10   H     H_    0.471196 0.360883 0.915789 0.116133
H11   H     H_    0.460712 0.362404 0.054511 0.112332
H12   H     H_    0.361336 0.489652 0.900065 0.142620
H13   H     H_    0.600296 0.271920 0.092054 0.182303
H14   H     H_    0.595301 0.337735 0.174286 0.185296
H15   H     H_    0.214349 0.103627 0.529082 0.183276
H16   H     H_    0.251063 0.079437 0.637722 0.187683
H17   H     H_    0.434484 0.143140 0.416695 0.190370
H18   H     H_    0.388543 0.220750 0.477963 0.193102
H19   H     H_    0.793268 0.899446 0.613884 0.187018
H20   H     H_    0.777687 0.912690 0.716055 0.177963
H21   H     H_    0.019115 0.879475 0.572675 0.261800
H22   H     H_    0.994260 0.906682 0.456918 0.262070
H23   H     H_    0.359363 0.500872 0.042418 0.174047
H24   H     H_    0.978332 0.799936 0.492277 0.257652
H25   H     H_    0.122582 0.793558 0.440600 0.231836
H26   H     H_    0.146736 0.763747 0.555910 0.216905
H27   H     H_    0.184582 0.912390 0.596932 0.220863
H28   H     H_    0.155890 0.945353 0.481838 0.222092
H29   H     H_    0.523287 0.782796 0.401271 0.186908
H30   H     H_    0.600979 0.764593 0.500768 0.207911
H31   H     H_    0.315211 0.639288 0.892801 0.182242
H32   H     H_    0.423469 0.665709 0.927317 0.190650
H33   H     H_    0.850738 0.122112 0.606618 0.183338
H34   H     H_    0.734143 0.266572 0.592959 0.172947
H35   H     H_    0.830988 0.147718 0.705518 0.179982
H36   H     H_    0.079764 0.654482 0.739597 0.184251
H37   H     H_    0.050860 0.730742 0.657812 0.193367
H38   H     H_    0.366889 0.355884 0.362248 0.261652
H39   H     H_    0.294092 0.287058 0.328623 0.148026
H40   H     H_    0.102059 0.303171 0.094972 0.263941
H41   H     H_    0.987846 0.354042 0.100661 0.259642
H42   H     H_    0.060027 0.413238 0.052568 0.250069
H43   H     H_    0.060307 0.465166 0.202596 0.220042
H44   H     H_    0.173707 0.416663 0.195091 0.241550
H45   H     H_    0.274329 0.728698 0.502769 0.166995
H46   H     H_    0.147003 0.274814 0.261852 0.196154
H47   H     H_    0.033657 0.323796 0.260321 0.197417
H48   H     H_    0.852538 0.463130 0.257049 0.266537
H49   H     H_    0.839222 0.580624 0.239045 0.257628
H50   H     H_    0.822300 0.536789 0.338331 0.261236
H51   H     H_    0.670601 0.589056 0.237475 0.225431
H52   H     H_    0.685793 0.471529 0.255087 0.238619
H53   H     H_    0.715644 0.443433 0.112466 0.225196
H54   H     H_    0.737018 0.552664 0.100367 0.201566
H55   H     H_    0.720336 0.234167 0.839891 0.260738
H56   H     H_    0.379981 0.142181 0.586512 0.152670
H57   H     H_    0.756318 0.197815 0.953774 0.257857
H58   H     H_    0.689098 0.132634 0.872415 0.253280
H59   H     H_    0.589031 0.212376 0.959005 0.218039
H60   H     H_    0.554331 0.249085 0.846387 0.220247
H61   H     H_    0.640481 0.375865 0.881536 0.199938
H62   H     H_    0.681548 0.344950 0.992776 0.221300
H63   H     H_    0.633383 0.854153 0.615603 0.146804
H64   H     H_    0.237435 0.529297 0.547991 0.146189
H65   H     H_    0.990551 0.309930 0.374500 0.135448
N1    N     N_R   0.731690 0.552720 0.548990 -0.093460
N2    N     N_3   0.025879 0.682024 0.687611 -0.482817
N3    N     N_3   0.298523 0.354209 0.330553 -0.456064
N4    N     N_R   0.268300 0.447240 0.450950 -0.122147
N5    N     N_3   0.603476 0.336984 0.110367 -0.467837
N6    N     N_3   0.242124 0.052809 0.575336 -0.497810
N7    N     N_3   0.445691 0.199608 0.453111 -0.471573
N8    N     N_3   0.773439 0.945506 0.657144 -0.432561
N9    N     N_3   0.545541 0.807378 0.464037 -0.455628
N10   N     N_3   0.384279 0.620149 0.891231 -0.451661
N11   N     N_3   0.812728 0.108377 0.651077 -0.432170
O1    O     O_R   0.383120 0.605620 0.475300 -0.614047
O2    O     O_R   0.531890 0.639510 0.506740 -0.627000
O3    O     O_R   0.425580 0.483050 0.607130 -0.615063
O4    O     O_R   0.574360 0.516930 0.638570 -0.613398
O5    O     O_R   0.468110 0.360490 0.493260 -0.623536
O6    O     O_R   0.616880 0.394380 0.524700 -0.622736
O7    O     O_R   0.425640 0.483070 0.361430 -0.617587
O8    O     O_R   0.574420 0.516950 0.392870 -0.618338
Zn1   Zn    Zn3+2 0.400660 0.477370 0.479010 0.929590
Zn2   Zn    Zn3+2 0.599340 0.522630 0.520990 0.927823

loop_
_geom_bond_atom_site_label_1
_geom_bond_atom_site_label_2
_ccdc_geom_bond_type
C52   H41   S    
C59   H58   S    
C55   H50   S    
C18   C21   A    
C11   C13   A    
C21   N7    S    
C35   C36   A    
O6    Zn2   S    
C1    C62   S    
O2    Zn2   S    
H18   N7    S    
C7    C8    A    
C45   C46   S    
O5    Zn1   S    
C12   C23   S    
C45   C57   S    
C26   C27   A    
C8    C13   A    
C14   H63   S    
C12   H23   S    
C49   H22   S    
C36   C37   A    
C16   O6    A    
C25   N1    A    
C19   N11   S    
C4    O4    A    
C30   C31   A    
H38   N3    S    
C15   N8    S    
C54   H51   S    
C29   C33   A    
C42   H8    S    
C23   C43   S    
C7    C9    A    
C42   C46   S    
H20   N8    S    
C6    N9    S    
C17   C19   A    
C43   C53   S    
H29   N9    S    
C47   C48   S    
C58   H59   S    
C43   H9    S    
C48   H26   S    
N4    Zn1   S    
C2    C16   S    
C9    C10   A    
C1    O1    A    
C53   H54   S    
C33   H7    S    
C46   C60   S    
H39   N3    S    
C20   H34   S    
C34   N5    S    
C59   H55   S    
C45   H10   S    
C50   H46   S    
C47   H27   S    
H30   N9    S    
H15   N6    S    
C41   H64   S    
C32   N2    S    
O7    Zn1   S    
H19   N8    S    
O8    Zn2   S    
C31   H6    S    
C58   H60   S    
H37   N2    S    
C2    C20   A    
C51   C52   S    
O4    Zn2   S    
C23   C56   S    
C16   O5    A    
C3    C8    A    
C4    O3    A    
C41   N4    A    
C12   H1    S    
N1    Zn2   S    
C50   C51   S    
C58   C59   S    
C53   C54   S    
C4    C61   S    
C28   C44   S    
C50   H47   S    
C30   C37   A    
C60   C61   T    
C12   C40   S    
C40   C46   S    
C9    C14   A    
C29   C30   A    
C57   H61   S    
C44   C56   T    
C31   C32   A    
C51   H43   S    
C23   C34   S    
C52   H40   S    
C40   N10   S    
C2    C21   A    
C17   C18   A    
C28   O7    A    
C48   H25   S    
C34   C45   S    
C35   H65   S    
C1    O2    A    
C24   H3    S    
O1    Zn1   S    
C48   C49   S    
C22   C27   A    
C55   H48   S    
C42   H5    S    
C47   H28   S    
C22   C24   A    
C42   C43   S    
H35   N11   S    
H13   N5    S    
C5    H45   S    
C15   C17   A    
H17   N7    S    
C54   C55   S    
C52   H42   S    
H33   N11   S    
C59   H57   S    
C55   H49   S    
C27   C32   A    
C13   N6    S    
C49   H24   S    
C25   H4    S    
C3    C5    A    
C6    C7    A    
C38   C50   S    
C39   N3    S    
C28   O8    A    
C49   H21   S    
C19   C20   A    
C36   C38   A    
C25   C26   A    
C57   H62   S    
H14   N5    S    
C6    C62   A    
C57   C58   S    
C38   C39   A    
C39   N4    A    
C10   C18   A    
C51   H44   S    
C54   H52   S    
H36   N2    S    
C3    C47   S    
C33   C35   A    
C40   H12   S    
C5    C62   A    
C37   C41   A    
H16   N6    S    
H31   N10   S    
C10   C11   A    
O3    Zn1   S    
C34   H11   S    
C22   H2    S    
C26   C29   A    
C24   N1    A    
H32   N10   S    
C14   C15   A    
C11   H56   S    
C53   H53   S    
