data_mof_unit_6038.cif
_audit_creation_date              2013-03-05T15:44:28-0500
_audit_creation_method            fapswitch 2.2
_symmetry_space_group_name_H-M    P1
_symmetry_Int_Tables_number       1
_space_group_crystal_system       triclinic
_cell_length_a                    20.192409
_cell_length_b                    7.291609
_cell_length_c                    19.428584
_cell_angle_alpha                 89.949193
_cell_angle_beta                  98.353346
_cell_angle_gamma                 90.032812
_cell_volume                      2830.22118525

loop_
_atom_site_label
_atom_site_type_symbol
_atom_site_description
_atom_site_fract_x
_atom_site_fract_y
_atom_site_fract_z
_atom_type_partial_charge
O1    O     O_R   0.673210 0.377390 0.686390 -0.539879
O2    O     O_R   0.326790 0.622610 0.313610 -0.539867
O3    O     O_R   0.826790 0.877390 0.813610 -0.539813
O4    O     O_R   0.173210 0.122610 0.186390 -0.539813
O5    O     O_R   0.810750 0.706450 0.681250 -0.537755
O6    O     O_R   0.189250 0.293550 0.318750 -0.537756
O7    O     O_R   0.689250 0.206450 0.818750 -0.537483
O8    O     O_R   0.310750 0.793550 0.181250 -0.537475
C1    C     C_R   0.831006 0.538000 0.665958 0.855098
C2    C     C_R   0.168992 0.462002 0.334039 0.855100
C3    C     C_R   0.668952 0.037852 0.833994 0.854998
C4    C     C_R   0.331042 0.962147 0.165999 0.854992
O9    O     O_R   0.672750 0.707060 0.678240 -0.535420
O10   O     O_R   0.327250 0.292940 0.321760 -0.535416
O11   O     O_R   0.827250 0.207060 0.821760 -0.535321
O12   O     O_R   0.172750 0.792940 0.178240 -0.535327
O13   O     O_R   0.687800 0.877990 0.810580 -0.541737
O14   O     O_R   0.312200 0.122010 0.189420 -0.541736
O15   O     O_R   0.812200 0.377990 0.689420 -0.541661
O16   O     O_R   0.187800 0.622010 0.310580 -0.541668
C5    C     C_R   0.649401 0.539194 0.660651 0.868112
C6    C     C_R   0.350599 0.460808 0.339353 0.868098
C7    C     C_R   0.850646 0.039192 0.839295 0.868087
C8    C     C_R   0.149352 0.960805 0.160707 0.868068
O17   O     O_3   0.755100 0.544060 0.793420 -0.271674
O18   O     O_3   0.244900 0.455940 0.206580 -0.271674
O19   O     O_3   0.744900 0.044060 0.706580 -0.271822
O20   O     O_3   0.255100 0.955940 0.293420 -0.271821
V1    V     V_3+5 0.749050 0.818670 0.741950 1.245354
V2    V     V_3+5 0.250950 0.181330 0.258050 1.245351
V3    V     V_3+5 0.750950 0.318670 0.758050 1.245369
V4    V     V_3+5 0.249050 0.681330 0.241950 1.245377
C9    C     C_R   0.086899 0.969303 0.109507 -0.184243
C10   C     C_R   0.913098 0.030680 0.890492 -0.184236
C11   C     C_R   0.413036 0.469342 0.390559 -0.184337
C12   C     C_R   0.586959 0.530674 0.609457 -0.184284
C13   C     C_R   0.031164 0.948190 0.915871 0.351537
C14   C     C_R   0.968827 0.051719 0.084128 0.351540
C15   C     C_R   0.468746 0.449351 0.584267 0.351377
C16   C     C_R   0.531241 0.550744 0.415766 0.351407
C17   C     C_R   0.972841 0.976276 0.867758 0.105253
C18   C     C_R   0.027150 0.023655 0.132242 0.105255
C19   C     C_R   0.527160 0.476982 0.632306 0.105192
C20   C     C_R   0.472837 0.523068 0.367721 0.105225
C21   C     C_R   0.914592 0.084040 0.960624 0.155467
C22   C     C_R   0.085406 0.915923 0.039377 0.155470
C23   C     C_R   0.585557 0.583348 0.539230 0.155366
C24   C     C_R   0.414428 0.416726 0.460794 0.155497
C25   C     C_R   0.970523 0.035728 0.011346 -0.106113
C26   C     C_R   0.029473 0.964217 0.988653 -0.106110
C27   C     C_R   0.529534 0.535295 0.488594 -0.106088
C28   C     C_R   0.470450 0.464785 0.511435 -0.105996
C29   C     C_R   0.549143 0.012675 0.854940 0.160468
C30   C     C_R   0.450852 0.987229 0.145053 0.160436
C31   C     C_R   0.950801 0.514752 0.644996 0.160128
C32   C     C_R   0.049191 0.485272 0.354988 0.160125
C33   C     C_R   0.617923 0.024060 0.881517 -0.146970
C34   C     C_R   0.382071 0.975925 0.118475 -0.146969
C35   C     C_R   0.882005 0.524594 0.618406 -0.146722
C36   C     C_R   0.117987 0.475424 0.381585 -0.146725
C37   C     C_R   0.638865 0.997959 0.952620 0.153911
C38   C     C_R   0.361134 0.002012 0.047370 0.153951
C39   C     C_R   0.861083 0.496653 0.547402 0.153256
C40   C     C_R   0.138904 0.503466 0.452581 0.153268
C41   C     C_R   0.592587 0.013291 0.000220 -0.055920
C42   C     C_R   0.407413 0.986666 0.999774 -0.055919
C43   C     C_R   0.907330 0.511441 0.499698 -0.056161
C44   C     C_R   0.092658 0.488700 0.500280 -0.056200
C45   C     C_R   0.523211 0.003886 0.975525 -0.058436
C46   C     C_R   0.476788 0.996046 0.024470 -0.058434
C47   C     C_R   0.976757 0.504224 0.524441 -0.058314
C48   C     C_R   0.023229 0.495892 0.475535 -0.058314
C49   C     C_R   0.500561 0.998525 0.902127 -0.058034
C50   C     C_R   0.499440 0.001274 0.097868 -0.058051
C51   C     C_R   0.999436 0.501704 0.597855 -0.058240
C52   C     C_R   0.000548 0.498407 0.402120 -0.058219
C53   C     C_R   0.614574 0.036661 0.071956 0.279559
C54   C     C_R   0.385429 0.963097 0.928047 0.279597
C55   C     C_R   0.885281 0.531530 0.427809 0.279135
C56   C     C_R   0.114708 0.468690 0.572171 0.279126
C57   C     C_R   0.569290 0.023879 0.120325 0.278293
C58   C     C_R   0.430720 0.975643 0.879676 0.278436
C59   C     C_R   0.930593 0.517613 0.379543 0.277635
C60   C     C_R   0.069393 0.482596 0.620431 0.277629
I1    I     I_    0.157567 0.714507 0.018425 -0.120936
I2    I     I_    0.842426 0.285428 0.981588 -0.120960
I3    I     I_    0.341788 0.216838 0.482136 -0.121363
I4    I     I_    0.658166 0.783359 0.517911 -0.121453
I5    I     I_    0.021108 0.017630 0.241508 -0.177241
I6    I     I_    0.978875 0.982224 0.758490 -0.177254
I7    I     I_    0.478649 0.517017 0.258400 -0.176208
I8    I     I_    0.521384 0.483196 0.741635 -0.176139
N1    N     N_R   0.093292 0.927909 0.889542 0.133192
O21   O     O_R   0.103897 0.784806 0.852767 -0.189457
O22   O     O_R   0.135397 0.063844 0.894303 -0.214520
N2    N     N_R   0.906692 0.071915 0.110451 0.133204
O23   O     O_R   0.896066 0.214974 0.147241 -0.189440
O24   O     O_R   0.864600 0.935947 0.105665 -0.214514
N3    N     N_R   0.406566 0.430463 0.610669 0.133705
O25   O     O_R   0.395846 0.288976 0.648351 -0.189826
O26   O     O_R   0.364448 0.566322 0.604886 -0.214635
N4    N     N_R   0.593413 0.569803 0.389368 0.133579
O27   O     O_R   0.604139 0.711587 0.351840 -0.189790
O28   O     O_R   0.635426 0.433707 0.394840 -0.214412
I9    I     I_    0.528125 0.990226 0.742739 -0.190605
I10   I     I_    0.471857 0.010057 0.257244 -0.190600
I11   I     I_    0.971738 0.489108 0.757135 -0.190989
I12   I     I_    0.028259 0.510736 0.242848 -0.191046
I13   I     I_    0.732774 0.860364 0.981733 -0.145098
I14   I     I_    0.267219 0.139535 0.018227 -0.145044
I15   I     I_    0.767395 0.356980 0.519001 -0.146727
I16   I     I_    0.232559 0.643320 0.480951 -0.146638
N5    N     N_R   0.681617 0.098783 0.095726 0.138519
O29   O     O_R   0.703364 0.248743 0.070348 -0.256852
O30   O     O_R   0.719744 0.012339 0.145057 -0.144674
N6    N     N_R   0.318404 0.900762 0.904317 0.138524
O31   O     O_R   0.296710 0.750839 0.929772 -0.256983
O32   O     O_R   0.280242 0.986982 0.854951 -0.144702
N7    N     N_R   0.817974 0.590542 0.403522 0.138619
O33   O     O_R   0.795622 0.741388 0.427495 -0.254546
O34   O     O_R   0.780255 0.500565 0.354912 -0.144920
N8    N     N_R   0.182027 0.409788 0.596468 0.138641
O35   O     O_R   0.204404 0.258943 0.572522 -0.254516
O36   O     O_R   0.219733 0.499873 0.645056 -0.144918
N9    N     N_R   0.596229 0.041231 0.192119 0.131022
O37   O     O_R   0.611289 0.203287 0.217801 -0.203292
O38   O     O_R   0.621424 0.897116 0.225752 -0.177036
N10   N     N_R   0.403837 0.957073 0.807911 0.130987
O39   O     O_R   0.389201 0.794484 0.782543 -0.204058
O40   O     O_R   0.378290 0.100355 0.773983 -0.176583
N11   N     N_R   0.903382 0.526966 0.307603 0.131325
O41   O     O_R   0.885744 0.685350 0.279815 -0.199222
O42   O     O_R   0.880364 0.377785 0.276027 -0.179795
N12   N     N_R   0.096604 0.473411 0.692372 0.131335
O43   O     O_R   0.114315 0.315144 0.720191 -0.199172
O44   O     O_R   0.119560 0.622663 0.723911 -0.179878

loop_
_geom_bond_atom_site_label_1
_geom_bond_atom_site_label_2
_geom_bond_distance
_ccdc_geom_bond_type
C34   C38   1.397602 A    
C55   C59   1.405836 A    
O1    C5    1.342727 A    
N1    O21   1.300456 A    
C32   C52   1.440169 A    
C31   C35   1.411842 A    
O19   V1    1.778095 S    
O13   V1    1.993847 S    
O3    C7    1.342959 A    
C56   C60   1.405787 A    
O15   V3    1.993029 S    
N10   O39   1.301567 A    
C5    C12   1.489476 S    
C56   N8    1.438392 S    
O7    C3    1.342031 A    
C6    C11   1.489544 S    
C60   N12   1.427127 S    
C9    C18   1.401235 A    
C40   C44   1.411936 A    
O9    V1    2.003593 S    
C14   C18   1.408091 A    
C30   C34   1.412060 A    
O4    C8    1.342978 A    
C51   C60   1.423841 A    
C40   I16   2.148484 S    
O1    V3    1.987593 S    
N6    O31   1.301131 A    
C12   C23   1.413437 A    
O2    V4    1.987595 S    
C33   C37   1.397596 A    
O3    V1    1.987741 S    
C46   C50   1.433446 A    
C32   I12   2.166044 S    
C30   C50   1.440322 A    
C1    O15   1.327434 A    
C2    O16   1.327420 A    
N2    O24   1.300076 A    
O2    C6    1.342734 A    
C45   C49   1.433452 A    
O14   V2    1.993847 S    
C53   C57   1.406168 A    
C16   C20   1.408196 A    
C44   C48   1.415462 A    
C22   I1    2.149797 S    
C4    C34   1.483409 S    
O11   C7    1.338148 A    
C15   C28   1.424773 A    
C37   I13   2.147513 S    
O12   C8    1.338139 A    
C13   C17   1.408088 A    
C9    C22   1.413477 A    
C45   C46   1.430060 A    
C10   C17   1.401228 A    
O10   V2    2.003591 S    
C53   N5    1.438457 S    
C11   C24   1.413498 A    
C52   C59   1.423863 A    
O5    V1    2.010554 S    
N7    O34   1.301527 A    
C42   C54   1.410380 A    
C39   C43   1.412025 A    
C41   C53   1.410382 A    
C38   C42   1.411481 A    
C13   N1    1.429743 S    
C27   C28   1.427363 A    
O8    V4    2.009119 S    
O7    V3    2.009120 S    
C14   C25   1.424313 A    
C30   I10   2.165798 S    
O18   V4    1.779132 S    
C15   C19   1.408253 A    
C32   C36   1.411888 A    
C31   I11   2.166154 S    
C1    C35   1.483342 S    
C2    C36   1.483341 S    
O5    C1    1.341918 A    
C37   C41   1.411514 A    
C54   C58   1.406207 A    
C15   N3    1.430152 S    
N3    O25   1.300632 A    
C38   I14   2.147451 S    
C21   C25   1.430801 A    
O8    C4    1.342025 A    
C7    C10   1.489653 S    
N2    O23   1.300458 A    
C4    O14   1.327523 A    
C24   I3    2.149619 S    
O9    C5    1.338109 A    
C48   C52   1.433415 A    
C10   C21   1.413458 A    
N4    O28   1.300130 A    
C11   C20   1.401169 A    
C58   N10   1.427376 S    
C20   I7    2.144655 S    
N6    O32   1.301412 A    
O6    V2    2.010553 S    
N9    O37   1.301643 A    
C55   N7    1.438376 S    
C50   C57   1.424049 A    
N8    O36   1.301533 A    
C44   C56   1.410474 A    
C49   C58   1.424091 A    
N5    O29   1.301134 A    
O16   V4    1.993029 S    
C3    O13   1.327508 A    
C29   C33   1.412070 A    
C57   N9    1.427341 S    
C29   C49   1.440315 A    
O17   V3    1.779132 S    
C54   N6    1.438472 S    
C8    C9    1.489672 S    
N11   O42   1.301297 A    
N10   O40   1.301051 A    
O6    C2    1.341930 A    
C23   C27   1.430771 A    
N7    O33   1.301156 A    
O11   V3    2.003417 S    
N12   O43   1.301915 A    
O12   V4    2.003417 S    
C16   C27   1.424719 A    
C22   C26   1.430811 A    
C35   C39   1.397891 A    
C19   I8    2.144675 S    
C36   C40   1.397838 A    
C18   I5    2.144415 S    
C23   I4    2.149646 S    
O10   C6    1.338137 A    
O20   V2    1.778094 S    
C59   N11   1.427182 S    
C31   C51   1.440105 A    
C47   C48   1.430512 A    
C47   C51   1.433407 A    
C13   C26   1.424324 A    
C42   C46   1.414905 A    
C41   C45   1.414928 A    
N12   O44   1.301073 A    
C21   I2    2.149792 S    
C43   C47   1.415414 A    
C39   I15   2.148500 S    
N4    O27   1.300636 A    
C16   N4    1.430080 S    
C29   I9    2.165789 S    
C24   C28   1.430824 A    
N1    O22   1.300076 A    
C25   C26   1.427152 A    
C14   N2    1.429748 S    
N9    O38   1.301102 A    
C12   C19   1.401162 A    
N8    O35   1.301136 A    
C3    C33   1.483401 S    
N3    O26   1.300103 A    
C43   C55   1.410497 A    
O4    V2    1.987741 S    
N11   O41   1.302129 A    
C17   I6    2.144419 S    
N5    O30   1.301421 A    
