data_mof_unit_35534.cif
_audit_creation_date              2012-10-26T19:06:52-0400
_audit_creation_method            fapswitch 2.2
_symmetry_space_group_name_H-M    P1
_symmetry_Int_Tables_number       1
_space_group_crystal_system       triclinic
_cell_length_a                    12.391918
_cell_length_b                    13.095137
_cell_length_c                    27.743501
_cell_angle_alpha                 77.296117
_cell_angle_beta                  101.494117
_cell_angle_gamma                 116.574109
_cell_volume                      3901.51502011

loop_
_atom_site_label
_atom_site_type_symbol
_atom_type_description
_atom_site_fract_x
_atom_site_fract_y
_atom_site_fract_z
_atom_type_partial_charge
C1    C     C_R   0.855083 0.286129 0.504583 0.522403
C2    C     C_R   0.993935 0.391164 0.036110 0.015826
C3    C     C_R   0.953491 0.564016 0.016241 0.016702
C4    C     C_R   0.999671 0.499615 0.592405 0.546921
C5    C     C_R   0.973529 0.476017 0.051702 0.015605
C6    C     C_R   0.989443 0.292635 0.071501 0.003928
C7    C     C_R   0.009632 0.299452 0.123028 0.011332
C8    C     C_R   0.996873 0.389162 0.139204 0.017362
C9    C     C_R   0.968627 0.471020 0.102894 -0.044879
C10   C     C_R   0.936437 0.549276 0.117643 0.027213
C11   C     C_R   0.938759 0.549403 0.168186 0.389210
C12   C     C_R   0.105412 0.515888 0.728862 -0.060224
C13   C     C_R   0.003720 0.397319 0.190137 0.387902
C14   C     C_R   0.889340 0.395971 0.283978 0.048451
C15   C     C_R   0.899095 0.403773 0.334255 -0.137728
C16   C     C_R   0.144903 0.714314 0.491277 0.547098
C17   C     C_R   0.083366 0.582274 0.326011 -0.037111
C18   C     C_R   0.075458 0.573096 0.275959 -0.049461
C19   C     C_R   0.979615 0.480788 0.254792 0.251045
C20   C     C_R   0.011286 0.404741 0.985434 0.017173
C21   C     C_R   0.993232 0.494120 0.950073 0.015210
C22   C     C_R   0.973254 0.579050 0.965844 0.015387
C23   C     C_R   0.999505 0.499021 0.746665 0.242846
C24   C     C_R   0.056563 0.337725 0.969626 -0.150658
C25   C     C_R   0.965028 0.675569 0.879420 0.011367
C26   C     C_R   0.904533 0.628512 0.031676 -0.151201
C27   C     C_R   0.899276 0.623692 0.081590 -0.120285
C28   C     C_R   0.999795 0.499920 0.407875 0.544688
C29   C     C_R   0.980373 0.679107 0.931064 0.003737
C30   C     C_R   0.280559 0.027416 0.429557 -0.106146
C31   C     C_R   0.227493 0.837622 0.478994 0.006149
C32   C     C_R   0.812069 0.082236 0.538482 -0.131398
C33   C     C_R   0.731242 0.967253 0.548441 -0.135524
C34   C     C_R   0.999952 0.500548 0.898883 -0.044427
C35   C     C_R   0.609169 0.931369 0.529755 -0.117148
C36   C     C_R   0.565693 0.009946 0.498687 0.025566
C37   C     C_R   0.651556 0.123649 0.483933 0.005783
C38   C     C_R   0.440450 0.979136 0.481301 0.007793
C39   C     C_R   0.404497 0.058756 0.446339 0.048765
C40   C     C_R   0.025215 0.419745 0.833255 0.392787
C41   C     C_R   0.493271 0.166911 0.427821 -0.011747
C42   C     C_R   0.614980 0.195921 0.445621 -0.101876
C43   C     C_R   0.349653 0.871607 0.498339 -0.149639
C44   C     C_R   0.192036 0.917496 0.444583 -0.016722
C45   C     C_R   0.027473 0.419543 0.883838 0.029511
C46   C     C_R   0.772945 0.162151 0.507439 -0.005949
C47   C     C_R   0.366406 0.351882 0.585774 -0.001867
C48   C     C_R   0.758573 0.640017 0.430598 0.035501
C49   C     C_R   0.657427 0.660248 0.409831 -0.138656
C50   C     C_R   0.548299 0.600763 0.431305 -0.000886
C51   C     C_R   0.544869 0.526667 0.478027 0.006719
C52   C     C_R   0.979165 0.583659 0.811901 0.392752
C53   C     C_R   0.651037 0.504515 0.495707 0.153176
C54   C     C_R   0.443722 0.471445 0.508006 -0.041125
C55   C     C_R   0.449619 0.389638 0.550687 0.050991
C56   C     C_R   0.060185 0.341832 0.919644 -0.119480
C57   C     C_R   0.542085 0.351329 0.558604 -0.046160
C58   C     C_R   0.645610 0.417347 0.535595 -0.087689
C59   C     C_R   0.339985 0.496762 0.499835 0.019718
C60   C     C_R   0.257963 0.365567 0.571423 0.160343
C61   C     C_R   0.893437 0.482209 0.713588 -0.060406
C62   C     C_R   0.893488 0.483023 0.663222 -0.150842
C63   C     C_R   0.105180 0.515201 0.678671 -0.153329
C64   C     C_3   0.937584 0.768698 0.843274 -0.344347
C65   C     C_3   0.180914 0.687167 0.346809 -0.398441
C66   C     C_3   0.033112 0.796774 0.947875 -0.403994
C67   C     C_R   0.978612 0.586739 0.862856 0.019333
C68   C     C_3   0.062988 0.887167 0.421164 -0.385282
C69   C     C_3   0.461236 0.253523 0.389302 -0.404138
C70   C     C_3   0.160778 0.303444 0.606342 -0.325715
C71   C     C_3   0.530441 0.235030 0.587364 -0.409803
C72   C     C_3   0.400440 0.315180 0.640528 -0.413575
C73   C     C_3   0.439039 0.610518 0.399301 -0.412747
C74   C     C_3   0.781166 0.297825 0.262893 -0.361236
C75   C     C_3   0.038012 0.207400 0.159610 -0.347398
C76   C     C_3   0.934029 0.173540 0.055914 -0.405167
C77   C     C_R   0.999356 0.499203 0.645408 0.004078
C78   C     C_R   0.995560 0.495338 0.355414 0.018608
Cu1   Cu    Cu3+1 0.098270 0.475420 0.511360 0.913583
Cu2   Cu    Cu3+1 0.901730 0.524580 0.488640 0.906966
H1    H     H_    0.188258 0.528941 0.665780 0.124053
H2    H     H_    0.090221 0.284468 0.909259 0.159829
H3    H     H_    0.662947 0.718902 0.375144 0.104085
H4    H     H_    0.718950 0.393499 0.548814 0.188878
H5    H     H_    0.830606 0.338480 0.357020 0.101847
H6    H     H_    0.091780 0.282512 0.995643 0.123115
H7    H     H_    0.810509 0.469803 0.638377 0.119514
H8    H     H_    0.810972 0.468593 0.726960 0.128291
H9    H     H_    0.917440 0.824036 0.861749 0.112010
H10   H     H_    0.016135 0.825713 0.822167 0.175642
H11   H     H_    0.854346 0.728370 0.817699 0.174396
H12   H     H_    0.867823 0.682197 0.005342 0.123400
H13   H     H_    0.246748 0.743597 0.319804 0.124751
H14   H     H_    0.138707 0.738022 0.356361 0.134216
H15   H     H_    0.231092 0.660415 0.380997 0.140284
H16   H     H_    0.102610 0.861253 0.923711 0.139619
H17   H     H_    0.961291 0.826688 0.945877 0.119821
H18   H     H_    0.081725 0.796499 0.986063 0.142556
H19   H     H_    0.002679 0.863903 0.450265 0.158192
H20   H     H_    0.053237 0.960325 0.394573 0.118124
H21   H     H_    0.033609 0.814653 0.400015 0.131016
H22   H     H_    0.542925 0.333424 0.379184 0.136923
H23   H     H_    0.866037 0.678877 0.091758 0.160282
H24   H     H_    0.414144 0.215260 0.354835 0.131167
H25   H     H_    0.401647 0.279277 0.404142 0.142014
H26   H     H_    0.552218 0.840971 0.539435 0.106274
H27   H     H_    0.762622 0.905984 0.572140 0.125444
H28   H     H_    0.681565 0.275436 0.428204 0.145708
H29   H     H_    0.069162 0.288894 0.589156 0.184442
H30   H     H_    0.154522 0.215270 0.621247 0.087601
H31   H     H_    0.183074 0.351430 0.637952 0.121253
H32   H     H_    0.557079 0.190840 0.565073 0.147699
H33   H     H_    0.591565 0.246056 0.622877 0.122425
H34   H     H_    0.142570 0.638821 0.252813 0.122806
H35   H     H_    0.435509 0.176563 0.594393 0.149950
H36   H     H_    0.499637 0.342315 0.649998 0.141265
H37   H     H_    0.377534 0.359112 0.664246 0.128952
H38   H     H_    0.351412 0.220397 0.651026 0.130445
H39   H     H_    0.838786 0.681888 0.411611 0.126837
H40   H     H_    0.357707 0.526634 0.402240 0.140911
H41   H     H_    0.425394 0.681239 0.409095 0.119417
H42   H     H_    0.452529 0.633260 0.359241 0.134994
H43   H     H_    0.696341 0.298402 0.269965 0.119275
H44   H     H_    0.777481 0.303430 0.222198 0.153181
H45   H     H_    0.251723 0.087122 0.403138 0.117674
H46   H     H_    0.784041 0.214592 0.281298 0.137083
H47   H     H_    0.050453 0.146705 0.141464 0.111231
H48   H     H_    0.125663 0.248475 0.182717 0.178653
H49   H     H_    0.963342 0.155722 0.183306 0.166906
H50   H     H_    0.865895 0.111014 0.081051 0.138408
H51   H     H_    0.883190 0.172162 0.018124 0.142533
H52   H     H_    0.004714 0.142379 0.057559 0.119961
H53   H     H_    0.188144 0.530023 0.753961 0.133176
H54   H     H_    0.371669 0.811113 0.526803 0.122948
H55   H     H_    0.904731 0.109074 0.556137 0.122463
H56   H     H_    0.332553 0.565077 0.472220 0.135587
N1    N     N_R   0.000096 0.500076 0.798482 -0.393414
N2    N     N_R   0.974145 0.475818 0.203095 -0.397808
N3    N     N_R   0.246290 0.438210 0.528570 -0.232690
N4    N     N_R   0.754320 0.561170 0.471730 -0.240422
O1    O     O_R   0.972510 0.318140 0.514280 -0.510061
O2    O     O_R   0.082990 0.479230 0.439860 -0.497273
O3    O     O_R   0.917010 0.520730 0.420680 -0.511461
O4    O     O_2   0.046542 0.339138 0.818792 -0.514466
O5    O     O_2   0.038693 0.328020 0.226763 -0.523795
O6    O     O_2   0.961994 0.664292 0.775788 -0.524825
O7    O     O_2   0.906588 0.623038 0.182528 -0.509683
O8    O     O_R   0.806530 0.359640 0.495100 -0.527386
O9    O     O_R   0.082990 0.479270 0.579320 -0.510412
O10   O     O_R   0.917010 0.520770 0.560140 -0.512610
O11   O     O_R   0.193470 0.640360 0.504900 -0.510164
O12   O     O_R   0.027490 0.681860 0.485720 -0.498178

loop_
_geom_bond_atom_site_label_1
_geom_bond_atom_site_label_2
_ccdc_geom_bond_type
C10   C27   A    
C74   H44   S    
C8    C13   A    
C22   C29   A    
C53   N4    A    
C41   C42   A    
C62   C77   A    
Cu1   N3    S    
C35   C36   A    
C33   H27   S    
C64   H10   S    
C18   H34   S    
C7    C8    A    
C39   C41   A    
Cu1   O1    S    
C69   H22   S    
C16   C31   S    
Cu2   O10   S    
C4    O9    A    
C12   C23   A    
C26   C27   A    
C31   C43   A    
C63   H1    S    
C14   C74   S    
C66   H17   S    
C47   C55   A    
C36   C37   A    
C70   H29   S    
C11   N2    A    
C75   H48   S    
C38   C39   A    
C76   H51   S    
C1    C46   S    
C69   H24   S    
Cu1   O2    S    
C26   H12   S    
C59   H56   S    
C71   H33   S    
C18   C19   A    
C37   C42   A    
C70   H30   S    
C47   C60   A    
C76   H50   S    
C20   C24   A    
C45   C56   A    
C8    C9    A    
C25   C67   A    
C72   H37   S    
C13   O5    S    
C28   C78   S    
C9    C10   A    
C3    C22   A    
Cu1   O9    S    
C65   H13   S    
C74   H43   S    
C30   H45   S    
C73   H40   S    
Cu2   O8    S    
C21   C22   A    
C71   H32   S    
C30   C44   A    
C2    C6    A    
C64   H9    S    
C50   C51   A    
C48   H39   S    
C54   C59   A    
C25   C29   A    
C40   C45   A    
C31   C44   A    
C48   N4    A    
C2    C20   A    
C49   H3    S    
C68   H21   S    
Cu1   O11   S    
C59   N3    A    
C70   H31   S    
C50   C73   S    
C28   O3    A    
C12   C63   A    
C69   H25   S    
C7    C75   S    
C21   C34   A    
Cu2   N4    S    
Cu1   Cu2   S    
C51   C53   A    
C25   C64   S    
C43   H54   S    
C68   H20   S    
C5    C9    A    
C61   H8    S    
C58   H4    S    
C60   C70   S    
Cu2   O3    S    
C40   N1    A    
C17   C18   A    
C71   H35   S    
C16   O12   A    
C34   C45   A    
C57   C71   S    
C56   H2    S    
C52   C67   A    
C48   C49   A    
C49   C50   A    
C73   H41   S    
C12   H53   S    
C55   C57   A    
C38   C43   A    
C52   N1    A    
C44   C68   S    
C2    C5    A    
C28   O2    A    
C66   H16   S    
C63   C77   A    
C23   C61   A    
Cu2   O12   S    
C54   C55   A    
C65   H14   S    
C52   O6    S    
C32   C46   A    
C14   C19   A    
C23   N1    S    
C3    C26   A    
C3    C5    A    
C34   C67   A    
C32   H55   S    
C53   C58   A    
C6    C76   S    
C6    C7    A    
C24   C56   A    
C4    O10   A    
C62   H7    S    
C72   H36   S    
C17   C65   S    
C40   O4    S    
C15   H5    S    
C51   C54   A    
C13   N2    A    
C66   H18   S    
C36   C38   A    
C68   H19   S    
C4    C77   S    
C35   H26   S    
C32   C33   A    
C76   H52   S    
C11   O7    S    
C57   C58   A    
C74   H46   S    
C24   H6    S    
C19   N2    S    
C27   H23   S    
C17   C78   A    
C33   C35   A    
C30   C39   A    
C16   O11   A    
C75   H47   S    
C61   C62   A    
C47   C72   S    
C1    O1    A    
C10   C11   A    
C60   N3    A    
C29   C66   S    
C15   C78   A    
C65   H15   S    
C20   C21   A    
C73   H42   S    
C72   H38   S    
C14   C15   A    
C1    O8    A    
C64   H11   S    
C37   C46   A    
C41   C69   S    
C42   H28   S    
C75   H49   S    
