data_mof_unit_28404.cif
_audit_creation_date              2012-12-11T16:25:28-0500
_audit_creation_method            fapswitch 2.2
_symmetry_space_group_name_H-M    P1
_symmetry_Int_Tables_number       1
_space_group_crystal_system       triclinic
_cell_length_a                    20.23049
_cell_length_b                    7.26784
_cell_length_c                    13.41397
_cell_angle_alpha                 89.999888
_cell_angle_beta                  103.25306
_cell_angle_gamma                 90.000722
_cell_volume                      1919.75459566

loop_
_atom_site_label
_atom_site_type_symbol
_atom_type_description
_atom_site_fract_x
_atom_site_fract_y
_atom_site_fract_z
_atom_type_partial_charge
O1    O     O_R   0.449520 0.506760 0.599710 -0.514055
O2    O     O_R   0.550480 0.006760 0.400290 -0.514050
O3    O     O_R   0.587930 0.180200 0.595790 -0.527308
O4    O     O_R   0.412070 0.680200 0.404210 -0.527306
C1    C     C_R   0.614903 0.344178 0.616122 0.797659
C2    C     C_R   0.385097 0.844176 0.383877 0.797653
O5    O     O_R   0.452350 0.177380 0.611700 -0.554017
O6    O     O_R   0.547650 0.677380 0.388300 -0.554010
O7    O     O_R   0.413930 0.001760 0.416320 -0.542207
O8    O     O_R   0.586070 0.501760 0.583680 -0.542204
C3    C     C_R   0.436417 0.345882 0.637976 0.682932
C4    C     C_R   0.563582 0.845885 0.362023 0.682941
O9    O     O_3   0.487550 0.337460 0.435880 -0.380619
O10   O     O_3   0.512450 0.837460 0.564120 -0.380625
V1    V     V_3+5 0.502310 0.064670 0.511900 1.462786
V2    V     V_3+5 0.497690 0.564670 0.488100 1.462797
C5    C     C_R   0.610367 0.916158 0.109590 -0.168845
C6    C     C_R   0.389637 0.416017 0.890423 -0.168838
H1    H     H_    0.516964 0.904315 0.158765 0.099220
H2    H     H_    0.483040 0.404160 0.841247 0.099221
H3    H     H_    0.694022 0.961948 0.985758 0.139516
H4    H     H_    0.305986 0.461754 0.014264 0.139516
H5    H     H_    0.584728 0.945231 0.030971 0.115680
H6    H     H_    0.415278 0.445021 0.969049 0.115680
C7    C     C_R   0.603386 0.856805 0.284000 -0.018013
C8    C     C_R   0.396613 0.356793 0.715999 -0.018016
C9    C     C_R   0.930068 0.817488 0.316638 -0.171581
C10   C     C_R   0.069928 0.317576 0.683354 -0.171598
C11   C     C_R   0.894170 0.792191 0.392188 -0.120985
C12   C     C_R   0.105824 0.292312 0.607799 -0.120982
C13   C     C_R   0.823684 0.805836 0.368696 -0.175073
C14   C     C_R   0.176312 0.305922 0.631294 -0.175065
C15   C     C_R   0.787061 0.849310 0.268175 0.062226
C16   C     C_R   0.212938 0.349330 0.731823 0.062229
C17   C     C_R   0.824343 0.875719 0.190965 0.061817
C18   C     C_R   0.175657 0.375696 0.809039 0.061817
C19   C     C_R   0.714746 0.864755 0.241456 0.043739
C20   C     C_R   0.285254 0.364746 0.758544 0.043746
C21   C     C_R   0.681436 0.903788 0.138255 0.128110
C22   C     C_R   0.318566 0.403695 0.861754 0.128116
C23   C     C_R   0.719124 0.930845 0.064378 -0.193601
C24   C     C_R   0.280880 0.430712 0.935637 -0.193592
C25   C     C_R   0.789400 0.917041 0.090106 -0.201581
C26   C     C_R   0.210603 0.416944 0.909906 -0.201576
C27   C     C_R   0.674109 0.844270 0.313668 -0.214394
C28   C     C_R   0.325889 0.344309 0.686327 -0.214384
C29   C     C_R   0.571625 0.892501 0.182056 -0.194746
C30   C     C_R   0.428378 0.392395 0.817952 -0.194765
C31   C     C_R   0.896021 0.857865 0.216137 -0.069158
C32   C     C_R   0.103979 0.357877 0.783863 -0.069150
H7    H     H_    0.695605 0.822272 0.393980 0.109442
H8    H     H_    0.304391 0.322378 0.606009 0.109458
H9    H     H_    0.984687 0.803576 0.336629 0.097650
H10   H     H_    0.015307 0.303700 0.663360 0.097654
H11   H     H_    0.799614 0.781021 0.431156 0.117223
H12   H     H_    0.200380 0.281135 0.568830 0.117228
H13   H     H_    0.921170 0.759684 0.469612 0.123267
H14   H     H_    0.078822 0.259860 0.530370 0.123270
H15   H     H_    0.816128 0.938376 0.029775 0.132324
H16   H     H_    0.183878 0.438246 0.970241 0.132315
H17   H     H_    0.095984 0.675407 0.457029 0.138457
H18   H     H_    0.904008 0.175262 0.542989 0.138466
C33   C     C_R   0.234110 0.938191 0.041206 -0.141617
C34   C     C_R   0.765892 0.438259 0.958786 -0.141622
C35   C     C_R   0.290842 0.975585 0.002247 -0.100787
C36   C     C_R   0.709162 0.475690 0.997741 -0.100796
C37   C     C_R   0.355185 0.976110 0.066878 -0.130478
C38   C     C_R   0.644819 0.476217 0.933110 -0.130477
C39   C     C_R   0.363301 0.936889 0.170710 -0.150337
C40   C     C_R   0.636702 0.436963 0.829281 -0.150348
C41   C     C_R   0.306721 0.895841 0.212473 0.052703
C42   C     C_R   0.693281 0.395879 0.787522 0.052701
C43   C     C_R   0.240818 0.897954 0.146387 0.066379
C44   C     C_R   0.759183 0.397989 0.853609 0.066384
C45   C     C_R   0.315294 0.850829 0.317790 -0.185011
C46   C     C_R   0.684707 0.350836 0.682209 -0.185014
C47   C     C_R   0.257407 0.806470 0.357754 -0.018992
C48   C     C_R   0.742592 0.306447 0.642248 -0.018990
C49   C     C_R   0.191500 0.808535 0.290005 0.021397
C50   C     C_R   0.808498 0.308498 0.709999 0.021395
C51   C     C_R   0.183247 0.856743 0.185385 -0.151123
C52   C     C_R   0.816753 0.356739 0.814615 -0.151125
C53   C     C_R   0.262561 0.762701 0.463691 0.438470
C54   C     C_R   0.737437 0.262664 0.536313 0.438491
C55   C     C_R   0.203719 0.712844 0.496714 -0.196769
C56   C     C_R   0.796276 0.212757 0.503297 -0.196775
C57   C     C_R   0.140525 0.713558 0.429838 -0.197622
C58   C     C_R   0.859469 0.213448 0.570175 -0.197627
C59   C     C_R   0.134210 0.761884 0.328177 -0.145209
C60   C     C_R   0.865786 0.261801 0.671832 -0.145223
H19   H     H_    0.185121 0.939466 0.987714 0.110503
H20   H     H_    0.814881 0.439532 0.012278 0.110510
H21   H     H_    0.284788 0.004791 0.921502 0.125607
H22   H     H_    0.715217 0.504921 0.078484 0.125615
H23   H     H_    0.399085 0.006507 0.036340 0.113230
H24   H     H_    0.600921 0.506642 0.963645 0.113237
H25   H     H_    0.414421 0.938284 0.217657 0.080773
H26   H     H_    0.585582 0.438361 0.782335 0.080790
H27   H     H_    0.206750 0.671526 0.575030 0.137929
H28   H     H_    0.793243 0.171424 0.424983 0.137930
H29   H     H_    0.083731 0.759979 0.279283 0.106795
H30   H     H_    0.916265 0.259881 0.720728 0.106817
O11   O     O_R   0.913760 0.203480 0.916370 -0.535511
O12   O     O_R   0.086240 0.703480 0.083630 -0.535507
O13   O     O_R   0.047590 0.535230 0.888250 -0.539617
O14   O     O_R   0.952410 0.035230 0.111750 -0.539619
C61   C     C_R   0.064018 0.368206 0.862263 0.671654
C62   C     C_R   0.935982 0.868204 0.137737 0.671655
O15   O     O_R   0.912020 0.532880 0.904260 -0.536947
O16   O     O_R   0.087980 0.032880 0.095740 -0.536949
O17   O     O_R   0.949590 0.708460 0.099750 -0.537506
O18   O     O_R   0.050410 0.208460 0.900250 -0.537508
C63   C     C_R   0.885748 0.364813 0.883498 0.680508
C64   C     C_R   0.114252 0.864815 0.116501 0.680514
O19   O     O_3   0.012370 0.375360 0.064120 -0.376500
O20   O     O_3   0.987630 0.875360 0.935880 -0.376501
V3    V     V_3+5 0.997700 0.648160 0.988110 1.418010
V4    V     V_3+5 0.002300 0.148160 0.011890 1.418002
O21   O     O_3   0.325516 0.754237 0.532166 -0.556858
C65   C     C_3   0.325455 0.850397 0.623715 -0.222002
H31   H     H_    0.307357 0.760168 0.678716 0.141820
H32   H     H_    0.294873 0.979084 0.610028 0.113856
H33   H     H_    0.378446 0.889594 0.660143 0.177334
O22   O     O_3   0.674482 0.254249 0.467833 -0.556852
C66   C     C_3   0.674561 0.350374 0.376278 -0.222032
H34   H     H_    0.692640 0.260093 0.321282 0.141851
H35   H     H_    0.705170 0.479019 0.389956 0.113851
H36   H     H_    0.621579 0.389641 0.339851 0.177329

loop_
_geom_bond_atom_site_label_1
_geom_bond_atom_site_label_2
_ccdc_geom_bond_type
C36   C38   A    
C33   C35   A    
C9    C11   A    
C61   O18   A    
O1    C3    A    
C42   C46   A    
O2    C4    A    
O16   V4    S    
C2    O7    A    
O15   V3    S    
C2    C45   S    
C21   C23   A    
H4    C24   S    
O5    C3    A    
O13   C61   A    
C5    H5    S    
C27   H7    S    
C6    H6    S    
O11   C63   A    
C46   C48   A    
C56   C58   A    
C47   C53   A    
C28   H8    S    
O20   V3    S    
C5    C21   A    
C53   O21   S    
C39   C41   A    
C6    C22   A    
C60   H30   S    
H17   C57   S    
C10   C32   A    
C35   C37   A    
C51   C64   S    
C17   C31   A    
C66   H36   S    
C13   C15   A    
C12   C14   A    
C17   C25   A    
O16   C64   A    
C16   C18   A    
C65   H33   S    
O15   C63   A    
C36   H22   S    
C22   C24   A    
O6    V2    S    
C20   C22   A    
O14   V4    S    
C37   H23   S    
C23   C25   A    
O13   V3    S    
C24   C26   A    
C44   C52   A    
C43   C51   A    
C65   H32   S    
C31   C62   S    
C47   C49   A    
C41   C45   A    
C49   C59   A    
C55   C57   A    
C9    C31   A    
C8    C30   A    
C42   C44   A    
C49   C51   A    
C10   H10   S    
C33   C43   A    
C3    C8    S    
H18   C58   S    
C15   C19   A    
C37   C39   A    
C14   C16   A    
O4    V2    S    
C55   H27   S    
O6    C4    A    
O19   V4    S    
H1    C29   S    
O1    V2    S    
C38   H24   S    
O2    V1    S    
C45   C47   A    
H2    C30   S    
H3    C23   S    
O4    C2    A    
C53   C55   A    
C58   C60   A    
C57   C59   A    
C32   C61   S    
O12   C64   A    
C18   C26   A    
O11   V4    S    
C34   H20   S    
C19   C27   A    
C7    C27   A    
C18   C32   A    
C65   H31   S    
C41   C43   A    
O12   V3    S    
C7    C29   A    
C59   H29   S    
C16   C20   A    
C5    C29   A    
C52   C63   S    
C11   H13   S    
O3    C1    A    
C6    C30   A    
O21   C65   S    
C9    H9    S    
C25   H15   S    
C54   O22   S    
C62   O17   A    
C4    C7    S    
O17   V3    S    
C1    C46   S    
C10   C12   A    
O7    V1    S    
C1    O8    A    
C19   C21   A    
O8    V2    S    
O18   V4    S    
C56   H28   S    
C66   H34   S    
O14   C62   A    
C26   H16   S    
C12   H14   S    
O5    V1    S    
C35   H21   S    
C15   C17   A    
C50   C52   A    
C48   C50   A    
C50   C60   A    
C20   C28   A    
C8    C28   A    
C48   C54   A    
C11   C13   A    
O9    V2    S    
C33   H19   S    
C66   H35   S    
C38   C40   A    
C34   C44   A    
O10   V1    S    
C54   C56   A    
O3    V1    S    
C40   C42   A    
C13   H11   S    
C14   H12   S    
C40   H26   S    
C34   C36   A    
O22   C66   S    
C39   H25   S    
