data_mof_unit_57312.cif
_audit_creation_date              2012-12-10T20:55:49-0500
_audit_creation_method            fapswitch 2.2
_symmetry_space_group_name_H-M    P1
_symmetry_Int_Tables_number       1
_space_group_crystal_system       triclinic
_cell_length_a                    15.7429
_cell_length_b                    15.030367
_cell_length_c                    10.472456
_cell_angle_alpha                 89.999575
_cell_angle_beta                  89.892254
_cell_angle_gamma                 90.000598
_cell_volume                      2478.00454261

loop_
_atom_site_label
_atom_site_type_symbol
_atom_type_description
_atom_site_fract_x
_atom_site_fract_y
_atom_site_fract_z
_atom_type_partial_charge
C1    C     C_1   0.250281 0.499999 0.519915 -0.211180
C2    C     C_R   0.422388 0.047451 0.504546 0.159075
C3    C     C_R   0.954960 0.582091 0.574084 0.150621
C4    C     C_R   0.044248 0.417900 0.574360 0.146626
C5    C     C_R   0.044251 0.582105 0.574326 0.146625
C6    C     C_R   0.954957 0.417916 0.574121 0.150622
C7    C     C_R   0.338442 0.500000 0.500458 0.946950
C8    C     C_R   0.661525 0.500000 0.500036 0.840123
C9    C     C_R   0.520260 0.500001 0.262410 0.915654
C10   C     C_R   0.519976 0.500000 0.737678 0.921393
C11   C     C_R   0.911775 0.500003 0.566343 0.042353
C12   C     C_1   0.749589 0.500001 0.518238 -0.208892
C13   C     C_R   0.087589 0.500002 0.567055 0.042995
C14   C     C_1   0.500116 0.807017 0.500433 0.057609
C15   C     C_1   0.500116 0.192983 0.500433 0.057588
C16   C     C_1   0.823511 0.500002 0.539931 -0.006306
C17   C     C_1   0.176179 0.499999 0.541527 -0.006510
C18   C     C_R   0.598551 0.661366 0.131175 0.154401
C19   C     C_R   0.596082 0.337846 0.868658 0.165657
C20   C     C_R   0.596091 0.662157 0.868652 0.165676
C21   C     C_R   0.598573 0.338645 0.131180 0.154380
C22   C     C_R   0.589483 0.743706 0.068068 0.182413
C23   C     C_R   0.557776 0.500001 0.867895 -0.188658
C24   C     C_R   0.587770 0.255840 0.933442 0.187390
C25   C     C_R   0.587775 0.744166 0.933429 0.187404
C26   C     C_R   0.589514 0.256300 0.068080 0.182441
C27   C     C_R   0.574653 0.581523 0.932742 -0.012898
C28   C     C_R   0.575506 0.418680 0.067301 -0.010322
C29   C     C_R   0.575499 0.581326 0.067298 -0.010335
C30   C     C_R   0.574654 0.418481 0.932745 -0.012900
C31   C     C_3   0.091954 0.670097 0.578215 -0.870947
C32   C     C_3   0.907034 0.330006 0.578160 -0.883660
C33   C     C_3   0.907041 0.670004 0.578079 -0.883656
C34   C     C_R   0.558587 0.500002 0.132226 -0.188903
C35   C     C_3   0.091948 0.329908 0.578284 -0.870944
C36   C     C_3   0.592483 0.170960 0.145260 -0.895266
C37   C     C_3   0.587661 0.831071 0.860163 -0.899777
C38   C     C_3   0.587631 0.168939 0.860168 -0.899766
C39   C     C_3   0.592439 0.829050 0.145237 -0.895311
C40   C     C_3   0.338064 0.096715 0.508463 -0.876489
C41   C     C_3   0.662402 0.903164 0.494502 -0.914340
C42   C     C_3   0.662402 0.096841 0.494511 -0.914318
C43   C     C_3   0.338064 0.903281 0.508466 -0.876488
C44   C     C_3   0.653109 0.659043 0.249330 -0.795107
C45   C     C_R   0.500237 0.904908 0.500949 -0.024960
C46   C     C_3   0.652032 0.339860 0.751552 -0.815657
C47   C     C_3   0.652041 0.660137 0.751548 -0.815693
C48   C     C_3   0.653127 0.340983 0.249336 -0.795117
C49   C     C_R   0.500237 0.095092 0.500949 -0.024972
C50   C     C_R   0.422388 0.952547 0.504546 0.159076
C51   C     C_R   0.578130 0.047476 0.497787 0.167877
C52   C     C_R   0.578130 0.952526 0.497785 0.167867
H1    H     H_    0.161906 0.662792 0.581976 0.245113
H2    H     H_    0.161900 0.337213 0.582040 0.245112
H3    H     H_    0.073581 0.292067 0.665018 0.239105
H4    H     H_    0.076591 0.290001 0.492189 0.241378
H5    H     H_    0.548829 0.176573 0.228202 0.250166
H6    H     H_    0.572130 0.111512 0.091023 0.245326
H7    H     H_    0.657915 0.158949 0.180492 0.239869
H8    H     H_    0.645157 0.870414 0.884162 0.243503
H9    H     H_    0.586267 0.821443 0.755409 0.251194
H10   H     H_    0.529791 0.869766 0.884415 0.241128
H11   H     H_    0.645172 0.129631 0.884033 0.243495
H12   H     H_    0.076600 0.709988 0.492104 0.241380
H13   H     H_    0.529804 0.130205 0.884532 0.241121
H14   H     H_    0.586127 0.178581 0.755419 0.251195
H15   H     H_    0.548845 0.823403 0.228245 0.250176
H16   H     H_    0.657887 0.841113 0.180362 0.239881
H17   H     H_    0.571994 0.888473 0.091022 0.245336
H18   H     H_    0.299474 0.078773 0.423722 0.240200
H19   H     H_    0.302777 0.078707 0.596576 0.240383
H20   H     H_    0.344179 0.170090 0.508277 0.244264
H21   H     H_    0.700638 0.920976 0.579670 0.246609
H22   H     H_    0.656182 0.829788 0.494542 0.233632
H23   H     H_    0.073588 0.707955 0.664933 0.239105
H24   H     H_    0.698042 0.921196 0.406728 0.245386
H25   H     H_    0.700636 0.079027 0.579680 0.246611
H26   H     H_    0.698044 0.078811 0.406738 0.245376
H27   H     H_    0.656181 0.170216 0.494553 0.233637
H28   H     H_    0.299471 0.921223 0.423727 0.240200
H29   H     H_    0.344179 0.829906 0.508280 0.244264
H30   H     H_    0.302778 0.921287 0.596580 0.240381
H31   H     H_    0.713374 0.695344 0.231203 0.214417
H32   H     H_    0.620172 0.691702 0.330084 0.269267
H33   H     H_    0.672105 0.590247 0.273660 0.215484
H34   H     H_    0.837067 0.337440 0.581785 0.244783
H35   H     H_    0.710014 0.299414 0.768386 0.221564
H36   H     H_    0.618479 0.311735 0.668310 0.269134
H37   H     H_    0.674527 0.408164 0.730960 0.220824
H38   H     H_    0.710025 0.700582 0.768381 0.221569
H39   H     H_    0.674533 0.591832 0.730963 0.220829
H40   H     H_    0.618489 0.688259 0.668304 0.269138
H41   H     H_    0.713401 0.304697 0.231215 0.214408
H42   H     H_    0.672111 0.409783 0.273664 0.215477
H43   H     H_    0.620193 0.308316 0.330089 0.269285
H44   H     H_    0.922586 0.289951 0.492204 0.242444
H45   H     H_    0.924986 0.292242 0.665054 0.239099
H46   H     H_    0.837073 0.662572 0.581708 0.244785
H47   H     H_    0.924994 0.707788 0.664952 0.239100
H48   H     H_    0.922594 0.710038 0.492102 0.242443
N1    N     N_1   0.500000 0.270550 0.500000 -0.117150
N2    N     N_1   0.500000 0.729450 0.500000 -0.117153
O1    O     O_R   0.378020 0.573650 0.500040 -0.595644
O2    O     O_R   0.621980 0.426350 0.499960 -0.639924
O3    O     O_R   0.621980 0.573650 0.499960 -0.639925
O4    O     O_R   0.378020 0.426350 0.500040 -0.595644
O5    O     O_R   0.499990 0.573670 0.316780 -0.597245
O6    O     O_R   0.500010 0.426330 0.683220 -0.597138
O7    O     O_R   0.500010 0.573670 0.683220 -0.597135
O8    O     O_R   0.499990 0.426330 0.316780 -0.597240
Zn1   Zn    Zn3+2 0.500000 0.598370 0.500000 0.941089
Zn2   Zn    Zn3+2 0.500000 0.401630 0.500000 0.941088

loop_
_geom_bond_atom_site_label_1
_geom_bond_atom_site_label_2
_ccdc_geom_bond_type
C6    C32   S    
C21   C26   A    
C48   H43   S    
C27   C29   A    
C47   H40   S    
C10   O6    A    
C36   H7    S    
C8    O3    A    
C37   H10   S    
C19   C46   S    
C46   H37   S    
O4    Zn2   S    
N1    Zn2   S    
C47   H39   S    
C40   H18   S    
C40   H19   S    
C24   C26   A    
C38   H11   S    
C36   H6    S    
O7    Zn1   S    
C14   N2    T    
C20   C25   A    
C3    C33   S    
C32   H45   S    
C10   O7    A    
O1    Zn1   S    
C33   H46   S    
C39   H16   S    
C4    C13   A    
C2    C50   A    
C25   C37   S    
C41   H22   S    
C12   C16   T    
C49   C51   A    
C22   C25   A    
C24   C38   S    
C23   C27   A    
C41   C52   S    
C5    C13   A    
C42   C51   S    
C21   C48   S    
C44   H31   S    
O3    Zn1   S    
C4    C35   S    
C28   C34   A    
C42   H27   S    
C7    O1    A    
C35   H2    S    
N2    Zn1   S    
C39   H15   S    
C14   C45   S    
C46   H36   S    
C48   H41   S    
C35   H3    S    
C51   C52   A    
C37   H8    S    
C23   C30   A    
C38   H14   S    
C4    C6    A    
C36   H5    S    
C6    C11   A    
O2    Zn2   S    
C45   C52   A    
C3    C5    A    
C43   H28   S    
C29   C34   A    
C31   H1    S    
O6    Zn2   S    
C33   H47   S    
C2    C49   A    
C18   C44   S    
C11   C16   S    
C31   H23   S    
C38   H13   S    
C8    C12   S    
C32   H34   S    
C39   H17   S    
C7    O4    A    
C18   C29   A    
C15   N1    T    
C8    O2    A    
C48   H42   S    
C26   C36   S    
C32   H44   S    
C21   C28   A    
C42   H26   S    
C9    C34   S    
C43   H29   S    
C47   H38   S    
C44   H33   S    
C46   H35   S    
C9    O8    A    
C40   H20   S    
C35   H4    S    
C1    C7    S    
O5    Zn1   S    
C31   H12   S    
C44   H32   S    
C37   H9    S    
C43   C50   S    
C20   C27   A    
C10   C23   S    
C9    O5    A    
C1    C17   T    
C13   C17   S    
C33   H48   S    
C18   C22   A    
C19   C24   A    
C41   H24   S    
C45   C50   A    
C22   C39   S    
C28   C30   A    
C15   C49   S    
O8    Zn2   S    
C20   C47   S    
C3    C11   A    
C41   H21   S    
C2    C40   S    
C42   H25   S    
C43   H30   S    
C19   C30   A    
C5    C31   S    
