data_mof_unit_45893.cif
_audit_creation_date              2012-10-26T21:10:50-0400
_audit_creation_method            fapswitch 2.2
_symmetry_space_group_name_H-M    P1
_symmetry_Int_Tables_number       1
_space_group_crystal_system       triclinic
_cell_length_a                    10.792019
_cell_length_b                    14.685672
_cell_length_c                    14.651064
_cell_angle_alpha                 65.428202
_cell_angle_beta                  102.99359
_cell_angle_gamma                 102.883349
_cell_volume                      2035.58797565

loop_
_atom_site_label
_atom_site_type_symbol
_atom_type_description
_atom_site_fract_x
_atom_site_fract_y
_atom_site_fract_z
_atom_type_partial_charge
Br1   Br    Br    0.761340 0.431194 0.792342 -0.535617
Br2   Br    Br    0.251940 0.573943 0.201934 -0.532634
Br3   Br    Br    0.909851 0.000454 0.703975 -0.518308
Br4   Br    Br    0.090427 0.998694 0.296386 -0.517821
C1    C     C_R   0.477027 0.119560 0.312199 0.563358
C2    C     C_R   0.605565 0.784506 0.972898 -0.121212
C3    C     C_R   0.429117 0.149694 0.127448 -0.119018
C4    C     C_R   0.589741 0.851000 0.871656 -0.117020
C5    C     C_R   0.490231 0.291653 0.179663 -0.117959
C6    C     C_R   0.510054 0.708804 0.820918 -0.122705
C7    C     C_R   0.488506 0.360717 0.078649 0.040410
C8    C     C_R   0.531880 0.639945 0.921694 0.042833
C9    C     C_R   0.454252 0.321276 0.001439 0.059685
C10   C     C_R   0.576511 0.679559 0.998437 0.061575
C11   C     C_R   0.519289 0.467379 0.052425 0.046787
C12   C     C_R   0.522553 0.880503 0.687785 0.562547
C13   C     C_R   0.508429 0.533258 0.948124 0.046176
C14   C     C_R   0.477563 0.490390 0.873716 -0.095249
C15   C     C_R   0.562563 0.510410 0.126718 -0.098259
C16   C     C_R   0.262613 0.001074 0.499177 0.584565
C17   C     C_R   0.737407 0.998943 0.500736 0.585219
C18   C     C_R   0.450881 0.386568 0.900172 -0.088362
C19   C     C_R   0.591616 0.614267 0.099845 -0.091320
C20   C     C_R   0.693273 0.275231 0.682231 -0.133467
C21   C     C_R   0.310395 0.725910 0.316167 -0.133085
C22   C     C_R   0.667752 0.197560 0.646929 0.045285
C23   C     C_R   0.870964 0.997370 0.501042 -0.015818
C24   C     C_R   0.333473 0.802723 0.352456 0.046029
C25   C     C_R   0.525302 0.288112 0.505654 0.030929
C26   C     C_R   0.475638 0.712328 0.494085 0.030813
C27   C     C_R   0.549528 0.371636 0.535983 -0.025500
C28   C     C_R   0.454288 0.629785 0.462558 -0.026184
C29   C     C_R   0.633355 0.362375 0.628270 0.047034
C30   C     C_R   0.371694 0.639421 0.369647 0.046149
C31   C     C_R   0.491495 0.462071 0.479507 -0.017875
C32   C     C_R   0.513809 0.539949 0.518447 -0.017651
C33   C     C_R   0.594167 0.525210 0.612324 -0.110285
C34   C     C_R   0.129076 0.002399 0.498996 -0.015810
C35   C     C_R   0.413540 0.477708 0.384581 -0.107596
C36   C     C_R   0.654013 0.439303 0.665739 0.152473
C37   C     C_R   0.353967 0.563702 0.330912 0.155321
C38   C     C_R   0.310178 0.933936 0.835905 -0.096383
C39   C     C_R   0.697520 0.060107 0.160846 -0.097480
C40   C     C_R   0.220571 0.926849 0.752927 -0.055524
C41   C     C_R   0.784179 0.069276 0.244351 -0.053660
C42   C     C_R   0.188238 0.014981 0.670414 0.080065
C43   C     C_R   0.812054 0.982454 0.330405 0.079045
C44   C     C_R   0.247023 0.110132 0.671503 -0.028222
C45   C     C_R   0.907954 0.991428 0.417435 -0.051031
C46   C     C_R   0.751571 0.886564 0.332323 -0.028782
C47   C     C_R   0.338139 0.116844 0.753919 -0.093307
C48   C     C_R   0.663076 0.877883 0.249418 -0.095198
C49   C     C_R   0.369479 0.028792 0.836182 -0.103381
C50   C     C_R   0.636374 0.964597 0.163585 -0.107032
C51   C     C_R   0.962203 0.004065 0.584220 0.130193
C52   C     C_R   0.037911 0.995615 0.415889 0.129614
C53   C     C_R   0.092106 0.007848 0.582809 -0.050510
C54   C     C_R   0.464273 0.187181 0.204596 0.011185
C55   C     C_R   0.540534 0.813221 0.795306 0.008727
C56   C     C_R   0.424304 0.216442 0.026333 -0.123847
Cu1   Cu    Cu3+1 0.466270 0.918260 0.475690 0.976319
Cu2   Cu    Cu3+1 0.533730 0.081740 0.524310 0.975814
H1    H     H_    0.439605 0.034041 0.900139 0.096600
H2    H     H_    0.711653 0.129795 0.690313 0.172444
H3    H     H_    0.758430 0.265345 0.752382 0.167652
H4    H     H_    0.246120 0.735995 0.245582 0.167722
H5    H     H_    0.612642 0.579305 0.647367 0.128009
H6    H     H_    0.397977 0.424673 0.348502 0.129127
H7    H     H_    0.334022 0.865831 0.899852 0.133089
H8    H     H_    0.677562 0.127124 0.094044 0.131750
H9    H     H_    0.175898 0.853025 0.753100 0.130130
H10   H     H_    0.830677 0.143611 0.241604 0.132472
H11   H     H_    0.223098 0.178753 0.608204 0.120382
H12   H     H_    0.568540 0.957800 0.099144 0.098497
H13   H     H_    0.772536 0.818893 0.398145 0.120161
H14   H     H_    0.384218 0.190251 0.754114 0.106737
H15   H     H_    0.615777 0.803953 0.251485 0.110747
H16   H     H_    0.427594 0.357191 0.840625 0.121067
H17   H     H_    0.625428 0.643698 0.159226 0.118400
H18   H     H_    0.466537 0.683054 0.760654 0.121010
H19   H     H_    0.510735 0.317116 0.241052 0.121028
H20   H     H_    0.614289 0.931666 0.853319 0.141225
H21   H     H_    0.407059 0.069048 0.145198 0.139984
H22   H     H_    0.398145 0.186070 0.967519 0.111555
H23   H     H_    0.641024 0.815083 0.031281 0.115914
H24   H     H_    0.476423 0.534712 0.793789 0.109340
H25   H     H_    0.578425 0.466462 0.206982 0.106634
H26   H     H_    0.543176 0.714412 0.559631 0.125329
H27   H     H_    0.456167 0.285711 0.440925 0.124597
H28   H     H_    0.289021 0.870234 0.309188 0.173658
N1    N     N_R   0.584450 0.204570 0.560790 -0.236810
N2    N     N_R   0.415550 0.795430 0.439210 -0.236964
O1    O     O_R   0.455540 0.022090 0.338120 -0.496850
O2    O     O_R   0.544460 0.977910 0.661880 -0.497389
O3    O     O_R   0.512510 0.160150 0.379180 -0.519914
O4    O     O_R   0.487490 0.839850 0.620820 -0.519151
O5    O     O_R   0.291160 0.930970 0.479480 -0.460753
O6    O     O_R   0.708840 0.069030 0.520520 -0.460706
O7    O     O_R   0.348130 0.069020 0.520540 -0.510613
O8    O     O_R   0.651870 0.930980 0.479460 -0.511152

loop_
_geom_bond_atom_site_label_1
_geom_bond_atom_site_label_2
_ccdc_geom_bond_type
C3    H21   S    
C56   H22   S    
C35   H6    S    
C31   C35   A    
C31   C32   A    
C25   H27   S    
Cu1   O4    S    
C35   C37   A    
C9    C56   A    
C21   C24   A    
C11   C15   A    
C14   H24   S    
C2    H23   S    
C1    C54   S    
C4    H20   S    
C28   C32   A    
C32   C33   A    
C20   C22   A    
C33   C36   A    
C15   H25   S    
C4    C55   A    
C23   C51   A    
Br2   C37   S    
C16   C34   S    
C40   H9    S    
C5    C54   A    
C22   H2    S    
C49   H1    S    
Br1   C36   S    
C50   H12   S    
C7    C11   A    
C44   C47   A    
C16   O5    A    
C40   C42   A    
C8    C13   A    
C46   C48   A    
C27   C29   A    
C3    C54   A    
Cu1   N2    S    
C21   C30   A    
C17   C23   S    
Cu2   O6    S    
Cu2   O3    S    
Br4   C52   S    
C41   H10   S    
C30   C37   A    
C38   C40   A    
C1    O3    A    
C48   C50   A    
C43   C46   A    
C41   C43   A    
C42   C44   A    
C12   O4    A    
C29   C36   A    
C47   H14   S    
C18   H16   S    
C26   N2    A    
C17   O8    A    
C6    H18   S    
C2    C4    A    
C22   N1    A    
C38   H7    S    
C47   C49   A    
C12   C55   S    
C28   C30   A    
C10   C19   A    
C15   C19   A    
C2    C10   A    
C34   C53   A    
C39   C41   A    
C39   C50   A    
Cu2   N1    S    
C13   C14   A    
C24   N2    A    
C5    C7    A    
C6    C8    A    
C20   H3    S    
C8    C10   A    
C39   H8    S    
Cu2   O2    S    
C42   C53   S    
C27   C31   A    
Cu1   O8    S    
C26   H26   S    
C48   H15   S    
C3    C56   A    
C25   N1    A    
C11   C13   A    
Br3   C51   S    
C14   C18   A    
C44   H11   S    
Cu1   O5    S    
C21   H4    S    
C1    O1    A    
C43   C45   S    
C45   C52   A    
C12   O2    A    
C20   C29   A    
C51   C53   A    
C6    C55   A    
C38   C49   A    
C46   H13   S    
C26   C28   A    
C17   O6    A    
C7    C9    A    
C16   O7    A    
C33   H5    S    
C9    C18   A    
Cu1   O1    S    
Cu1   Cu2   S    
Cu2   O7    S    
C34   C52   A    
C25   C27   A    
C24   H28   S    
C19   H17   S    
C23   C45   A    
C5    H19   S    
