data_mof_unit_66077.cif
_audit_creation_date              2012-10-26T19:16:38-0400
_audit_creation_method            fapswitch 2.2
_symmetry_space_group_name_H-M    P1
_symmetry_Int_Tables_number       1
_space_group_crystal_system       triclinic
_cell_length_a                    13.933002
_cell_length_b                    14.794064
_cell_length_c                    16.030354
_cell_angle_alpha                 90.117184
_cell_angle_beta                  89.971149
_cell_angle_gamma                 84.734456
_cell_volume                      3290.31684789

loop_
_atom_site_label
_atom_site_type_symbol
_atom_type_description
_atom_site_fract_x
_atom_site_fract_y
_atom_site_fract_z
_atom_type_partial_charge
C1    C     C_R   0.500006 0.500107 0.658979 0.550700
C2    C     C_R   0.472205 0.953620 0.428363 -0.048593
C3    C     C_1   0.500431 0.197519 0.499628 0.214148
C4    C     C_1   0.499569 0.802481 0.500372 0.214150
C5    C     C_R   0.683271 0.485365 0.499953 0.549950
C6    C     C_R   0.316729 0.514635 0.500047 0.549950
C7    C     C_1   0.214050 0.523805 0.500242 0.019119
C8    C     C_1   0.785950 0.476195 0.499758 0.019119
C9    C     C_2   0.023969 0.537670 0.500722 -0.021976
C10   C     C_2   0.976031 0.462330 0.499278 -0.021977
C11   C     C_1   0.872448 0.469029 0.499545 -0.023867
C12   C     C_R   0.499994 0.499893 0.341021 0.550700
C13   C     C_1   0.127552 0.530971 0.500455 -0.023867
C14   C     C_R   0.525014 0.418794 0.044060 -0.036830
C15   C     C_R   0.474986 0.581206 0.955940 -0.036830
C16   C     C_R   0.497251 0.500026 0.087455 -0.033891
C17   C     C_R   0.502749 0.499974 0.912545 -0.033891
C18   C     C_R   0.472042 0.581745 0.043881 0.045988
C19   C     C_R   0.527957 0.418255 0.956118 0.045987
C20   C     C_1   0.498376 0.499862 0.177384 0.011306
C21   C     C_1   0.501624 0.500137 0.822616 0.011307
C22   C     C_1   0.026019 0.372141 0.497360 0.238778
C23   C     C_1   0.500718 0.500241 0.747780 0.040163
C24   C     C_1   0.973981 0.627859 0.502640 0.238778
C25   C     C_2   0.556960 0.332314 0.909994 0.596432
C26   C     C_2   0.443039 0.667686 0.090006 0.596432
C27   C     C_1   0.554350 0.336699 0.090475 0.269657
C28   C     C_1   0.445649 0.663301 0.909524 0.269657
C29   C     C_1   0.447298 0.905319 0.353735 0.267407
C30   C     C_1   0.552701 0.094682 0.646265 0.267409
C31   C     C_2   0.444429 0.102273 0.349996 0.591598
C32   C     C_2   0.555567 0.897728 0.650006 0.591600
C33   C     C_1   0.499282 0.499759 0.252220 0.040163
C34   C     C_R   0.473094 0.050131 0.426961 0.040500
C35   C     C_R   0.526905 0.949869 0.573039 0.040498
C36   C     C_R   0.501242 0.097044 0.499014 -0.057895
C37   C     C_R   0.498757 0.902956 0.500986 -0.057894
C38   C     C_R   0.527794 0.046380 0.571637 -0.048593
Cu1   Cu    Cu3+1 0.499970 0.410780 0.500000 1.076041
Cu2   Cu    Cu3+1 0.500030 0.589220 0.500000 1.076042
H1    H     H_    0.545416 0.197912 0.898165 0.370818
H2    H     H_    0.454585 0.802087 0.101835 0.370818
H3    H     H_    0.470516 0.203351 0.271145 0.363234
H4    H     H_    0.529479 0.796648 0.728855 0.363235
N1    N     N_1   0.499970 0.723290 0.500020 -0.159829
N2    N     N_1   0.500030 0.276710 0.499980 -0.159830
N3    N     N_1   0.066011 0.300048 0.495824 -0.231960
N4    N     N_1   0.933989 0.699952 0.504176 -0.231961
N5    N     N_1   0.577813 0.271354 0.127569 -0.217593
N6    N     N_1   0.422187 0.728646 0.872431 -0.217595
N7    N     N_1   0.427523 0.866612 0.294260 -0.205664
N8    N     N_1   0.572475 0.133389 0.705741 -0.205663
O1    O     O_R   0.499950 0.424680 0.619690 -0.482958
O2    O     O_R   0.520399 0.251409 0.934156 -0.655183
O3    O     O_2   0.387257 0.667661 0.148944 -0.478907
O4    O     O_R   0.479602 0.748590 0.065845 -0.655183
O5    O     O_2   0.374092 0.083950 0.309893 -0.465254
O6    O     O_R   0.497724 0.172593 0.323591 -0.667520
O7    O     O_2   0.625900 0.916052 0.690112 -0.465255
O8    O     O_R   0.502274 0.827405 0.676407 -0.667521
O9    O     O_R   0.500050 0.575320 0.380310 -0.482958
O10   O     O_R   0.500000 0.575360 0.619690 -0.482924
O11   O     O_R   0.500000 0.424640 0.380310 -0.482924
O12   O     O_R   0.637820 0.414010 0.499980 -0.484983
O13   O     O_R   0.362180 0.585990 0.500020 -0.484984
O14   O     O_R   0.637870 0.564690 0.499980 -0.490012
O15   O     O_R   0.362130 0.435310 0.500020 -0.490012
O16   O     O_2   0.612743 0.332339 0.851056 -0.478907

loop_
_geom_bond_atom_site_label_1
_geom_bond_atom_site_label_2
_ccdc_geom_bond_type
C15   C18   A    
C17   C21   S    
C9    C24   S    
C6    C7    S    
Cu1   O12   S    
C14   C16   A    
C14   C27   S    
C5    C8    S    
Cu1   O11   S    
C9    C10   D    
C3    N2    T    
H3    O6    S    
C8    C11   T    
C16   C20   S    
H2    O4    S    
C1    O10   A    
C2    C34   A    
C36   C38   A    
C22   N3    T    
C31   C34   S    
Cu2   O14   S    
C26   O3    D    
C12   O9    A    
C2    C37   A    
C31   O5    D    
C15   C28   S    
Cu1   O1    S    
C25   O16   D    
C30   N8    T    
C3    C36   S    
H4    O8    S    
Cu1   N2    S    
C20   C33   T    
C31   O6    S    
C6    O15   A    
C17   C19   A    
C1    C23   S    
C34   C36   A    
C4    N1    T    
C2    C29   S    
C21   C23   T    
Cu2   N1    S    
C19   C25   S    
Cu2   O13   S    
H1    O2    S    
C10   C11   S    
C32   O8    S    
C26   O4    S    
C24   N4    T    
C32   C35   S    
C7    C13   T    
C35   C38   A    
Cu2   O10   S    
C25   O2    S    
C30   C38   S    
C16   C18   A    
C29   N7    T    
Cu1   Cu2   S    
C15   C17   A    
C12   O11   A    
C1    O1    A    
C5    O14   A    
C9    C13   S    
C32   O7    D    
C35   C37   A    
C12   C33   S    
C28   N6    T    
C14   C19   A    
C6    O13   A    
C10   C22   S    
Cu2   O9    S    
C27   N5    T    
C5    O12   A    
Cu1   O15   S    
C4    C37   S    
C18   C26   S    
