data_mof_unit_39865.cif
_audit_creation_date              2012-12-10T18:06:47-0500
_audit_creation_method            fapswitch 2.2
_symmetry_space_group_name_H-M    P1
_symmetry_Int_Tables_number       1
_space_group_crystal_system       triclinic
_cell_length_a                    12.599294
_cell_length_b                    13.147951
_cell_length_c                    15.466036
_cell_angle_alpha                 83.119467
_cell_angle_beta                  99.115705
_cell_angle_gamma                 96.679925
_cell_volume                      2499.03536809

loop_
_atom_site_label
_atom_site_type_symbol
_atom_type_description
_atom_site_fract_x
_atom_site_fract_y
_atom_site_fract_z
_atom_type_partial_charge
C1    C     C_R   0.442133 0.308735 0.506848 0.850104
C2    C     C_R   0.627262 0.382035 0.938515 0.160234
C3    C     C_R   0.533549 0.430779 0.902170 0.094520
C4    C     C_R   0.434210 0.510316 0.336253 0.856211
C5    C     C_R   0.703357 0.368527 0.885056 -0.250387
C6    C     C_R   0.687847 0.403262 0.795371 -0.004151
C7    C     C_R   0.523559 0.472386 0.814392 -0.275560
C8    C     C_R   0.643442 0.943376 0.369421 -0.201219
C9    C     C_R   0.582320 0.801139 0.469280 -0.053133
C10   C     C_R   0.331501 0.158946 0.568399 -0.186452
C11   C     C_R   0.310955 0.053266 0.586721 -0.147210
C12   C     C_R   0.415294 0.455193 0.102138 0.095624
C13   C     C_R   0.369070 0.987625 0.552844 -0.189018
C14   C     C_R   0.445644 0.027376 0.496132 0.087588
C15   C     C_R   0.453281 0.133195 0.467037 0.093972
C16   C     C_R   0.555941 0.691575 0.489007 0.860032
C17   C     C_R   0.514936 0.965759 0.467296 0.082938
C18   C     C_R   0.577312 0.006016 0.399792 0.181246
C19   C     C_R   0.571036 0.107370 0.362614 -0.254493
C20   C     C_R   0.509540 0.170346 0.395728 -0.205534
C21   C     C_R   0.525191 0.865373 0.505069 -0.254127
C22   C     C_R   0.644459 0.840253 0.403077 -0.193180
C23   C     C_R   0.314403 0.491016 0.065120 0.176427
C24   C     C_R   0.405271 0.199377 0.510947 -0.114131
C25   C     C_R   0.138983 0.641380 0.622356 -0.309901
C26   C     C_R   0.757161 0.380624 0.395724 0.032000
C27   C     C_R   0.852323 0.355037 0.373653 -0.250283
C28   C     C_R   0.564138 0.483634 0.664390 0.856963
C29   C     C_R   0.950269 0.400177 0.413443 -0.189596
C30   C     C_R   0.952762 0.471676 0.475549 0.016436
C31   C     C_R   0.853507 0.494912 0.495633 0.239570
C32   C     C_R   0.049048 0.520934 0.518197 -0.011687
C33   C     C_R   0.044385 0.592094 0.579736 0.195856
C34   C     C_R   0.481122 0.420722 0.047797 0.071577
C35   C     C_R   0.945459 0.613418 0.598008 -0.281576
C36   C     C_R   0.851266 0.565410 0.556267 -0.191603
C37   C     C_R   0.150700 0.502675 0.502308 -0.053402
C38   C     C_R   0.237077 0.619804 0.603535 0.008225
C39   C     C_R   0.390260 0.503634 0.243662 -0.056194
C40   C     C_R   0.596240 0.455862 0.759348 -0.113307
C41   C     C_R   0.249708 0.526437 0.118858 -0.206522
C42   C     C_R   0.287476 0.532636 0.207977 -0.193624
C43   C     C_R   0.452030 0.463624 0.191155 -0.273389
C44   C     C_1   0.766191 0.381383 0.743090 0.194975
C45   C     C_R   0.454973 0.441354 0.955624 0.071836
C46   C     C_R   0.351462 0.471986 0.920186 -0.232515
C47   C     C_R   0.281325 0.494176 0.974642 -0.239111
C48   C     C_R   0.573266 0.368558 0.082373 -0.231313
C49   C     C_R   0.644166 0.348037 0.027968 -0.227686
H1    H     H_    0.203237 0.518796 0.945411 0.147955
H2    H     H_    0.940786 0.667388 0.644757 0.153655
H3    H     H_    0.163079 0.450467 0.457166 0.125967
H4    H     H_    0.680495 0.346628 0.364773 0.122835
H5    H     H_    0.021837 0.377725 0.394010 0.137268
H6    H     H_    0.850212 0.300702 0.325902 0.143875
H7    H     H_    0.777758 0.584614 0.573097 0.212387
H8    H     H_    0.714259 0.308380 0.056544 0.142753
H9    H     H_    0.171571 0.552206 0.091447 0.137154
H10   H     H_    0.237513 0.562029 0.248284 0.160246
H11   H     H_    0.531627 0.444051 0.219864 0.156321
H12   H     H_    0.774294 0.329655 0.913076 0.139213
H13   H     H_    0.321933 0.477310 0.850499 0.153572
H14   H     H_    0.590872 0.340434 0.151094 0.136438
H15   H     H_    0.690596 0.972961 0.317395 0.136802
H16   H     H_    0.485738 0.833421 0.560710 0.140375
H17   H     H_    0.311758 0.656849 0.635493 0.125873
H18   H     H_    0.136984 0.695743 0.669376 0.140833
H19   H     H_    0.688778 0.790286 0.374421 0.160431
H20   H     H_    0.615024 0.138517 0.308951 0.137468
H21   H     H_    0.292202 0.209030 0.601298 0.162136
H22   H     H_    0.350450 0.906301 0.570314 0.130683
H23   H     H_    0.253122 0.022183 0.630296 0.143002
H24   H     H_    0.505173 0.248077 0.364229 0.151751
H25   H     H_    0.459046 0.519442 0.787745 0.162539
N1    N     N_R   0.239390 0.551900 0.544730 -0.101414
N2    N     N_R   0.759950 0.448600 0.455730 -0.128501
N3    N     N_1   0.829190 0.363331 0.701608 -0.195714
O1    O     O_R   0.374950 0.371210 0.521360 -0.614798
O2    O     O_R   0.542050 0.338030 0.492790 -0.606160
O3    O     O_R   0.368720 0.526070 0.390200 -0.613987
O4    O     O_R   0.535820 0.492890 0.361630 -0.628007
O5    O     O_R   0.457950 0.661970 0.507210 -0.608526
O6    O     O_R   0.625050 0.628790 0.478640 -0.636756
O7    O     O_R   0.464180 0.507110 0.638370 -0.614746
O8    O     O_R   0.631280 0.473930 0.609800 -0.620798
Zn1   Zn    Zn3+2 0.388420 0.522150 0.519080 0.937026
Zn2   Zn    Zn3+2 0.611580 0.477850 0.480920 0.934818

loop_
_geom_bond_atom_site_label_1
_geom_bond_atom_site_label_2
_ccdc_geom_bond_type
O6    Zn2   S    
C28   O7    A    
C41   C42   A    
C19   C20   A    
C25   H18   S    
O2    Zn2   S    
C45   C46   A    
C12   C23   A    
C26   C27   A    
C46   H13   S    
C44   N3    T    
C9    C16   S    
O7    Zn1   S    
C41   H9    S    
C4    O3    A    
C12   C43   A    
C3    C7    A    
C30   C31   A    
C27   H6    S    
C9    C22   A    
C27   C29   A    
C29   H5    S    
C28   C40   S    
C49   H8    S    
C18   C19   A    
O3    Zn1   S    
C4    O4    A    
C38   H17   S    
C26   N2    A    
C7    C40   A    
C39   C42   A    
O1    Zn1   S    
C37   N1    A    
C6    C44   S    
C13   C14   A    
C1    O1    A    
C14   C17   A    
C47   H1    S    
C38   N1    A    
O8    Zn2   S    
C15   C20   A    
C23   C47   A    
C37   H3    S    
C11   H23   S    
C48   H14   S    
C39   C43   A    
C13   H22   S    
C10   C24   A    
O5    Zn1   S    
C3    C45   A    
C16   O6    A    
C8    C18   A    
C35   C36   A    
C29   C30   A    
C36   H7    S    
C2    C49   A    
C25   C38   A    
N1    Zn1   S    
C8    C22   A    
C4    C39   S    
C16   O5    A    
C17   C18   A    
C5    H12   S    
C34   C45   A    
C32   C37   A    
N2    Zn2   S    
C22   H19   S    
O4    Zn2   S    
C43   H11   S    
C8    H15   S    
C10   H21   S    
C15   C24   A    
C35   H2    S    
C1    O2    A    
C6    C40   A    
C19   H20   S    
C2    C5    A    
C34   C48   A    
C12   C34   A    
C26   H4    S    
C46   C47   A    
C48   C49   A    
C21   H16   S    
C14   C15   A    
C42   H10   S    
C23   C41   A    
C32   C33   A    
C2    C3    A    
C7    H25   S    
C30   C32   A    
C11   C13   A    
C9    C21   A    
C31   N2    A    
C5    C6    A    
C33   C35   A    
C20   H24   S    
C17   C21   A    
C10   C11   A    
C1    C24   S    
C28   O8    A    
C31   C36   A    
C25   C33   A    
