data_mof_unit_19798.cif
_audit_creation_date              2012-12-10T20:40:04-0500
_audit_creation_method            fapswitch 2.2
_symmetry_space_group_name_H-M    P1
_symmetry_Int_Tables_number       1
_space_group_crystal_system       triclinic
_cell_length_a                    23.392429
_cell_length_b                    10.670211
_cell_length_c                    9.859124
_cell_angle_alpha                 89.79333
_cell_angle_beta                  90.066355
_cell_angle_gamma                 89.963676
_cell_volume                      2460.84041898

loop_
_atom_site_label
_atom_site_type_symbol
_atom_type_description
_atom_site_fract_x
_atom_site_fract_y
_atom_site_fract_z
_atom_type_partial_charge
C1    C     C_R   0.498238 0.260053 0.500365 0.907158
C2    C     C_R   0.970068 0.299179 0.376200 -0.150746
C3    C     C_R   0.029579 0.299024 0.375985 -0.146132
C4    C     C_R   0.059898 0.396981 0.437669 -0.023745
C5    C     C_R   0.030010 0.495675 0.500551 -0.019686
C6    C     C_R   0.060034 0.594257 0.563152 -0.026120
C7    C     C_R   0.029892 0.692172 0.625424 -0.143529
C8    C     C_R   0.970386 0.692623 0.625093 -0.151449
C9    C     C_R   0.119589 0.399671 0.437499 0.518819
C10   C     C_R   0.119694 0.592418 0.560879 0.525987
C11   C     C_R   0.237670 0.575670 0.398700 0.502650
C12   C     C_R   0.389497 0.502731 0.499811 0.891268
C13   C     C_R   0.297202 0.582756 0.403853 0.395440
C14   C     C_R   0.327450 0.507775 0.498911 -0.253239
C15   C     C_R   0.297894 0.431986 0.591100 -0.254168
C16   C     C_R   0.238792 0.428385 0.588889 -0.123719
C17   C     C_R   0.208612 0.499192 0.493541 0.100731
C18   C     C_R   0.762609 0.424030 0.597230 -0.091628
C19   C     C_R   0.703238 0.418427 0.596673 0.416182
C20   C     C_R   0.672615 0.491217 0.500124 -0.156663
C21   C     C_R   0.702134 0.562687 0.403272 -0.260862
C22   C     C_R   0.761393 0.565102 0.403687 -0.093474
C23   C     C_R   0.497362 0.740010 0.499680 0.905882
C24   C     C_R   0.791409 0.496270 0.500916 0.223872
C25   C     C_R   0.497116 0.063146 0.622667 0.175817
C26   C     C_R   0.488971 0.128930 0.502485 -0.152607
C27   C     C_R   0.468759 0.067238 0.386777 -0.320520
C28   C     C_R   0.467646 0.936398 0.384906 0.443100
C29   C     C_R   0.487643 0.871603 0.500759 -0.172397
C30   C     C_R   0.496559 0.935657 0.621691 0.068010
C31   C     C_3   0.544644 0.926444 0.721376 -0.445465
C32   C     C_3   0.545340 0.068478 0.722111 -0.451717
C33   C     C_R   0.449746 0.500397 0.071334 0.193072
C34   C     C_R   0.610527 0.496938 0.500102 0.855806
C35   C     C_R   0.549635 0.509966 0.071932 -0.111907
C36   C     C_R   0.549640 0.509872 0.928132 -0.126245
C37   C     C_R   0.449734 0.500645 0.928684 0.120437
C38   C     C_3   0.403352 0.403915 0.925002 0.233234
C39   C     C_3   0.403606 0.404277 0.079593 -0.541143
C40   C     C_R   0.880376 0.593424 0.560926 0.520301
C41   C     C_R   0.880247 0.399887 0.439048 0.519228
C42   C     C_R   0.939922 0.397364 0.437978 -0.022020
C43   C     C_R   0.969955 0.495980 0.500501 -0.017625
C44   C     C_R   0.940070 0.595030 0.562734 -0.022612
H1    H     H_    0.679260 0.618310 0.328704 0.173462
H2    H     H_    0.784083 0.620490 0.328904 0.156693
H3    H     H_    0.457079 0.119669 0.296545 0.167833
H4    H     H_    0.532037 0.109056 0.820820 0.212724
H5    H     H_    0.584953 0.109067 0.677910 0.201660
H6    H     H_    0.589811 0.515926 0.874505 0.181698
H7    H     H_    0.362996 0.439969 0.879983 0.150598
H8    H     H_    0.418378 0.315297 0.127241 0.210056
H9    H     H_    0.052137 0.768845 0.674106 0.197965
H10   H     H_    0.948280 0.769552 0.673651 0.195806
H11   H     H_    0.786672 0.369549 0.670622 0.164318
N1    N     N_R   0.852123 0.496853 0.499847 -0.351546
N2    N     N_R   0.147833 0.496737 0.497716 -0.358876
N3    N     N_R   0.499610 0.499140 0.142800 -0.100436
N4    N     N_R   0.499610 0.499180 0.857150 -0.106277
O1    O     O_R   0.500010 0.316790 0.614690 -0.590068
O2    O     O_2   0.850388 0.306671 0.379819 -0.543705
O3    O     O_2   0.149318 0.306972 0.377024 -0.531849
O4    O     O_2   0.149547 0.685433 0.620486 -0.524937
O5    O     O_R   0.500000 0.316760 0.385350 -0.626421
O6    O     O_R   0.416160 0.499980 0.614700 -0.600610
O7    O     O_R   0.416150 0.499940 0.385360 -0.607381
O8    O     O_R   0.500000 0.683240 0.614650 -0.624556
O9    O     O_R   0.499990 0.683210 0.385310 -0.555439
O10   O     O_R   0.583850 0.500060 0.614640 -0.621016
O11   O     O_R   0.583840 0.500020 0.385300 -0.625003
O12   O     O_2   0.850652 0.686936 0.619953 -0.544905
Zn1   Zn    Zn3+2 0.500000 0.500020 0.653130 0.980336
Zn2   Zn    Zn3+2 0.500000 0.499980 0.346870 0.985446
H12   H     H_    0.947822 0.222419 0.327680 0.196055
O13   O     O_3   0.677456 0.339090 0.689007 -0.761304
H13   H     H_    0.639716 0.313427 0.653361 0.329694
O14   O     O_3   0.450275 0.871767 0.270818 -0.737411
H14   H     H_    0.437980 0.932521 0.200203 0.341197
H15   H     H_    0.530741 0.884953 0.819534 0.221192
H16   H     H_    0.583908 0.884399 0.677069 0.205826
H17   H     H_    0.589812 0.516177 0.125675 0.161320
H18   H     H_    0.051686 0.222224 0.327193 0.198320
O15   O     O_3   0.420744 0.289164 0.868052 -0.715493
H19   H     H_    0.457207 0.262946 0.911454 0.337577
H20   H     H_    0.363672 0.443316 0.123517 0.222110
O16   O     O_3   0.209572 0.646996 0.302044 -0.684184
H21   H     H_    0.168282 0.627077 0.302717 0.332274
O17   O     O_3   0.323883 0.665071 0.315877 -0.685856
H22   H     H_    0.360872 0.691238 0.355459 0.351692
H23   H     H_    0.320659 0.373592 0.663234 0.203790
H24   H     H_    0.216164 0.370144 0.661227 0.180057

loop_
_geom_bond_atom_site_label_1
_geom_bond_atom_site_label_2
_ccdc_geom_bond_type
C33   N3    A    
C40   O12   S    
C38   O15   S    
C41   C42   A    
C19   C20   A    
C41   O2    S    
C43   C44   A    
C36   N4    A    
C10   O4    S    
C35   H17   S    
C7    C8    A    
O14   H14   S    
C26   C27   A    
C33   C39   S    
C35   N3    A    
C18   C24   A    
C23   C29   S    
C28   C29   A    
C37   C38   S    
C18   C19   A    
C5    C6    A    
O1    Zn1   S    
C11   O16   S    
C15   C16   A    
O8    Zn1   S    
C23   O8    A    
C31   C32   S    
C16   C17   A    
C40   N1    A    
O5    Zn2   S    
C34   O11   A    
C2    H12   S    
N4    Zn1   S    
C20   C34   S    
C25   C32   S    
C39   H8    S    
C5    C43   A    
C13   C14   A    
C32   H4    S    
C3    H18   S    
C21   H1    S    
C9    O3    S    
C31   H16   S    
C10   N2    A    
C1    O1    A    
C8    H10   S    
O16   H21   S    
C38   H7    S    
O9    Zn2   S    
O7    Zn2   S    
C12   O7    A    
C33   C37   A    
C35   C36   A    
C23   O9    A    
O10   Zn1   S    
O13   H13   S    
C41   N1    A    
C29   C30   A    
O15   H19   S    
C30   C31   S    
O11   Zn2   S    
C20   C21   A    
C28   O14   S    
C34   O10   A    
C37   N4    A    
C18   H11   S    
C22   H2    S    
C12   C14   S    
C1    C26   S    
C22   C24   A    
C42   C43   A    
C39   H20   S    
C3    C4    A    
C1    O5    A    
C36   H6    S    
C27   H3    S    
C25   C30   A    
C11   C17   A    
C8    C44   A    
C4    C5    A    
C6    C10   A    
C31   H15   S    
C6    C7    A    
C24   N1    S    
O6    Zn1   S    
C12   O6    A    
C19   O13   S    
C2    C3    A    
C25   C26   A    
C15   H23   S    
C11   C13   A    
C38   C39   S    
C2    C42   A    
C13   O17   S    
C9    N2    A    
C32   H5    S    
C40   C44   A    
O17   H22   S    
C16   H24   S    
C27   C28   A    
C7    H9    S    
C14   C15   A    
C4    C9    A    
C21   C22   A    
N3    Zn2   S    
C17   N2    S    
