data_mof_unit_21880.cif
_audit_creation_date              2012-12-10T17:25:14-0500
_audit_creation_method            fapswitch 2.2
_symmetry_space_group_name_H-M    P1
_symmetry_Int_Tables_number       1
_space_group_crystal_system       triclinic
_cell_length_a                    27.767324
_cell_length_b                    10.84479
_cell_length_c                    9.672663
_cell_angle_alpha                 90.906026
_cell_angle_beta                  89.559074
_cell_angle_gamma                 95.005995
_cell_volume                      2901.20520514

loop_
_atom_site_label
_atom_site_type_symbol
_atom_type_description
_atom_site_fract_x
_atom_site_fract_y
_atom_site_fract_z
_atom_type_partial_charge
C1    C     C_R   0.495515 0.262280 0.498451 0.816704
C2    C     C_R   0.970379 0.366046 0.515500 0.014342
C3    C     C_R   0.976302 0.586861 0.579359 0.087892
C4    C     C_R   0.407479 0.498679 0.500505 0.870183
C5    C     C_R   0.947932 0.475524 0.545939 0.055988
C6    C     C_R   0.941670 0.263776 0.459934 -0.237272
C7    C     C_R   0.891217 0.263022 0.449476 0.428629
C8    C     C_R   0.868277 0.368389 0.492860 -0.067895
C9    C     C_R   0.896819 0.474593 0.540616 -0.124229
C10   C     C_R   0.874313 0.580893 0.581884 -0.001172
C11   C     C_R   0.823862 0.579113 0.577665 0.545726
C12   C     C_R   0.280518 0.509763 0.641127 0.535036
C13   C     C_R   0.817573 0.372860 0.485954 0.589263
C14   C     C_R   0.713638 0.395807 0.590327 -0.087982
C15   C     C_R   0.663752 0.401138 0.581917 -0.296296
C16   C     C_R   0.500668 0.738210 0.502030 0.797392
C17   C     C_R   0.675890 0.580533 0.434577 0.469161
C18   C     C_R   0.725925 0.571465 0.438528 -0.172305
C19   C     C_R   0.745037 0.480513 0.517990 0.267544
C20   C     C_R   0.021194 0.364656 0.534098 0.042982
C21   C     C_R   0.049697 0.479567 0.548363 0.001952
C22   C     C_R   0.027296 0.591191 0.566331 -0.003583
C23   C     C_R   0.252789 0.489111 0.521276 0.202289
C24   C     C_R   0.044583 0.253263 0.541158 0.389919
C25   C     C_R   0.106879 0.708526 0.560459 0.513187
C26   C     C_R   0.952620 0.690565 0.623995 -0.205002
C27   C     C_R   0.902534 0.687034 0.626374 -0.130657
C28   C     C_R   0.592144 0.498481 0.499999 0.862664
C29   C     C_R   0.056479 0.704273 0.567297 -0.290421
C30   C     C_R   0.444483 0.110956 0.717313 0.460074
C31   C     C_R   0.449620 0.071808 0.852797 -0.265220
C32   C     C_R   0.477140 0.972780 0.877151 0.463696
C33   C     C_R   0.490600 0.899302 0.765274 -0.281864
C34   C     C_R   0.100877 0.482967 0.543994 -0.118907
C35   C     C_R   0.486910 0.940454 0.627991 -0.023451
C36   C     C_R   0.472460 0.060176 0.611647 -0.035581
C37   C     C_R   0.488301 0.126830 0.493933 -0.097078
C38   C     C_R   0.503185 0.062862 0.376914 -0.190299
C39   C     C_R   0.505744 0.936002 0.381533 -0.188647
C40   C     C_R   0.173977 0.375915 0.527584 0.571230
C41   C     C_R   0.499252 0.873264 0.506744 -0.073265
C42   C     C_R   0.568812 0.653147 0.150837 -0.130305
C43   C     C_R   0.607543 0.717692 0.088487 -0.335483
C44   C     C_R   0.612346 0.714974 0.947113 0.317254
C45   C     C_R   0.123390 0.371696 0.534885 -0.043869
C46   C     C_R   0.574718 0.656632 0.866263 0.419156
C47   C     C_R   0.536319 0.574184 0.927379 0.002327
C48   C     C_R   0.534980 0.573925 0.076811 0.126720
C49   C     C_R   0.465498 0.434379 0.073985 -0.168812
C50   C     C_R   0.464126 0.438090 0.926423 0.492102
C51   C     C_R   0.180339 0.596585 0.539045 0.625271
C52   C     C_R   0.275312 0.469775 0.393928 -0.276567
C53   C     C_R   0.325882 0.475176 0.383337 0.459480
C54   C     C_R   0.330947 0.515442 0.631404 -0.361202
C55   C     C_3   0.133812 0.879615 0.686327 -0.228371
C56   C     C_R   0.095246 0.258418 0.537550 -0.248003
C57   C     C_3   0.668546 0.787785 0.438807 -0.326798
C58   C     C_3   0.375159 0.151105 0.608682 -0.277512
C59   C     C_3   0.260627 0.428235 0.850969 -0.308790
C60   C     C_3   0.541787 0.999688 0.016723 -0.340307
C61   C     C_3   0.344412 0.551098 0.169770 -0.279371
C62   C     C_R   0.129592 0.597389 0.547967 -0.125501
C63   C     C_R   0.354136 0.496447 0.503899 -0.212025
C64   C     C_R   0.644609 0.492042 0.502399 -0.105316
Cu1   Cu    Cu3+1 0.500000 0.499990 0.640660 1.039122
Cu2   Cu    Cu3+1 0.500000 0.500010 0.359340 0.971988
H1    H     H_    0.351860 0.535202 0.724426 0.211186
H2    H     H_    0.514734 0.887055 0.288144 0.189761
H3    H     H_    0.437254 0.380710 0.129939 0.169750
H4    H     H_    0.567128 0.669650 0.258659 0.241114
H5    H     H_    0.633247 0.774673 0.150389 0.208201
H6    H     H_    0.112656 0.172828 0.539330 0.186565
H7    H     H_    0.639992 0.334497 0.637871 0.164487
H8    H     H_    0.727912 0.326196 0.653621 0.166799
H9    H     H_    0.958193 0.185582 0.416104 0.194962
H10   H     H_    0.147366 0.818907 0.766556 0.169737
H11   H     H_    0.097415 0.907217 0.715481 0.127070
H12   H     H_    0.253352 0.450330 0.302813 0.168831
H13   H     H_    0.158736 0.965259 0.683387 0.206508
H14   H     H_    0.707305 0.820725 0.425253 0.203419
H15   H     H_    0.659389 0.779389 0.550769 0.200183
H16   H     H_    0.646750 0.859262 0.396454 0.174181
H17   H     H_    0.356419 0.067020 0.656277 0.164782
H18   H     H_    0.387342 0.129861 0.501878 0.159175
H19   H     H_    0.348391 0.220858 0.601010 0.196994
H20   H     H_    0.298486 0.417432 0.882169 0.165370
H21   H     H_    0.244473 0.341861 0.799556 0.183656
H22   H     H_    0.239491 0.442593 0.946780 0.192389
H23   H     H_    0.972042 0.774877 0.661463 0.148434
H24   H     H_    0.544941 0.102263 0.007120 0.170393
H25   H     H_    0.564888 0.957662 0.937419 0.172364
H26   H     H_    0.556902 0.978187 0.117940 0.173734
H27   H     H_    0.674970 0.812463 0.954297 0.341803
H28   H     H_    0.592293 0.773621 0.717587 0.327084
H29   H     H_    0.400747 0.346795 0.924372 0.299545
H30   H     H_    0.885638 0.094546 0.372762 0.322573
H31   H     H_    0.039876 0.074129 0.567878 0.321513
H32   H     H_    0.361277 0.638316 0.217645 0.176701
H33   H     H_    0.306418 0.562058 0.140307 0.162726
H34   H     H_    0.886035 0.769058 0.661188 0.193062
H35   H     H_    0.364720 0.533864 0.073201 0.179850
H36   H     H_    0.750048 0.636971 0.382290 0.162768
H37   H     H_    0.040905 0.791997 0.566887 0.154052
H38   H     H_    0.513312 0.110966 0.282462 0.179349
H39   H     H_    0.434196 0.120985 0.938294 0.168607
H40   H     H_    0.508618 0.819923 0.791592 0.212884
N1    N     N_R   0.201137 0.487084 0.528911 -0.443666
N2    N     N_R   0.796597 0.476955 0.528260 -0.467887
N3    N     N_R   0.500460 0.501210 0.147910 -0.195434
N4    N     N_R   0.500480 0.501290 0.852040 -0.183796
O1    O     O_R   0.500000 0.319640 0.618810 -0.536043
O2    O     O_R   0.569730 0.499970 0.618800 -0.528764
O3    O     O_R   0.569740 0.499990 0.381230 -0.586002
O4    O     O_2   0.195966 0.269797 0.519566 -0.548959
O5    O     O_3   0.133473 0.822448 0.554249 -0.535499
O6    O     O_3   0.657239 0.675692 0.365249 -0.616930
O7    O     O_3   0.414011 0.201708 0.690603 -0.532471
O8    O     O_3   0.258030 0.531926 0.766019 -0.565489
O9    O     O_3   0.492856 0.951074 0.008842 -0.574248
O10   O     O_3   0.651965 0.776940 0.883245 -0.736342
O11   O     O_3   0.574422 0.691452 0.731327 -0.698515
O12   O     O_2   0.789372 0.274989 0.435797 -0.465700
O13   O     O_3   0.424686 0.383971 0.857005 -0.664912
O14   O     O_3   0.864158 0.160417 0.395880 -0.659439
O15   O     O_3   0.017973 0.141485 0.563704 -0.751170
O16   O     O_3   0.347274 0.449466 0.257686 -0.577154
O17   O     O_2   0.208910 0.703797 0.540294 -0.472373
O18   O     O_2   0.802120 0.678924 0.622969 -0.532199
O19   O     O_R   0.500000 0.319660 0.381240 -0.598334
O20   O     O_R   0.430260 0.500010 0.618770 -0.518906
O21   O     O_R   0.430270 0.500030 0.381200 -0.546571
O22   O     O_R   0.500000 0.680340 0.618760 -0.542469
O23   O     O_R   0.500000 0.680360 0.381190 -0.613202

loop_
_geom_bond_atom_site_label_1
_geom_bond_atom_site_label_2
_ccdc_geom_bond_type
C10   C27   A    
C8    C13   A    
Cu2   O3    S    
C39   H2    S    
C35   C36   A    
C42   H4    S    
C7    O14   S    
Cu1   O20   S    
C33   H40   S    
C6    H9    S    
C39   C41   A    
C61   H33   S    
C28   O2    A    
C26   H23   S    
C4    C63   S    
C26   C27   A    
C14   H8    S    
C36   C37   A    
C22   C29   A    
C1    O19   A    
C28   O3    A    
C25   O5    S    
C17   C64   A    
C30   C31   A    
C55   H11   S    
C31   C32   A    
C54   C63   A    
C44   O10   S    
C34   C62   A    
C29   H37   S    
C60   O9    S    
C18   C19   A    
C18   H36   S    
C59   H22   S    
Cu1   O1    S    
C38   H38   S    
C13   N2    A    
C40   O4    S    
C20   C24   A    
C45   C56   A    
C8    C9    A    
C56   H6    S    
C15   C64   A    
C46   O11   S    
C61   O16   S    
H27   O10   S    
C4    O21   A    
C9    C10   A    
C1    C37   S    
Cu2   O19   S    
C19   N2    S    
C48   N3    A    
C49   H3    S    
C21   C22   A    
C31   H39   S    
C57   H14   S    
C2    C6    A    
C51   C62   A    
C50   N4    A    
C52   H12   S    
C16   O23   A    
C44   C46   A    
C57   O6    S    
C60   H26   S    
C25   C29   A    
C40   C45   A    
C27   H34   S    
H30   O14   S    
C2    C20   A    
C7    C8    A    
H31   O15   S    
C53   O16   S    
C4    O20   A    
C54   H1    S    
C58   O7    S    
C61   H35   S    
C43   C44   A    
Cu1   O2    S    
C5    C9    A    
C37   C38   A    
C58   H18   S    
Cu2   O23   S    
C55   H13   S    
C47   C48   A    
C12   C23   A    
C23   N1    S    
C17   C18   A    
C34   C45   A    
C42   C48   A    
C35   C41   A    
C40   N1    A    
C12   O8    S    
C55   H10   S    
C28   C64   S    
C15   H7    S    
C49   C50   A    
C59   O8    S    
C24   O15   S    
C57   H15   S    
C2    C5    A    
C42   C43   A    
C32   O9    S    
C58   H19   S    
Cu1   O22   S    
C52   C53   A    
C49   N3    A    
Cu2   O21   S    
C60   H25   S    
H29   O13   S    
C46   C47   A    
C43   H5    S    
C14   C15   A    
C14   C19   A    
C3    C26   A    
C50   O13   S    
C3    C5    A    
C6    C7    A    
C21   C34   A    
C30   O7    S    
C60   H24   S    
C24   C56   A    
C47   N4    A    
C30   C36   A    
C51   O17   S    
C32   C33   A    
C11   O18   S    
C59   H20   S    
C58   H17   S    
C1    O1    A    
C13   O12   S    
C53   C63   A    
C61   H32   S    
C23   C52   A    
C38   C39   A    
C55   O5    S    
C33   C35   A    
C25   C62   A    
Cu2   N3    S    
C16   O22   A    
C59   H21   S    
Cu1   N4    S    
C10   C11   A    
H28   O11   S    
C20   C21   A    
C51   N1    A    
Cu1   Cu2   S    
C11   N2    A    
C57   H16   S    
C3    C22   A    
C16   C41   S    
C12   C54   A    
C17   O6    S    
