data_mof_unit_28938.cif
_audit_creation_date              2012-12-10T16:39:32-0500
_audit_creation_method            fapswitch 2.2
_symmetry_space_group_name_H-M    P1
_symmetry_Int_Tables_number       1
_space_group_crystal_system       triclinic
_cell_length_a                    16.881807
_cell_length_b                    16.844411
_cell_length_c                    16.843346
_cell_angle_alpha                 65.632573
_cell_angle_beta                  65.930689
_cell_angle_gamma                 65.922065
_cell_volume                      3814.58895313

loop_
_atom_site_label
_atom_site_type_symbol
_atom_type_description
_atom_site_fract_x
_atom_site_fract_y
_atom_site_fract_z
_atom_type_partial_charge
C1    C     C_R   0.313032 0.003916 0.433036 0.026481
C2    C     C_R   0.331079 0.463111 0.930776 0.034363
C3    C     C_R   0.551386 0.417672 0.968083 -0.021034
C4    C     C_R   0.005175 0.456571 0.589682 -0.022403
C5    C     C_R   0.995352 0.543265 0.410203 -0.022697
C6    C     C_R   0.056941 0.671547 0.539478 0.030596
C7    C     C_R   0.943246 0.328430 0.460511 0.031582
C8    C     C_R   0.454238 0.989749 0.452478 0.045898
C9    C     C_R   0.546121 0.007785 0.548803 0.045621
C10   C     C_R   0.975032 0.459303 0.458658 0.047789
C11   C     C_R   0.025345 0.540602 0.541274 0.047833
C12   C     C_R   0.467503 0.465476 0.948362 0.044624
C13   C     C_R   0.556455 0.553593 0.981843 0.045695
C14   C     C_R   0.962935 0.179589 0.437639 0.876814
C15   C     C_R   0.687305 0.994709 0.567577 0.024730
C16   C     C_R   0.037083 0.820415 0.562360 0.878184
C17   C     C_R   0.179478 0.438016 0.962114 0.871913
C18   C     C_R   0.820654 0.563063 0.034594 0.873405
C19   C     C_R   0.438085 0.961910 0.179419 0.893123
C20   C     C_R   0.562027 0.037836 0.820603 0.851147
C21   C     C_R   0.569660 0.824792 0.017717 0.885674
C22   C     C_R   0.437137 0.179176 0.963885 0.876788
C23   C     C_R   0.035483 0.562926 0.820801 0.875915
C24   C     C_R   0.964565 0.437060 0.179199 0.880880
C25   C     C_R   0.824543 0.018039 0.569986 0.883909
C26   C     C_R   0.950206 0.459451 0.325257 0.029360
C27   C     C_R   0.175548 0.981670 0.430101 0.885343
C28   C     C_R   0.408011 0.979714 0.405108 0.075522
C29   C     C_R   0.592329 0.018442 0.595756 0.072239
C30   C     C_R   0.955421 0.415981 0.415087 0.068575
C31   C     C_R   0.044875 0.583958 0.584867 0.068079
C32   C     C_R   0.419996 0.418998 0.938674 0.073563
C33   C     C_R   0.599801 0.597218 0.001034 0.070764
C34   C     C_R   0.269250 0.980191 0.392841 -0.110687
C35   C     C_R   0.730932 0.019130 0.607381 -0.111718
C36   C     C_R   0.944553 0.408782 0.277764 -0.116849
C37   C     C_R   0.050148 0.540473 0.674671 0.030211
C38   C     C_R   0.055607 0.591196 0.722226 -0.117235
C39   C     C_R   0.408415 0.278008 0.941179 -0.120255
C40   C     C_R   0.606743 0.732146 0.015394 -0.105124
C41   C     C_R   0.594211 0.052186 0.722749 -0.121393
C42   C     C_R   0.405969 0.947164 0.277413 -0.130626
C43   C     C_R   0.723894 0.595102 0.043387 -0.121620
C44   C     C_R   0.278867 0.409410 0.938628 -0.123455
C45   C     C_R   0.058330 0.720992 0.590902 -0.118552
C46   C     C_R   0.941746 0.279015 0.409110 -0.117838
C47   C     C_R   0.448981 0.080434 0.696199 -0.129524
C48   C     C_R   0.461339 0.327796 0.938318 0.030847
C49   C     C_R   0.551313 0.917743 0.304597 -0.141227
C50   C     C_R   0.066851 0.705962 0.444900 -0.132184
C51   C     C_R   0.933436 0.293985 0.555074 -0.136119
C52   C     C_R   0.708187 0.452009 0.046595 -0.143880
C53   C     C_R   0.299336 0.558829 0.913293 -0.147011
C54   C     C_R   0.265454 0.050744 0.499366 -0.142731
C55   C     C_R   0.734979 0.947629 0.501445 -0.148441
C56   C     C_R   0.553610 0.289529 0.937122 -0.149571
C57   C     C_R   0.497292 0.741963 0.943253 -0.150760
C58   C     C_R   0.953591 0.550930 0.285894 -0.132095
C59   C     C_R   0.567203 0.691706 0.986533 0.026944
C60   C     C_R   0.047104 0.448892 0.713918 -0.134034
C61   C     C_R   0.316182 0.952103 0.316275 -0.274160
C62   C     C_R   0.683911 0.047505 0.683773 -0.277613
C63   C     C_R   0.935984 0.322225 0.321673 -0.283465
C64   C     C_R   0.064062 0.677799 0.678355 -0.279512
C65   C     C_R   0.320303 0.320380 0.937638 -0.272687
C66   C     C_R   0.682778 0.683301 0.044256 -0.283479
C67   C     C_R   0.690678 0.938746 0.452108 -0.066450
C68   C     C_R   0.309701 0.058729 0.549276 -0.065001
C69   C     C_R   0.014006 0.411296 0.677941 -0.091091
C70   C     C_R   0.544215 0.050751 0.672501 0.033304
C71   C     C_R   0.986883 0.588376 0.321807 -0.086177
C72   C     C_R   0.447873 0.699028 0.932431 -0.072035
C73   C     C_R   0.594153 0.327848 0.964262 -0.084715
C74   C     C_R   0.598737 0.923443 0.353465 -0.067131
C75   C     C_R   0.401580 0.073909 0.647920 -0.057633
C76   C     C_R   0.349001 0.607452 0.916301 -0.069623
C77   C     C_R   0.671474 0.409392 0.019355 -0.082057
C78   C     C_R   0.954354 0.335071 0.599036 -0.072923
C79   C     C_R   0.046173 0.664760 0.400857 -0.067796
C80   C     C_R   0.739830 0.900466 0.379235 0.334031
C81   C     C_R   0.456074 0.947826 0.328067 0.037274
C82   C     C_R   0.260485 0.096408 0.622557 0.340870
C83   C     C_R   0.987499 0.330759 0.729268 0.370863
C84   C     C_R   0.013943 0.668594 0.270269 0.373780
C85   C     C_R   0.369501 0.749109 0.902089 0.331997
C86   C     C_R   0.675561 0.277920 0.988704 0.342877
C87   C     C_R   0.694289 0.892626 0.330249 0.347007
C88   C     C_R   0.306014 0.104142 0.671585 0.367797
C89   C     C_R   0.319016 0.703340 0.896405 0.346415
C90   C     C_R   0.712027 0.317395 0.019816 0.340503
C91   C     C_R   0.953587 0.295324 0.691360 0.373365
C92   C     C_R   0.677748 0.547108 0.031706 0.040308
C93   C     C_R   0.047381 0.704281 0.308396 0.378278
C94   C     C_R   0.549548 0.961273 0.426894 -0.025718
C95   C     C_R   0.450802 0.036018 0.574547 -0.024337
C96   C     C_R   0.978754 0.416634 0.548988 -0.024306
C97   C     C_R   0.021706 0.583232 0.450919 -0.024791
C98   C     C_R   0.430804 0.558863 0.939926 -0.026019
C99   C     C_R   0.593120 0.460193 0.989870 -0.024184
C100  C     C_R   0.595455 0.969790 0.475503 -0.019742
C101  C     C_R   0.404910 0.027531 0.525939 -0.017341
C102  C     C_R   0.477827 0.603846 0.952133 -0.019223
Cl1   Cl    Cl    0.241496 0.151410 0.763307 -0.477898
Cl2   Cl    Cl    0.331002 0.869488 0.874330 -0.479598
Cl3   Cl    Cl    0.012267 0.722005 0.155425 -0.416926
Cl4   Cl    Cl    0.990964 0.276290 0.843453 -0.395973
Cl5   Cl    Cl    0.758788 0.844414 0.239177 -0.492333
Cl6   Cl    Cl    0.088880 0.799785 0.239338 -0.451514
Cl7   Cl    Cl    0.911843 0.200006 0.760561 -0.428926
Cl8   Cl    Cl    0.810783 0.251233 0.055742 -0.444064
Cl9   Cl    Cl    0.218503 0.767872 0.863331 -0.469537
Cl10  Cl    Cl    0.140914 0.129637 0.657543 -0.495882
Cl11  Cl    Cl    0.859376 0.866589 0.344677 -0.511004
Cl12  Cl    Cl    0.728971 0.163176 0.987808 -0.432933
H1    H     H_    0.280840 0.940830 0.282370 0.207161
H2    H     H_    0.908288 0.235773 0.595373 0.214764
H3    H     H_    0.759400 0.410082 0.081204 0.210833
H4    H     H_    0.237997 0.596299 0.893309 0.211371
H5    H     H_    0.193959 0.084309 0.510298 0.210239
H6    H     H_    0.806615 0.914754 0.490137 0.212814
H7    H     H_    0.595670 0.230608 0.914253 0.215928
H8    H     H_    0.481973 0.814711 0.915257 0.216623
H9    H     H_    0.928422 0.595532 0.228500 0.224463
H10   H     H_    0.072313 0.404428 0.771316 0.223497
H11   H     H_    0.719103 0.059288 0.717451 0.207766
H12   H     H_    0.933652 0.284532 0.284100 0.204615
H13   H     H_    0.066295 0.715524 0.715959 0.208554
H14   H     H_    0.280699 0.280864 0.942114 0.210873
H15   H     H_    0.714455 0.716365 0.061310 0.207474
H16   H     H_    0.412035 0.112336 0.749946 0.204475
H17   H     H_    0.588198 0.886388 0.250429 0.205972
H18   H     H_    0.091981 0.764190 0.404641 0.215520
O1    O     O_R   0.982940 0.138950 0.510160 -0.629926
O2    O     O_R   0.982940 0.510160 0.138950 -0.628333
O3    O     O_R   0.861050 0.017060 0.489840 -0.622566
O4    O     O_R   0.138950 0.982940 0.510160 -0.617724
O5    O     O_R   0.867700 0.025880 0.612340 -0.618907
O6    O     O_R   0.132300 0.974120 0.387660 -0.620038
O7    O     O_R   0.025880 0.612340 0.867700 -0.611309
O8    O     O_R   0.974120 0.387660 0.132300 -0.610770
O9    O     O_R   0.612340 0.867700 0.025880 -0.615240
O10   O     O_R   0.387660 0.132300 0.974120 -0.611135
O11   O     O_R   0.387660 0.974120 0.132300 -0.604555
O12   O     O_R   0.017060 0.861050 0.489840 -0.630348
O13   O     O_R   0.612340 0.025880 0.867700 -0.616450
O14   O     O_R   0.132300 0.387660 0.974120 -0.609208
O15   O     O_R   0.867700 0.612340 0.025880 -0.606211
O16   O     O_R   0.974120 0.132300 0.387660 -0.610078
O17   O     O_R   0.025880 0.867700 0.612340 -0.605635
O18   O     O_R   0.138950 0.510160 0.982940 -0.618412
O19   O     O_R   0.861050 0.489840 0.017060 -0.622572
O20   O     O_R   0.510160 0.982940 0.138950 -0.611427
O21   O     O_R   0.489840 0.017060 0.861050 -0.623929
O22   O     O_R   0.489840 0.861050 0.017060 -0.629083
O23   O     O_R   0.510160 0.138950 0.982940 -0.624885
O24   O     O_R   0.017060 0.489840 0.861050 -0.628839
Zn1   Zn    Zn3+2 0.004880 0.004880 0.583590 1.101246
Zn2   Zn    Zn3+2 0.995120 0.995120 0.416410 1.087849
Zn3   Zn    Zn3+2 0.004880 0.583590 0.004880 1.099401
Zn4   Zn    Zn3+2 0.995120 0.416410 0.995120 1.098200
Zn5   Zn    Zn3+2 0.583590 0.004880 0.004880 1.095375
Zn6   Zn    Zn3+2 0.416410 0.995120 0.995120 1.094343

loop_
_geom_bond_atom_site_label_1
_geom_bond_atom_site_label_2
_ccdc_geom_bond_type
O9    Zn5   S    
C6    C45   A    
C39   C65   A    
C74   C94   A    
C17   O18   A    
O15   Zn3   S    
C50   C79   A    
C72   C85   A    
C52   C77   A    
C75   C95   A    
C14   C46   S    
O23   Zn5   S    
C49   H17   S    
C58   H9    S    
C24   C36   S    
C72   C102  A    
C27   O4    A    
C23   O7    A    
C16   O12   A    
C79   C93   A    
C29   C70   A    
C93   Cl6   S    
C58   C71   A    
C57   C59   A    
O14   Zn4   S    
C76   C98   A    
C14   O16   A    
C86   Cl12  S    
C2    C32   A    
C49   C81   A    
C60   H10   S    
O6    Zn2   S    
C3    C12   A    
C57   H8    S    
C4    C96   A    
C78   C96   A    
C61   H1    S    
C1    C28   A    
C21   O22   A    
C15   C29   A    
C16   O17   A    
C10   C96   A    
C74   C87   A    
C36   C63   A    
C8    C101  A    
C9    C95   A    
O11   Zn6   S    
C12   C98   A    
O20   Zn5   S    
C19   C42   S    
C9    C29   A    
C76   C89   A    
C22   O23   A    
C66   H15   S    
C52   H3    S    
O2    Zn3   S    
C11   C31   A    
C33   C59   A    
C40   C59   A    
C40   C66   A    
C54   H5    S    
C12   C32   A    
C32   C48   A    
C44   C65   A    
C42   C81   A    
C41   C62   A    
C3    C73   A    
C15   C35   A    
C4    C69   A    
C79   C97   A    
C1    C34   A    
C20   C41   S    
C38   C64   A    
C55   H6    S    
C27   C34   S    
C77   C90   A    
C27   O6    A    
C20   O21   A    
C47   H16   S    
C63   H12   S    
C7    C46   A    
O24   Zn4   S    
C8    C94   A    
C68   C101  A    
C18   O15   A    
C86   C90   A    
C33   C92   A    
C2    C44   A    
C85   C89   A    
C53   H4    S    
C98   C102  A    
C34   C61   A    
C24   O8    A    
C31   C37   A    
C15   C55   A    
C13   C99   A    
C77   C99   A    
C25   O5    A    
C1    C54   A    
C65   H14   S    
C47   C70   A    
C13   C33   A    
C37   C38   A    
C69   C83   A    
C7    C51   A    
C10   C30   A    
C94   C100  A    
C64   H13   S    
C22   O10   A    
C19   O20   A    
C87   Cl5   S    
O16   Zn2   S    
C6    C50   A    
C4    C11   A    
C26   C58   A    
C42   C61   A    
C85   Cl2   S    
C50   H18   S    
C67   C100  A    
C25   C35   S    
O4    Zn1   S    
C26   C36   A    
C5    C97   A    
C26   C30   A    
C9    C100  A    
C8    C28   A    
C52   C92   A    
C53   C76   A    
C84   Cl3   S    
C90   Cl8   S    
O12   Zn2   S    
C18   O19   A    
C88   Cl1   S    
C71   C84   A    
C24   O2    A    
C48   C56   A    
C19   O11   A    
C56   C73   A    
C28   C81   A    
C49   C74   A    
O22   Zn6   S    
C67   C80   A    
C43   C92   A    
C47   C75   A    
C2    C53   A    
C16   C45   S    
O10   Zn6   S    
C62   H11   S    
C55   C67   A    
C14   O1    A    
C78   C91   A    
C80   C87   A    
C23   C38   S    
C83   C91   A    
C89   Cl9   S    
C45   C64   A    
C51   H2    S    
C83   Cl4   S    
O5    Zn1   S    
O21   Zn6   S    
C11   C97   A    
C68   C82   A    
C56   H7    S    
C91   Cl7   S    
C17   O14   A    
C17   C44   S    
C21   O9    A    
C5    C10   A    
C5    C71   A    
C18   C43   S    
O19   Zn4   S    
C46   C63   A    
O13   Zn5   S    
C60   C69   A    
C43   C66   A    
C82   C88   A    
C22   C39   S    
C6    C31   A    
C35   C62   A    
O1    Zn1   S    
C84   C93   A    
C57   C72   A    
C25   O3    A    
C73   C86   A    
C51   C78   A    
C37   C60   A    
O7    Zn3   S    
C3    C99   A    
C75   C88   A    
C54   C68   A    
C80   Cl11  S    
C7    C30   A    
O3    Zn2   S    
C20   O13   A    
C41   C70   A    
O18   Zn3   S    
C13   C102  A    
C23   O24   A    
O17   Zn1   S    
O8    Zn4   S    
C95   C101  A    
C82   Cl10  S    
C39   C48   A    
C21   C40   S    
