data_mof_unit_68093.cif
_audit_creation_date              2013-03-05T15:56:12-0500
_audit_creation_method            fapswitch 2.2
_symmetry_space_group_name_H-M    P1
_symmetry_Int_Tables_number       1
_space_group_crystal_system       triclinic
_cell_length_a                    7.109818
_cell_length_b                    14.758931
_cell_length_c                    16.005569
_cell_angle_alpha                 90.000159
_cell_angle_beta                  89.99945
_cell_angle_gamma                 90.272168
_cell_volume                      1679.49843725

loop_
_atom_site_label
_atom_site_type_symbol
_atom_site_description
_atom_site_fract_x
_atom_site_fract_y
_atom_site_fract_z
_atom_type_partial_charge
O1    O     O_R   0.638140 0.833910 0.163320 -0.582682
O2    O     O_R   0.361860 0.166090 0.836680 -0.577508
O3    O     O_R   0.361860 0.166090 0.663320 -0.582698
O4    O     O_R   0.638140 0.833910 0.336680 -0.577500
O5    O     O_R   0.138140 0.666090 0.336680 -0.580375
O6    O     O_R   0.861860 0.333910 0.663320 -0.572565
O7    O     O_R   0.861860 0.333910 0.836680 -0.580379
O8    O     O_R   0.138140 0.666090 0.163320 -0.572569
O9    O     O_R   0.308390 0.844930 0.336080 -0.558484
O10   O     O_R   0.691610 0.155070 0.663920 -0.591264
O11   O     O_R   0.691610 0.155070 0.836080 -0.558448
O12   O     O_R   0.308390 0.844930 0.163920 -0.591285
O13   O     O_R   0.808390 0.655070 0.163920 -0.559832
O14   O     O_R   0.191610 0.344930 0.836080 -0.602029
O15   O     O_R   0.191610 0.344930 0.663920 -0.559833
O16   O     O_R   0.808390 0.655070 0.336080 -0.602024
C1    C     C_R   0.478694 0.868503 0.363285 1.015948
C2    C     C_R   0.523887 0.138376 0.631284 1.029469
C3    C     C_R   0.521304 0.131499 0.863286 1.015921
C4    C     C_R   0.476114 0.861627 0.131286 1.029451
C5    C     C_R   0.978115 0.631754 0.136967 1.017458
C6    C     C_R   0.023632 0.364355 0.866855 1.034804
C7    C     C_R   0.021886 0.368246 0.636967 1.017461
C8    C     C_R   0.976367 0.635646 0.366856 1.034810
O17   O     O_3   0.471620 0.691320 0.250000 -0.284307
O18   O     O_3   0.528380 0.308680 0.750000 -0.284311
O19   O     O_3   0.971620 0.808680 0.250000 -0.285988
O20   O     O_3   0.028380 0.191320 0.750000 -0.285980
V1    V     V_3+5 0.196770 0.760880 0.250000 1.210941
V2    V     V_3+5 0.803230 0.239120 0.750000 1.210963
V3    V     V_3+5 0.696770 0.739120 0.250000 1.207143
V4    V     V_3+5 0.303230 0.260880 0.750000 1.207141
C9    C     C_R   0.846396 0.501936 0.448190 0.401141
C10   C     C_R   0.130811 0.515365 0.569722 0.423553
C11   C     C_R   0.153603 0.498065 0.948188 0.401165
C12   C     C_R   0.869192 0.484636 0.069723 0.423557
C13   C     C_R   0.323698 0.976073 0.035726 0.405263
C14   C     C_R   0.640334 0.987639 0.933190 0.462531
C15   C     C_R   0.676301 0.023933 0.535718 0.405269
C16   C     C_R   0.359663 0.012368 0.433188 0.462602
C17   C     C_R   0.861531 0.434912 0.510402 0.420914
C18   C     C_R   0.117244 0.581904 0.504912 0.350374
C19   C     C_R   0.138469 0.565090 0.010399 0.420910
C20   C     C_R   0.882756 0.418098 0.004913 0.350374
C21   C     C_R   0.342635 0.051469 0.981288 0.441510
C22   C     C_R   0.628044 0.920283 0.996886 0.399145
C23   C     C_R   0.657361 0.948536 0.481283 0.441516
C24   C     C_R   0.371959 0.079725 0.496882 0.399151
C25   C     C_R   0.006085 0.440099 0.571260 -0.558241
C26   C     C_R   0.982914 0.571244 0.440101 -0.546284
C27   C     C_R   0.993919 0.559901 0.071260 -0.558246
C28   C     C_R   0.017084 0.428758 0.940101 -0.546289
C29   C     C_R   0.504488 0.058100 0.928521 -0.586144
C30   C     C_R   0.481601 0.923595 0.056148 -0.583859
C31   C     C_R   0.495507 0.941903 0.428519 -0.586171
C32   C     C_R   0.518400 0.076410 0.556144 -0.583883
O21   O     O_3   0.699828 0.496235 0.391940 -0.655857
C33   C     C_3   0.542715 0.540114 0.426723 0.019864
H1    H     H_    0.435739 0.548783 0.377122 0.162570
H2    H     H_    0.577391 0.609071 0.450124 0.117491
H3    H     H_    0.480412 0.498908 0.477737 0.170923
O22   O     O_3   0.274621 0.522046 0.627965 -0.605007
C34   C     C_3   0.200791 0.545995 0.707190 -0.147451
H4    H     H_    0.163864 0.485492 0.743927 0.181632
H5    H     H_    0.075522 0.590577 0.704261 0.056645
H6    H     H_    0.311402 0.582928 0.742267 0.170628
O23   O     O_3   0.300174 0.503764 0.891937 -0.655857
C35   C     C_3   0.457281 0.459884 0.926721 0.019826
H7    H     H_    0.564264 0.451216 0.877120 0.162576
H8    H     H_    0.422601 0.390925 0.950116 0.117497
H9    H     H_    0.519579 0.501086 0.977739 0.170941
O24   O     O_3   0.725384 0.477957 0.127969 -0.605004
C36   C     C_3   0.799216 0.454006 0.207193 -0.147452
H10   H     H_    0.836162 0.514509 0.243927 0.181616
H11   H     H_    0.924474 0.409417 0.204261 0.056652
H12   H     H_    0.688600 0.417081 0.242273 0.170634
O25   O     O_3   0.150024 0.934517 0.045960 -0.600930
C37   C     C_3   0.030734 0.985748 0.096572 0.064073
H13   H     H_    0.106390 0.027458 0.142935 0.021366
H14   H     H_    0.937915 0.938967 0.131730 0.168594
H15   H     H_    0.940319 0.027044 0.056157 0.163363
O26   O     O_3   0.785878 0.982512 0.875794 -0.556114
C38   C     C_3   0.714835 0.956377 0.796524 -0.238566
H16   H     H_    0.702475 0.015606 0.755037 0.169528
H17   H     H_    0.576547 0.920648 0.798284 0.079771
H18   H     H_    0.816801 0.909798 0.767142 0.138315
O27   O     O_3   0.849975 0.065492 0.545940 -0.600937
C39   C     C_3   0.969259 0.014274 0.596564 0.064058
H19   H     H_    0.893594 0.972591 0.642943 0.021397
H20   H     H_    0.062099 0.061062 0.631701 0.168615
H21   H     H_    0.059652 0.972954 0.556160 0.163338
O28   O     O_3   0.214135 0.017506 0.375786 -0.556118
C40   C     C_3   0.285210 0.043599 0.296508 -0.238828
H22   H     H_    0.297237 0.984358 0.255006 0.169737
H23   H     H_    0.423682 0.079184 0.298243 0.079862
H24   H     H_    0.183407 0.090285 0.267150 0.138273
O29   O     O_3   0.717631 0.371372 0.516047 -0.645451
C41   C     C_3   0.773194 0.285162 0.486195 0.288137
H25   H     H_    0.660323 0.237291 0.503021 0.127486
H26   H     H_    0.898328 0.258543 0.518875 0.118452
C42   C     C_3   0.795956 0.282225 0.390875 -0.421192
H27   H     H_    0.667440 0.306064 0.359944 0.224471
H28   H     H_    0.908333 0.329253 0.371610 0.218411
C43   C     C_3   0.839451 0.186863 0.359248 -0.928328
H29   H     H_    0.922224 0.192305 0.300877 0.250860
H30   H     H_    0.709694 0.148226 0.345336 0.249205
H31   H     H_    0.920193 0.147387 0.405692 0.334866
O30   O     O_3   0.234247 0.657968 0.503050 -0.663372
C44   C     C_3   0.219460 0.708251 0.578193 0.198771
H32   H     H_    0.320045 0.682814 0.624303 0.170250
H33   H     H_    0.078957 0.704433 0.605743 0.091970
C45   C     C_3   0.265338 0.807461 0.563628 -0.267913
H34   H     H_    0.398404 0.811353 0.530369 0.201746
H35   H     H_    0.159395 0.838295 0.522289 0.217206
C46   C     C_3   0.284393 0.860207 0.645801 -1.141525
H36   H     H_    0.147102 0.871054 0.675637 0.268546
H37   H     H_    0.348045 0.927593 0.633673 0.258097
H38   H     H_    0.373829 0.823850 0.691308 0.288620
O31   O     O_3   0.282373 0.628628 0.016043 -0.645454
C47   C     C_3   0.226815 0.714843 0.986201 0.288156
H39   H     H_    0.339692 0.762710 0.003030 0.127469
H40   H     H_    0.101687 0.741463 0.018885 0.118451
C48   C     C_3   0.204049 0.717792 0.890881 -0.421187
H41   H     H_    0.332561 0.693951 0.859944 0.224461
H42   H     H_    0.091657 0.670772 0.871613 0.218404
C49   C     C_3   0.160574 0.813163 0.859267 -0.928301
H43   H     H_    0.077825 0.807734 0.800888 0.250855
H44   H     H_    0.290340 0.851801 0.845376 0.249196
H45   H     H_    0.079810 0.852633 0.905710 0.334861
O32   O     O_3   0.765750 0.342035 0.003052 -0.663375
C50   C     C_3   0.780539 0.291753 0.078195 0.198768
H46   H     H_    0.679964 0.317191 0.124309 0.170252
H47   H     H_    0.921043 0.295570 0.105743 0.091965
C51   C     C_3   0.734654 0.192543 0.063633 -0.267915
H48   H     H_    0.601588 0.188652 0.030374 0.201748
H49   H     H_    0.840598 0.161707 0.022294 0.217207
C52   C     C_3   0.715595 0.139802 0.145808 -1.141545
H50   H     H_    0.852887 0.128960 0.175645 0.268570
H51   H     H_    0.651947 0.072415 0.133683 0.258102
H52   H     H_    0.626155 0.176161 0.191314 0.288618
O33   O     O_3   0.189061 0.108837 0.972548 -0.620447
C53   C     C_3   0.226596 0.196989 0.004951 0.254782
H53   H     H_    0.106648 0.240467 0.988100 0.119551
H54   H     H_    0.347093 0.230114 0.973952 0.080574
C54   C     C_3   0.248513 0.199773 0.100628 -0.459245
H55   H     H_    0.116092 0.180779 0.130986 0.202775
H56   H     H_    0.351392 0.148742 0.120793 0.209578
C55   C     C_3   0.308092 0.293662 0.132622 -0.951436
H57   H     H_    0.393378 0.286452 0.190190 0.261920
H58   H     H_    0.187288 0.336312 0.149471 0.245378
H59   H     H_    0.388361 0.331702 0.084899 0.274128
O34   O     O_3   0.741264 0.843649 0.994930 -0.622014
C56   C     C_3   0.695037 0.790214 0.923688 0.202802
H60   H     H_    0.790250 0.808017 0.872479 0.159749
H61   H     H_    0.550773 0.800808 0.900695 0.067956
C57   C     C_3   0.719301 0.689364 0.940712 -0.266253
H62   H     H_    0.851185 0.679949 0.973831 0.185389
H63   H     H_    0.608154 0.663773 0.982624 0.242311
C58   C     C_3   0.726274 0.633308 0.860032 -1.077157
H64   H     H_    0.808226 0.668052 0.810473 0.266810
H65   H     H_    0.584518 0.619460 0.835168 0.292667
H66   H     H_    0.794640 0.567496 0.872724 0.259389
O35   O     O_3   0.810932 0.891166 0.472542 -0.620446
C59   C     C_3   0.773397 0.803018 0.504955 0.254759
H67   H     H_    0.893345 0.759537 0.488106 0.119548
H68   H     H_    0.652901 0.769889 0.473959 0.080576
C60   C     C_3   0.751482 0.800246 0.600632 -0.459202
H69   H     H_    0.883904 0.819248 0.630985 0.202764
H70   H     H_    0.648601 0.851279 0.620794 0.209565
C61   C     C_3   0.691914 0.706361 0.632640 -0.951442
H71   H     H_    0.606591 0.713579 0.690196 0.261908
H72   H     H_    0.812723 0.663729 0.649517 0.245375
H73   H     H_    0.611689 0.668300 0.584917 0.274121
O36   O     O_3   0.258757 0.156363 0.494922 -0.622028
C62   C     C_3   0.304987 0.209788 0.423673 0.202851
H74   H     H_    0.209776 0.191978 0.372468 0.159763
H75   H     H_    0.449246 0.199186 0.400676 0.067956
C63   C     C_3   0.280716 0.310639 0.440686 -0.266325
H76   H     H_    0.148840 0.320056 0.473813 0.185413
H77   H     H_    0.391868 0.336238 0.482590 0.242313
C64   C     C_3   0.273718 0.366687 0.360002 -1.077092
H78   H     H_    0.191728 0.331941 0.310455 0.266809
H79   H     H_    0.415468 0.380525 0.335120 0.292633
H80   H     H_    0.205375 0.432507 0.372697 0.259387

loop_
_geom_bond_atom_site_label_1
_geom_bond_atom_site_label_2
_geom_bond_distance
_ccdc_geom_bond_type
O17   V3    1.746268 S    
C22   O34   1.391703 S    
O27   C39   1.397609 S    
C34   H5    1.110834 S    
O18   V4    1.746268 S    
C40   H22   1.101691 S    
O12   V1    2.014315 S    
O19   V1    1.752401 S    
C36   H10   1.099925 S    
O35   C59   1.424630 S    
C10   C18   1.432007 A    
C55   H59   1.105115 S    
C15   O27   1.385821 S    
C50   C51   1.516634 S    
C19   C27   1.417819 A    
C51   C52   1.533997 S    
C45   H35   1.102510 S    
C63   H76   1.086641 S    
C48   H41   1.098585 S    
C62   H75   1.101575 S    
O25   C37   1.397618 S    
O16   V3    2.018962 S    
C52   H51   1.107841 S    
O11   C3    1.331457 A    
C59   H68   1.102345 S    
C42   H27   1.098569 S    
O8    V1    2.012510 S    
C23   C31   1.430379 A    
C57   H62   1.086642 S    
C55   H58   1.100811 S    
C44   H33   1.093159 S    
C37   H14   1.106579 S    
C48   H42   1.099987 S    
C61   H71   1.108422 S    
C33   H2    1.111059 S    
C46   H36   1.099076 S    
C41   H25   1.100141 S    
O29   C41   1.417056 S    
O1    V3    2.015267 S    
O30   C44   1.417408 S    
O3    C2    1.327308 A    
O2    V4    2.015266 S    
C16   C24   1.426318 A    
O36   C62   1.423991 S    
C45   H34   1.086834 S    
C38   H16   1.101606 S    
O11   V2    2.014314 S    
C35   H7    1.107288 S    
C46   H37   1.107842 S    
C49   H44   1.104914 S    
C58   H65   1.101806 S    
C56   H61   1.101572 S    
C11   C19   1.408049 A    
C1    C31   1.508893 S    
C24   O36   1.391694 S    
C47   C48   1.534838 S    
C2    C32   1.511289 S    
C46   H38   1.107269 S    
C23   O35   1.391924 S    
C3    C29   1.508891 S    
C33   H3    1.109131 S    
O15   C7    1.328389 A    
C34   H6    1.107570 S    
C21   C29   1.430384 A    
O16   C8    1.324542 A    
O7    V2    2.012509 S    
C43   H30   1.104920 S    
C14   O26   1.386060 S    
C21   O33   1.391925 S    
C36   H11   1.110831 S    
C53   C54   1.539790 S    
O12   C4    1.323925 A    
C17   C25   1.417817 A    
C43   H29   1.106867 S    
C54   H56   1.100768 S    
C47   H40   1.105797 S    
C54   H55   1.094802 S    
C62   C63   1.523770 S    
O5    V1    2.012509 S    
C64   H79   1.101836 S    
O17   V1    2.211712 S    
C52   H52   1.107277 S    
C18   O30   1.394379 S    
O19   V3    2.203077 S    
O23   C35   1.408537 S    
O4    V3    2.015255 S    
O20   V4    2.203077 S    
C55   H57   1.108428 S    
C4    C30   1.511287 S    
C44   C45   1.516639 S    
C60   H69   1.094797 S    
C37   H13   1.102631 S    
C48   C49   1.528724 S    
C51   H49   1.102510 S    
C49   H45   1.106711 S    
C9    C26   1.412713 A    
C64   H78   1.108539 S    
C13   O25   1.385826 S    
C60   H70   1.100768 S    
O22   C34   1.417799 S    
O10   V2    2.014320 S    
C58   H64   1.108500 S    
C39   H21   1.098576 S    
C11   O23   1.379404 S    
C16   C31   1.424606 A    
C22   C30   1.409474 A    
O8    C5    1.312899 A    
C58   H66   1.107022 S    
O13   C5    1.328388 A    
C15   C32   1.405460 A    
C16   O28   1.386061 S    
C56   C57   1.523770 S    
C8    C26   1.510112 S    
C14   C29   1.424592 A    
C12   C27   1.418304 A    
C18   C26   1.418288 A    
C60   C61   1.535012 S    
O9    C1    1.331453 A    
C38   H17   1.113835 S    
C39   H20   1.106575 S    
O18   V2    2.211712 S    
C42   C43   1.528700 S    
C41   H26   1.105798 S    
C36   H12   1.107569 S    
C17   O29   1.387526 S    
C12   C20   1.432001 A    
O4    C1    1.316282 A    
C13   C21   1.419196 A    
C50   H46   1.095258 S    
O7    C6    1.324066 A    
C10   O22   1.386813 S    
C5    C27   1.498127 S    
C54   C55   1.535008 S    
C47   H39   1.100144 S    
C15   C23   1.419189 A    
C64   H80   1.107042 S    
C24   C32   1.409474 A    
C59   H67   1.103187 S    
O1    C4    1.327310 A    
C9    O21   1.379406 S    
O6    V2    2.012510 S    
O2    C3    1.316278 A    
O13   V3    2.018948 S    
C59   C60   1.539795 S    
O14   V4    2.018947 S    
O24   C36   1.417799 S    
C50   H47   1.093151 S    
O15   V4    2.018963 S    
C63   H77   1.101930 S    
O31   C47   1.417057 S    
C35   H9    1.109137 S    
C51   H48   1.086839 S    
C57   C58   1.534549 S    
C40   H24   1.106440 S    
C41   C42   1.534839 S    
C13   C30   1.405469 A    
C52   H50   1.099080 S    
C9    C17   1.408052 A    
O14   C6    1.324539 A    
C57   H63   1.101952 S    
O32   C50   1.417408 S    
C33   H1    1.107282 S    
C62   H74   1.094231 S    
O33   C53   1.424630 S    
O9    V1    2.014319 S    
C37   H15   1.098584 S    
C20   C28   1.418291 A    
O21   C33   1.408537 S    
C40   H23   1.113980 S    
O5    C8    1.324063 A    
C61   H72   1.100801 S    
O10   C2    1.323930 A    
C49   H43   1.106876 S    
O6    C7    1.312904 A    
O20   V2    1.752401 S    
O28   C40   1.418407 S    
C6    C28   1.510109 S    
C53   H54   1.102343 S    
C43   H31   1.106700 S    
O3    V4    2.015256 S    
C14   C22   1.426321 A    
C63   C64   1.534551 S    
C7    C25   1.498137 S    
C34   H4    1.099923 S    
C38   H18   1.106362 S    
C39   H19   1.102621 S    
C10   C25   1.418309 A    
C42   H28   1.099968 S    
O26   C38   1.418395 S    
C11   C28   1.412717 A    
C35   H8    1.111056 S    
C53   H53   1.103186 S    
O34   C56   1.423978 S    
C56   H60   1.094255 S    
C44   H32   1.095260 S    
C20   O32   1.394380 S    
C45   C46   1.533998 S    
C12   O24   1.386814 S    
C19   O31   1.387527 S    
C61   H73   1.105116 S    
