data_mof_unit_50248.cif
_audit_creation_date              2012-10-26T18:56:50-0400
_audit_creation_method            fapswitch 2.2
_symmetry_space_group_name_H-M    P1
_symmetry_Int_Tables_number       1
_space_group_crystal_system       triclinic
_cell_length_a                    23.526895
_cell_length_b                    15.844217
_cell_length_c                    14.619324
_cell_angle_alpha                 89.058534
_cell_angle_beta                  89.893664
_cell_angle_gamma                 89.89929
_cell_volume                      5448.82247854

loop_
_atom_site_label
_atom_site_type_symbol
_atom_type_description
_atom_site_fract_x
_atom_site_fract_y
_atom_site_fract_z
_atom_type_partial_charge
C1    C     C_R   0.500366 0.339524 0.500683 0.541196
C2    C     C_R   0.702431 0.544813 0.563705 0.213078
C3    C     C_R   0.239893 0.443048 0.442350 -0.097737
C4    C     C_R   0.761679 0.541661 0.563314 -0.080632
C5    C     C_R   0.209389 0.499782 0.495730 0.161092
C6    C     C_R   0.790803 0.495445 0.497332 0.147396
C7    C     C_3   0.529990 0.975178 0.424252 0.226647
C8    C     C_3   0.476002 0.025001 0.575393 0.231384
C9    C     C_3   0.476421 0.031244 0.425975 0.224912
C10   C     C_3   0.529564 0.968920 0.573677 0.224696
C11   C     C_1   0.501863 0.250094 0.502363 0.020315
C12   C     C_R   0.500179 0.660501 0.499302 0.538362
C13   C     C_1   0.500862 0.749994 0.497540 0.023850
C14   C     C_3   0.557945 0.026643 0.500779 0.164853
C15   C     C_3   0.448040 0.973648 0.498883 0.172578
C16   C     C_R   0.390807 0.499866 0.500266 0.621670
C17   C     C_R   0.609179 0.499546 0.499839 0.556820
C18   C     C_3   0.504037 0.083240 0.502529 -0.010033
C19   C     C_3   0.501906 0.916939 0.497111 -0.013314
C20   C     C_1   0.503151 0.174691 0.503217 0.067311
C21   C     C_1   0.501451 0.825440 0.496542 0.069067
C22   C     C_3   0.478172 0.572277 0.967768 0.213710
C23   C     C_R   0.238069 0.555841 0.552725 0.285957
C24   C     C_3   0.522918 0.428114 0.032074 0.222776
C25   C     C_3   0.445907 0.507728 0.029132 0.154597
C26   C     C_3   0.555131 0.492602 0.970559 0.170538
C27   C     C_3   0.531340 0.565010 0.029319 0.232594
C28   C     C_3   0.469786 0.435343 0.970377 0.220161
C29   C     C_3   0.499405 0.500508 0.091798 -0.033589
C30   C     C_3   0.501622 0.499954 0.908043 -0.041953
C31   C     C_1   0.499692 0.500248 0.194257 0.251310
C32   C     C_1   0.500777 0.499967 0.805693 0.242791
C33   C     C_R   0.879762 0.540874 0.430979 0.456495
C34   C     C_R   0.760483 0.449640 0.432062 0.294151
C35   C     C_R   0.120616 0.454232 0.561641 0.449652
C36   C     C_R   0.880166 0.450681 0.563125 0.454423
C37   C     C_R   0.120225 0.540967 0.426793 0.466155
C38   C     C_R   0.940286 0.450984 0.565918 -0.000607
C39   C     C_R   0.060086 0.541266 0.424465 0.000827
C40   C     C_R   0.970055 0.495884 0.495890 -0.127190
C41   C     C_R   0.030312 0.497033 0.495026 -0.126329
C42   C     C_R   0.939544 0.539175 0.426218 0.001757
C43   C     C_R   0.060802 0.454632 0.565396 0.004196
C44   C     C_R   0.971566 0.408893 0.635994 0.252785
C45   C     C_R   0.297636 0.552780 0.558721 0.214421
C46   C     C_R   0.028775 0.583527 0.354538 0.253616
C47   C     C_R   0.031005 0.414131 0.637771 0.283909
C48   C     C_R   0.969276 0.579511 0.353681 0.282890
C49   C     C_3   0.435595 0.702250 0.992482 0.015080
C50   C     C_3   0.433354 0.791189 0.951746 -0.391007
C51   C     C_3   0.565337 0.297813 0.008348 0.028938
C52   C     C_3   0.567364 0.209212 0.050030 -0.388504
C53   C     C_3   0.412003 0.319364 0.999278 0.012704
C54   C     C_3   0.402590 0.230509 0.964519 -0.382957
C55   C     C_3   0.588924 0.680850 0.997990 0.028199
C56   C     C_R   0.700890 0.449391 0.433760 0.219140
C57   C     C_3   0.599480 0.769521 0.032507 -0.380982
C58   C     C_3   0.066587 0.436821 0.779571 0.034235
C59   C     C_3   0.100204 0.397445 0.858133 -0.312161
C60   C     C_3   0.932261 0.557622 0.212681 0.034259
C61   C     C_3   0.898613 0.597872 0.134666 -0.301451
C62   C     C_3   0.326156 0.572165 0.705399 0.018997
C63   C     C_3   0.362214 0.626925 0.766828 -0.310083
C64   C     C_3   0.658228 0.323971 0.404132 0.039345
C65   C     C_3   0.625290 0.275225 0.332764 -0.325682
C66   C     C_3   0.322745 0.395429 0.300496 0.029273
C67   C     C_R   0.328402 0.498693 0.500772 -0.006362
C68   C     C_3   0.364955 0.339787 0.250622 -0.331002
C69   C     C_3   0.656838 0.669722 0.593178 0.009830
C70   C     C_3   0.699517 0.738727 0.614959 -0.362638
C71   C     C_3   0.426803 0.013975 0.290605 0.026479
C72   C     C_3   0.420167 0.055262 0.196504 -0.388295
C73   C     C_3   0.579424 0.986187 0.708788 0.020263
C74   C     C_3   0.586164 0.945035 0.802925 -0.389980
C75   C     C_3   0.580621 0.006258 0.291780 0.017531
C76   C     C_3   0.586869 0.976010 0.194040 -0.384092
C77   C     C_3   0.425608 0.994463 0.708269 0.025661
C78   C     C_R   0.671587 0.497908 0.499188 -0.033591
C79   C     C_3   0.419378 0.025308 0.805789 -0.384442
C80   C     C_R   0.299460 0.443560 0.442468 0.187296
Cl1   Cl    Cl    0.939464 0.348157 0.724910 -0.442870
Cl2   Cl    Cl    0.060892 0.643782 0.265272 -0.443766
Cl3   Cl    Cl    0.374710 0.517211 0.069720 -0.674222
Cl4   Cl    Cl    0.626152 0.482766 0.929238 -0.568770
Cl5   Cl    Cl    0.199236 0.631090 0.614953 -0.505501
Cl6   Cl    Cl    0.796951 0.390787 0.348993 -0.509277
Cl7   Cl    Cl    0.377029 0.934525 0.497093 -0.567447
Cl8   Cl    Cl    0.628900 0.065982 0.502804 -0.646141
Cu1   Cu    Cu3+1 0.500010 0.500000 0.590220 1.053204
Cu2   Cu    Cu3+1 0.499990 0.500000 0.409780 1.058595
H1    H     H_    0.217025 0.397878 0.401666 0.147963
H2    H     H_    0.524027 0.189067 0.071146 0.141205
H3    H     H_    0.584045 0.164222 0.999037 0.103868
H4    H     H_    0.595541 0.207959 0.110932 0.165971
H5    H     H_    0.369803 0.347853 0.013177 0.194502
H6    H     H_    0.436466 0.314117 0.064300 0.156625
H7    H     H_    0.444021 0.200374 0.948638 0.148685
H8    H     H_    0.380426 0.191859 0.017617 0.095880
H9    H     H_    0.376187 0.232709 0.901622 0.180341
H10   H     H_    0.563572 0.686524 0.933927 0.167704
H11   H     H_    0.630664 0.651855 0.981872 0.209237
H12   H     H_    0.785330 0.576501 0.613719 0.164151
H13   H     H_    0.626849 0.766843 0.094310 0.183246
H14   H     H_    0.621051 0.807989 0.978624 0.099020
H15   H     H_    0.558503 0.800177 0.050139 0.146217
H16   H     H_    0.024586 0.457446 0.806548 0.157922
H17   H     H_    0.090277 0.493282 0.753813 0.160712
H18   H     H_    0.142797 0.377449 0.833665 0.193602
H19   H     H_    0.105652 0.444200 0.913184 0.115110
H20   H     H_    0.077254 0.341608 0.886383 0.189012
H21   H     H_    0.907981 0.501938 0.238996 0.174059
H22   H     H_    0.973781 0.535713 0.184988 0.154572
H23   H     H_    0.462176 0.703863 0.055350 0.176837
H24   H     H_    0.922117 0.652962 0.105871 0.185037
H25   H     H_    0.892117 0.551200 0.079828 0.123895
H26   H     H_    0.856487 0.619181 0.159883 0.203803
H27   H     H_    0.344283 0.507125 0.706940 0.145898
H28   H     H_    0.282412 0.569771 0.734265 0.183599
H29   H     H_    0.344518 0.691905 0.768627 0.177748
H30   H     H_    0.362318 0.599768 0.837331 0.165721
H31   H     H_    0.406565 0.629646 0.740821 0.192061
H32   H     H_    0.631303 0.328302 0.466627 0.119313
H33   H     H_    0.697632 0.287957 0.421118 0.193278
H34   H     H_    0.391672 0.683355 0.011448 0.207771
H35   H     H_    0.651804 0.267016 0.270601 0.184417
H36   H     H_    0.613487 0.212050 0.360689 0.127798
H37   H     H_    0.585900 0.309946 0.313698 0.186656
H38   H     H_    0.330906 0.462342 0.279527 0.188126
H39   H     H_    0.279187 0.377076 0.279211 0.142028
H40   H     H_    0.358978 0.272664 0.271520 0.171696
H41   H     H_    0.357949 0.346058 0.175956 0.111854
H42   H     H_    0.409133 0.359205 0.266589 0.181645
H43   H     H_    0.615775 0.686072 0.626101 0.176346
H44   H     H_    0.648706 0.669347 0.517954 0.115104
H45   H     H_    0.405338 0.792750 0.890663 0.163956
H46   H     H_    0.740418 0.726661 0.579485 0.160071
H47   H     H_    0.682688 0.800918 0.591456 0.154369
H48   H     H_    0.706961 0.740627 0.689894 0.173474
H49   H     H_    0.384012 0.995202 0.315657 0.212308
H50   H     H_    0.453395 0.956324 0.282833 0.167797
H51   H     H_    0.462365 0.074962 0.169579 0.139306
H52   H     H_    0.400934 0.009831 0.148554 0.106219
H53   H     H_    0.392244 0.111671 0.200862 0.165440
H54   H     H_    0.552942 0.043954 0.716561 0.170161
H55   H     H_    0.622214 0.004727 0.683533 0.209337
H56   H     H_    0.416344 0.835549 0.003109 0.106051
H57   H     H_    0.614038 0.888576 0.798515 0.167356
H58   H     H_    0.605527 0.990500 0.850706 0.106213
H59   H     H_    0.543992 0.925458 0.830080 0.142548
H60   H     H_    0.623604 0.021110 0.318184 0.204520
H61   H     H_    0.554713 0.065172 0.289906 0.155895
H62   H     H_    0.544520 0.960208 0.165647 0.143375
H63   H     H_    0.606398 0.026460 0.150791 0.099647
H64   H     H_    0.614407 0.919040 0.192464 0.176695
H65   H     H_    0.451645 0.935690 0.710522 0.164134
H66   H     H_    0.382636 0.979281 0.682046 0.212390
H67   H     H_    0.476666 0.811911 0.931157 0.146494
H68   H     H_    0.391739 0.082180 0.806988 0.177462
H69   H     H_    0.399969 0.975061 0.849458 0.101643
H70   H     H_    0.461722 0.041459 0.833972 0.141894
H71   H     H_    0.609243 0.316187 0.988657 0.214048
H72   H     H_    0.538521 0.295839 0.945770 0.169474
N1    N     N_R   0.851823 0.495514 0.497015 -0.388937
N2    N     N_R   0.148469 0.498061 0.494390 -0.386021
N3    N     N_1   0.499980 0.500000 0.274190 -0.181769
N4    N     N_1   0.500020 0.500000 0.725810 -0.183868
O1    O     O_R   0.500010 0.379080 0.576170 -0.488166
O2    O     O_2   0.151219 0.409965 0.624006 -0.437022
O3    O     O_2   0.849630 0.406510 0.625475 -0.385776
O4    O     O_2   0.150874 0.582626 0.362607 -0.384284
O5    O     O_3   0.457229 0.647084 0.926110 -0.580695
O6    O     O_3   0.544224 0.353788 0.074350 -0.555362
O7    O     O_3   0.440046 0.367631 0.931083 -0.549100
O8    O     O_3   0.561554 0.632912 0.067350 -0.541701
O9    O     O_3   0.059875 0.376528 0.710168 -0.469196
O10   O     O_3   0.940311 0.617811 0.281807 -0.471708
O11   O     O_3   0.326145 0.607163 0.615763 -0.508529
O12   O     O_R   0.499990 0.620920 0.423830 -0.488593
O13   O     O_3   0.671479 0.404940 0.368294 -0.496264
O14   O     O_3   0.329878 0.383053 0.395574 -0.541213
O15   O     O_3   0.675179 0.591136 0.630317 -0.512081
O16   O     O_3   0.450806 0.072962 0.350500 -0.552349
O17   O     O_3   0.555212 0.927197 0.649113 -0.560816
O18   O     O_3   0.556010 0.941262 0.345838 -0.544952
O19   O     O_3   0.450056 0.059220 0.653717 -0.543292
O20   O     O_R   0.500000 0.379080 0.423800 -0.507627
O21   O     O_R   0.500000 0.620920 0.576200 -0.502760
O22   O     O_R   0.417890 0.499980 0.576200 -0.493290
O23   O     O_R   0.582110 0.500020 0.423800 -0.462469
O24   O     O_R   0.417870 0.499970 0.423830 -0.474871
O25   O     O_R   0.582130 0.500030 0.576170 -0.460209
O26   O     O_2   0.849331 0.588057 0.370921 -0.420952

loop_
_geom_bond_atom_site_label_1
_geom_bond_atom_site_label_2
_ccdc_geom_bond_type
C72   H53   S    
C66   C68   S    
Cu2   O12   S    
C34   C56   A    
C69   H44   S    
C23   C45   A    
C32   N4    T    
C53   H5    S    
C77   O19   S    
C73   C74   S    
C14   C18   S    
C12   O12   A    
C58   O9    S    
C1    C11   S    
C79   H68   S    
C53   O7    S    
C39   C41   A    
C1    O20   A    
C17   O25   A    
C25   C28   S    
C15   C19   S    
C26   C27   S    
C7    O18   S    
C33   O26   S    
C60   H22   S    
C33   C42   A    
C80   O14   S    
C74   H58   S    
C51   O6    S    
C19   C21   S    
C24   C26   S    
C50   H45   S    
C77   H66   S    
C79   H69   S    
C73   O17   S    
C28   O7    S    
C27   C29   S    
C76   H62   S    
C75   H60   S    
C76   H63   S    
C59   H20   S    
C56   C78   A    
C61   H24   S    
C51   H72   S    
C3    H1    S    
C58   H17   S    
C34   Cl6   S    
C76   H64   S    
C68   H42   S    
C24   C29   S    
Cu1   O1    S    
C62   H27   S    
C9    O16   S    
C46   Cl2   S    
C7    C14   S    
C31   N3    T    
C75   H61   S    
C22   C25   S    
C4    H12   S    
C55   H10   S    
C45   C67   A    
C36   N1    A    
C26   Cl4   S    
C54   H7    S    
C52   H4    S    
C35   C43   A    
C22   O5    S    
C44   C47   A    
C45   O11   S    
C66   H39   S    
C50   H56   S    
C40   C42   A    
C38   C40   A    
C53   H6    S    
C70   H46   S    
C10   O17   S    
C41   C43   A    
C71   O16   S    
Cu1   O21   S    
C62   O11   S    
C3    C80   A    
C27   O8    S    
C63   H31   S    
C35   O2    S    
C77   C79   S    
C50   H67   S    
C25   C29   S    
C72   H51   S    
C57   H13   S    
C46   C48   A    
C11   C20   T    
C57   H15   S    
C51   C52   S    
C5    N2    S    
C74   H57   S    
C4    C6    A    
C44   Cl1   S    
C16   O22   A    
C79   H70   S    
C49   O5    S    
C64   O13   S    
C61   H25   S    
C71   H49   S    
Cu2   O20   S    
C17   O23   A    
C58   C59   S    
C53   C54   S    
C49   H34   S    
C66   O14   S    
C8    C18   S    
C6    C34   A    
C73   H55   S    
C60   C61   S    
C58   H16   S    
C2    O15   S    
C65   H35   S    
C68   H41   S    
C72   H52   S    
C75   C76   S    
C55   O8    S    
C38   C44   A    
C62   C63   S    
C2    C78   A    
C63   H29   S    
C5    C23   A    
C10   C19   S    
C61   H26   S    
C49   H23   S    
Cu1   O25   S    
C13   C21   T    
C52   H3    S    
C74   H59   S    
C16   C67   S    
C42   C48   A    
C12   C13   S    
C68   H40   S    
C16   O24   A    
C39   C46   A    
C8    C10   S    
C40   C41   A    
C70   H48   S    
C8    C15   S    
C7    C19   S    
C22   C27   S    
C55   C57   S    
Cu2   N3    S    
C10   C14   S    
C60   O10   S    
Cu1   O22   S    
C54   H9    S    
C52   H2    S    
C65   H37   S    
C37   O4    S    
C15   Cl7   S    
C36   O3    S    
Cu2   O24   S    
C7    C9    S    
C57   H14   S    
C69   H43   S    
C22   C30   S    
C33   N1    A    
C67   C80   A    
C24   C28   S    
C3    C5    A    
C26   C30   S    
C71   H50   S    
C8    O19   S    
C64   H33   S    
C55   H11   S    
C35   N2    A    
C59   H18   S    
C36   C38   A    
C9    C15   S    
C14   Cl8   S    
C71   C72   S    
C29   C31   S    
C60   H21   S    
C65   H36   S    
C30   C32   S    
C63   H30   S    
C12   O21   A    
C75   O18   S    
C64   H32   S    
C2    C4    A    
C64   C65   S    
C28   C30   S    
C17   C78   S    
C59   H19   S    
C66   H38   S    
C51   H71   S    
C18   C20   S    
C69   C70   S    
C24   O6    S    
C47   O9    S    
Cu1   N4    S    
C62   H28   S    
C9    C18   S    
C73   H54   S    
C6    N1    S    
C70   H47   S    
C37   C39   A    
C49   C50   S    
C23   Cl5   S    
C37   N2    A    
C25   Cl3   S    
C1    O1    A    
C54   H8    S    
Cu1   Cu2   S    
C43   C47   A    
C56   O13   S    
C77   H65   S    
C69   O15   S    
C48   O10   S    
Cu2   O23   S    
