data_mof_unit_26938.cif
_audit_creation_date              2012-10-26T21:06:58-0400
_audit_creation_method            fapswitch 2.2
_symmetry_space_group_name_H-M    P1
_symmetry_Int_Tables_number       1
_space_group_crystal_system       triclinic
_cell_length_a                    10.706824
_cell_length_b                    8.679523
_cell_length_c                    7.454179
_cell_angle_alpha                 102.84491
_cell_angle_beta                  94.763047
_cell_angle_gamma                 92.613692
_cell_volume                      671.585905941

loop_
_atom_site_label
_atom_site_type_symbol
_atom_type_description
_atom_site_fract_x
_atom_site_fract_y
_atom_site_fract_z
_atom_type_partial_charge
C1    C     C_R   0.496482 0.199759 0.453299 0.571906
C2    C     C_3   0.083678 0.513417 0.700943 -0.245466
C3    C     C_3   0.940954 0.517083 0.700066 -0.232704
C4    C     C_3   0.073040 0.637822 0.424847 -0.253090
C5    C     C_3   0.061349 0.338730 0.379106 -0.214366
C6    C     C_3   0.122298 0.497309 0.502040 0.021217
C7    C     C_3   0.904363 0.115859 0.509887 -0.120174
C8    C     C_3   0.877972 0.497555 0.499211 0.062094
C9    C     C_3   0.929100 0.639416 0.425645 -0.293613
C10   C     C_3   0.915168 0.341285 0.371724 0.173187
C11   C     C_2   0.495081 0.031919 0.426966 -0.145410
C12   C     C_2   0.506399 0.968168 0.572993 -0.165330
C13   C     C_R   0.260048 0.499053 0.501306 0.543134
C14   C     C_R   0.504126 0.800273 0.546685 0.540424
C15   C     C_R   0.740032 0.499930 0.499088 0.592648
Cu1   Cu    Cu3+1 0.514070 0.517380 0.684380 0.944500
Cu2   Cu    Cu3+1 0.485930 0.482620 0.315620 0.950134
H1    H     H_    0.128529 0.624415 0.793265 0.135416
H2    H     H_    0.903642 0.424408 0.766532 0.138627
H3    H     H_    0.918565 0.632552 0.787102 0.117932
H4    H     H_    0.117732 0.751919 0.510010 0.115063
H5    H     H_    0.904423 0.752801 0.514324 0.105978
H6    H     H_    0.089325 0.324219 0.235981 0.096563
H7    H     H_    0.100575 0.238953 0.430388 0.101276
H8    H     H_    0.961467 0.189493 0.631909 0.099098
H9    H     H_    0.962739 0.028670 0.428511 0.113312
H10   H     H_    0.830971 0.047778 0.562313 0.139003
H11   H     H_    0.884484 0.349664 0.227861 0.136332
H12   H     H_    0.098194 0.627937 0.280965 0.131150
H13   H     H_    0.885770 0.633936 0.283139 0.113271
H14   H     H_    0.484455 0.960444 0.286191 0.134317
H15   H     H_    0.517146 0.039655 0.713764 0.134483
H16   H     H_    0.400798 0.378263 0.948298 0.232808
H17   H     H_    0.599195 0.621750 0.051702 0.236422
H18   H     H_    0.116014 0.412681 0.758608 0.112458
N1    N     N_2   0.464720 0.456420 0.038520 -0.259688
N2    N     N_2   0.535280 0.543580 0.961480 -0.258942
O1    O     O_R   0.509140 0.286130 0.619770 -0.503526
O2    O     O_R   0.485380 0.256770 0.308360 -0.490545
O3    O     O_R   0.329570 0.514650 0.655700 -0.513927
O4    O     O_R   0.305810 0.485300 0.344290 -0.513154
O5    O     O_R   0.514620 0.743230 0.691640 -0.499995
O6    O     O_R   0.490860 0.713870 0.380230 -0.507149
O7    O     O_R   0.694190 0.514700 0.655710 -0.509139
O8    O     O_R   0.670430 0.485350 0.344300 -0.502900
O9    O     O_3   0.844388 0.204169 0.394173 -0.563637

loop_
_geom_bond_atom_site_label_1
_geom_bond_atom_site_label_2
_ccdc_geom_bond_type
C2    H18   S    
C10   O9    S    
C11   C12   D    
Cu2   O6    S    
C3    H2    S    
Cu2   N1    S    
C2    H1    S    
H17   N2    S    
Cu1   O7    S    
C4    H12   S    
C5    H6    S    
Cu1   N2    S    
C14   O5    A    
C14   O6    A    
C13   O4    A    
C2    C3    S    
C11   H14   S    
C3    H3    S    
C12   H15   S    
C6    C13   S    
C4    H4    S    
C5    H7    S    
C2    C6    S    
C7    H9    S    
C9    H13   S    
Cu1   O3    S    
C1    O1    A    
C4    C6    S    
N1    N2    D    
C12   C14   S    
C15   O7    A    
C8    C15   S    
C5    C6    S    
Cu2   O4    S    
C9    H5    S    
C1    O2    A    
C7    O9    S    
Cu1   O5    S    
C5    C10   S    
H16   N1    S    
C7    H10   S    
C8    C10   S    
C3    C8    S    
Cu2   O2    S    
C10   H11   S    
C15   O8    A    
Cu1   Cu2   S    
C13   O3    A    
C1    C11   S    
Cu1   O1    S    
C4    C9    S    
Cu2   O8    S    
C8    C9    S    
C7    H8    S    
