data_mof_unit_52971.cif
_audit_creation_date              2013-03-05T16:10:14-0500
_audit_creation_method            fapswitch 2.2
_symmetry_space_group_name_H-M    P1
_symmetry_Int_Tables_number       1
_space_group_crystal_system       triclinic
_cell_length_a                    9.882631
_cell_length_b                    10.66264
_cell_length_c                    13.158717
_cell_angle_alpha                 90.438767
_cell_angle_beta                  69.593939
_cell_angle_gamma                 88.99227
_cell_volume                      1299.24140187

loop_
_atom_site_label
_atom_site_type_symbol
_atom_site_description
_atom_site_fract_x
_atom_site_fract_y
_atom_site_fract_z
_atom_type_partial_charge
O1    O     O_R   0.385370 0.683250 0.500010 -0.634925
O2    O     O_R   0.614700 0.683220 0.500010 -0.593823
C1    C     C_R   0.499438 0.739660 0.499173 0.954236
O3    O     O_R   0.328400 0.499990 0.653620 -0.605763
O4    O     O_R   0.557730 0.499960 0.653620 -0.626795
C2    C     C_R   0.419909 0.492249 0.704001 0.855621
Zn1   Zn    Zn3+2 0.346870 0.500020 0.500000 0.955751
Zn2   Zn    Zn3+2 0.653130 0.499980 0.500000 0.985366
O5    O     O_R   0.385300 0.316780 0.499990 -0.595275
O6    O     O_R   0.614630 0.316750 0.499990 -0.619080
O7    O     O_R   0.442270 0.500040 0.346380 -0.628530
O8    O     O_R   0.671600 0.500010 0.346380 -0.560180
C3    C     C_R   0.499832 0.260143 0.501729 0.948134
C4    C     C_R   0.580312 0.501171 0.295437 0.895845
C5    C     C_R   0.788079 0.394961 0.010329 -0.212200
H1    H     H_    0.847842 0.425138 0.149731 0.204310
H2    H     H_    0.797326 0.303399 0.818885 0.148988
H3    H     H_    0.891932 0.352427 0.963817 0.152488
C6    C     C_R   0.628677 0.488937 0.177676 -0.050805
C7    C     C_R   0.227934 0.522320 0.883172 -0.192499
C8    C     C_R   0.186836 0.534496 0.995045 -0.141592
C9    C     C_R   0.287549 0.512504 0.045391 -0.179827
C10   C     C_R   0.430277 0.470879 0.984337 0.079422
C11   C     C_R   0.463030 0.438472 0.874310 0.085703
C12   C     C_R   0.542120 0.461100 0.028148 0.077557
C13   C     C_R   0.676863 0.403205 0.967162 0.177599
C14   C     C_R   0.697778 0.353081 0.864726 -0.250085
C15   C     C_R   0.591463 0.369030 0.819267 -0.184309
C16   C     C_R   0.524748 0.510196 0.130227 -0.250719
C17   C     C_R   0.763663 0.437157 0.115884 -0.200780
C18   C     C_R   0.367614 0.478923 0.821791 -0.100876
H4    H     H_    0.428159 0.562343 0.176524 0.155083
H5    H     H_    0.152002 0.550450 0.844458 0.159080
H6    H     H_    0.249778 0.526166 0.132183 0.137500
H7    H     H_    0.078475 0.566797 0.042427 0.153619
H8    H     H_    0.610944 0.326012 0.740584 0.177466
C19   C     C_R   0.620796 0.932927 0.430215 0.529386
C20   C     C_R   0.618839 0.062467 0.432793 -0.335276
H9    H     H_    0.707473 0.112250 0.377226 0.194789
C21   C     C_R   0.499202 0.127497 0.503473 -0.204770
C22   C     C_R   0.375834 0.066223 0.569517 0.537749
C23   C     C_R   0.377640 0.936518 0.567183 -0.377446
H10   H     H_    0.287097 0.886055 0.621237 0.171675
C24   C     C_R   0.498616 0.871907 0.497502 -0.194609
C25   C     C_R   0.954260 0.403553 0.452293 0.040664
C26   C     C_R   0.096997 0.404091 0.453048 -0.126375
H11   H     H_    0.172387 0.328530 0.414198 0.147001
N1    N     N_R   0.142790 0.500030 0.500030 -0.081164
C27   C     C_R   0.047370 0.595709 0.548318 -0.087988
H12   H     H_    0.081939 0.672466 0.586989 0.127213
C28   C     C_R   0.903712 0.595606 0.548434 -0.096748
H13   H     H_    0.830206 0.672219 0.587225 0.141386
N2    N     N_R   0.857180 0.499940 0.500010 -0.112449
O9    O     O_3   0.261411 0.133919 0.642493 -0.607296
C29   C     C_3   0.134940 0.115384 0.617999 -0.241011
H14   H     H_    0.154190 0.126237 0.529917 0.173408
H15   H     H_    0.053122 0.187766 0.662219 0.184779
H16   H     H_    0.088768 0.022237 0.645867 0.147240
C30   C     C_2   0.917002 0.298042 0.396050 0.914072
O10   O     O_2   0.931429 0.190908 0.423643 -0.709770
O11   O     O_R   0.878564 0.319707 0.305412 -0.810879
H17   H     H_    0.872310 0.239773 0.265342 0.314607
O12   O     O_3   0.732564 0.864560 0.354989 -0.613052
C31   C     C_3   0.864919 0.889143 0.369006 -0.231204
H18   H     H_    0.942045 0.810995 0.330990 0.178919
H19   H     H_    0.854514 0.894145 0.456136 0.157560
H20   H     H_    0.911783 0.976379 0.326763 0.193878

loop_
_geom_bond_atom_site_label_1
_geom_bond_atom_site_label_2
_geom_bond_distance
_ccdc_geom_bond_type
Zn2   N2    2.016589 S    
O4    Zn2   1.909478 S    
Zn1   O7    1.909479 S    
C10   C11   1.407821 A    
C19   C20   1.381021 A    
C8    H7    1.082724 S    
C5    H3    1.083958 S    
C22   C23   1.382760 A    
C28   N2    1.367068 A    
Zn2   O8    1.965262 S    
C31   H18   1.109467 S    
C19   C24   1.398630 A    
C10   C12   1.416379 A    
C2    C18   1.461858 S    
C11   C18   1.413336 A    
C25   N2    1.380689 A    
C30   O10   1.222210 D    
O1    Zn1   1.996984 S    
C8    C9    1.392304 A    
Zn1   N1    2.016708 S    
C20   C21   1.392179 A    
C22   O9    1.387546 S    
C13   C14   1.391420 A    
C20   H9    1.076736 S    
C23   C24   1.393427 A    
O3    Zn1   1.965261 S    
O4    C2    1.294796 A    
C7    H5    1.083321 S    
O3    C2    1.296326 A    
C21   C22   1.402292 A    
C19   O12   1.389060 S    
O8    C4    1.298031 A    
O2    C1    1.282399 A    
C16   H4    1.078006 S    
C29   H15   1.109547 S    
C12   C16   1.390340 A    
O11   H17   1.012890 S    
C9    H6    1.078490 S    
O7    C4    1.293675 A    
C26   N1    1.354687 A    
C1    C24   1.410364 S    
C30   O11   1.391846 S    
C23   H10   1.084008 S    
C3    C21   1.414810 S    
C29   H14   1.114472 S    
H1    C17   1.078140 S    
O12   C31   1.411803 S    
C6    C16   1.391864 A    
C31   H20   1.110064 S    
C25   C26   1.414223 A    
C28   H13   1.081543 S    
C7    C8    1.388237 A    
C15   H8    1.081700 S    
C5    C17   1.393836 A    
Zn2   O6    1.996986 S    
C27   H12   1.081746 S    
N1    C27   1.368271 A    
C29   H16   1.110841 S    
C14   C15   1.387146 A    
Zn1   O5    1.983815 S    
O5    C3    1.280856 A    
O9    C29   1.412005 S    
C25   C30   1.463159 S    
C5    C13   1.403978 A    
O1    C1    1.283742 A    
C12   C13   1.420064 A    
C26   H11   1.082832 S    
C6    C17   1.398710 A    
C4    C6    1.457702 S    
O6    C3    1.287683 A    
C9    C10   1.419257 A    
O2    Zn2   1.983815 S    
C11   C15   1.414744 A    
C31   H19   1.115600 S    
C27   C28   1.419208 A    
C7    C18   1.402251 A    
H2    C14   1.084107 S    
