data_mof_unit_28517.cif
_audit_creation_date              2012-12-11T14:34:13-0500
_audit_creation_method            fapswitch 2.2
_symmetry_space_group_name_H-M    P1
_symmetry_Int_Tables_number       1
_space_group_crystal_system       triclinic
_cell_length_a                    13.851354
_cell_length_b                    13.977134
_cell_length_c                    27.317326
_cell_angle_alpha                 89.964805
_cell_angle_beta                  90.094431
_cell_angle_gamma                 119.674714
_cell_volume                      4595.07697266

loop_
_atom_site_label
_atom_site_type_symbol
_atom_type_description
_atom_site_fract_x
_atom_site_fract_y
_atom_site_fract_z
_atom_type_partial_charge
C1    C     C_R   0.233978 0.787143 0.568798 0.540149
C2    C     C_1   0.707107 0.865637 0.860236 -0.005486
C3    C     C_1   0.111438 0.877526 0.852854 -0.004960
C4    C     C_1   0.116313 0.229554 0.852170 -0.007740
C5    C     C_1   0.628926 0.815765 0.658971 -0.068638
C6    C     C_1   0.177264 0.817623 0.656615 -0.069461
C7    C     C_1   0.178819 0.357888 0.656262 -0.069545
C8    C     C_1   0.601326 0.796592 0.616697 -0.006201
C9    C     C_1   0.199511 0.805713 0.615359 -0.006137
C10   C     C_1   0.192817 0.392852 0.615139 -0.006365
C11   C     C_R   0.064811 0.150307 0.095965 0.571232
C12   C     C_R   0.212520 0.446431 0.568771 0.542989
C13   C     C_R   0.777482 0.884017 0.088375 0.550153
C14   C     C_R   0.116499 0.893599 0.088130 0.564131
C15   C     C_R   0.069179 0.160052 0.943274 0.532128
C16   C     C_R   0.779694 0.887216 0.950769 0.549389
C17   C     C_R   0.090654 0.929537 0.943333 0.528478
C18   C     C_R   0.618433 0.895706 0.361503 -0.132583
C19   C     C_R   0.097072 0.732438 0.362871 -0.134175
C20   C     C_R   0.264201 0.357503 0.363836 -0.134704
C21   C     C_R   0.644797 0.911312 0.311874 0.014185
C22   C     C_R   0.080499 0.743905 0.313198 0.014314
C23   C     C_R   0.552858 0.765353 0.569010 0.539604
C24   C     C_R   0.241215 0.306586 0.317749 0.014073
C25   C     C_R   0.681113 0.929096 0.210369 0.016617
C26   C     C_R   0.060577 0.759844 0.211535 0.016584
C27   C     C_R   0.200613 0.225719 0.221030 0.017255
C28   C     C_R   0.232467 0.788344 0.431823 0.547377
C29   C     C_R   0.211660 0.444490 0.431379 0.549187
C30   C     C_R   0.555605 0.767247 0.431910 0.548173
C31   C     C_R   0.653370 0.000688 0.234453 -0.137272
C32   C     C_R   0.977371 0.670669 0.237591 -0.127045
C33   C     C_R   0.302953 0.256548 0.243657 -0.122977
C34   C     C_3   0.640694 0.734220 0.792005 -0.250891
C35   C     C_R   0.635025 0.991704 0.284949 -0.130912
C36   C     C_R   0.987895 0.662045 0.288088 -0.128685
C37   C     C_R   0.323246 0.297002 0.291635 -0.128254
C38   C     C_R   0.704028 0.939439 0.160102 -0.148088
C39   C     C_R   0.050676 0.770983 0.161157 -0.133147
C40   C     C_R   0.182831 0.194983 0.171550 -0.127205
C41   C     C_R   0.728957 0.864771 0.137119 -0.001546
C42   C     C_R   0.135387 0.861267 0.136235 -0.002854
C43   C     C_R   0.082743 0.172450 0.148635 -0.009653
C44   C     C_R   0.659154 0.745223 0.364200 -0.130989
C45   C     C_3   0.242130 0.946286 0.784522 -0.256922
C46   C     C_R   0.265992 0.910911 0.361961 -0.128133
C47   C     C_R   0.076081 0.327968 0.368002 -0.129721
C48   C     C_R   0.683340 0.758047 0.314657 0.013405
C49   C     C_R   0.254266 0.920546 0.312243 0.013831
C50   C     C_R   0.052579 0.278942 0.321943 0.011813
C51   C     C_R   0.673671 0.839688 0.288063 0.064210
C52   C     C_R   0.162294 0.835912 0.287440 0.063649
C53   C     C_R   0.136044 0.270258 0.296159 0.062795
C54   C     C_R   0.708686 0.684869 0.290689 -0.126705
C55   C     C_R   0.337606 0.009780 0.286499 -0.127348
C56   C     C_3   0.053742 0.303484 0.785324 -0.256950
C57   C     C_R   0.949118 0.245103 0.300010 -0.128742
C58   C     C_R   0.720600 0.689901 0.240208 -0.126515
C59   C     C_R   0.331803 0.013507 0.235896 -0.129317
C60   C     C_R   0.930174 0.207870 0.251820 -0.121610
C61   C     C_R   0.710498 0.770171 0.213616 0.010653
C62   C     C_R   0.240688 0.930088 0.210947 0.013681
C63   C     C_R   0.013301 0.201551 0.225374 0.017077
C64   C     C_3   0.575085 0.872154 0.735578 -0.176760
C65   C     C_3   0.139542 0.728588 0.738341 -0.178430
C66   C     C_3   0.271482 0.398645 0.737182 -0.177855
C67   C     C_3   0.622677 0.720367 0.735960 -0.224535
C68   C     C_R   0.688906 0.846762 0.237369 0.065270
C69   C     C_R   0.154290 0.841924 0.236640 0.063839
C70   C     C_R   0.116050 0.230675 0.247776 0.062255
C71   C     C_R   0.725007 0.776683 0.163617 -0.121098
C72   C     C_R   0.232789 0.936092 0.160772 -0.130425
C73   C     C_R   0.997147 0.171742 0.176170 -0.128164
C74   C     C_R   0.618768 0.808084 0.386756 -0.002972
C75   C     C_R   0.193394 0.813120 0.386429 -0.003360
C76   C     C_R   0.183152 0.372465 0.388143 -0.004513
C77   C     C_3   0.773188 0.916559 0.722825 -0.216387
C78   C     C_3   0.259562 0.933871 0.729528 -0.226190
C79   C     C_3   0.053863 0.844225 0.714229 -0.214011
C80   C     C_3   0.136690 0.203029 0.712861 -0.211959
C81   C     C_3   0.794045 0.927642 0.778861 -0.203861
C82   C     C_3   0.037293 0.862552 0.768783 -0.205791
C83   C     C_3   0.115530 0.167096 0.767212 -0.207453
C84   C     C_1   0.734427 0.874052 0.902561 0.032370
C85   C     C_1   0.102081 0.900286 0.894401 0.036385
C86   C     C_1   0.096153 0.198707 0.893970 0.030163
C87   C     C_3   0.650215 0.831406 0.711918 0.017907
C88   C     C_3   0.157519 0.830637 0.708312 0.016235
C89   C     C_3   0.067635 0.335562 0.730459 -0.226702
C90   C     C_3   0.163923 0.324129 0.707816 0.017737
C91   C     C_3   0.595704 0.888423 0.791929 0.175581
C92   C     C_3   0.118677 0.741722 0.793494 0.176917
C93   C     C_3   0.257403 0.363096 0.792025 0.176163
C94   C     C_3   0.684516 0.855859 0.807295 0.036944
C95   C     C_3   0.125288 0.855683 0.801441 0.032883
C96   C     C_3   0.136993 0.264972 0.800695 0.034626
Cr1   Cr    Cr6+3 0.164410 0.584450 0.499910 1.023893
Cr2   Cr    Cr6+3 0.415550 0.579960 0.499910 1.024548
Cr3   Cr    Cr6+3 0.420040 0.835590 0.499910 1.021527
Cr4   Cr    Cr6+3 0.155170 0.075460 0.019960 1.059137
Cr5   Cr    Cr6+3 0.924540 0.079710 0.019960 1.044034
Cr6   Cr    Cr6+3 0.920290 0.844830 0.019960 1.047020
H1    H     H_    0.486115 0.810969 0.728808 0.074432
H2    H     H_    0.706048 0.006636 0.139429 0.110538
H3    H     H_    0.975566 0.713183 0.141987 0.118598
H4    H     H_    0.248083 0.192870 0.150540 0.124599
H5    H     H_    0.588555 0.945563 0.379143 0.127987
H6    H     H_    0.039636 0.657721 0.382024 0.123717
H7    H     H_    0.346690 0.390696 0.379394 0.125203
H8    H     H_    0.645861 0.063462 0.214273 0.101522
H9    H     H_    0.905203 0.606905 0.218820 0.101261
H10   H     H_    0.368581 0.252909 0.223704 0.103001
H11   H     H_    0.611971 0.046660 0.302827 0.100264
H12   H     H_    0.214265 0.718684 0.735201 0.076515
H13   H     H_    0.924293 0.591057 0.307392 0.101413
H14   H     H_    0.404167 0.323798 0.307779 0.102696
H15   H     H_    0.742413 0.717302 0.146000 0.132813
H16   H     H_    0.298868 0.005370 0.141432 0.128041
H17   H     H_    0.918985 0.151624 0.158684 0.118990
H18   H     H_    0.737835 0.631216 0.221942 0.100511
H19   H     H_    0.397931 0.082032 0.216319 0.097121
H20   H     H_    0.852149 0.188100 0.234609 0.111713
H21   H     H_    0.715747 0.621665 0.310749 0.101839
H22   H     H_    0.408930 0.074715 0.305313 0.097639
H23   H     H_    0.290924 0.485945 0.734839 0.075661
H24   H     H_    0.884505 0.251781 0.319401 0.103776
H25   H     H_    0.590649 0.949750 0.717386 0.186916
H26   H     H_    0.069148 0.653035 0.722289 0.184198
H27   H     H_    0.342654 0.395446 0.720052 0.186432
H28   H     H_    0.661506 0.679058 0.383963 0.128640
H29   H     H_    0.338960 0.975079 0.380236 0.131667
H30   H     H_    0.012407 0.337413 0.386800 0.130803
H31   H     H_    0.829040 0.890573 0.705299 0.108794
H32   H     H_    0.063578 0.915547 0.692235 0.108101
H33   H     H_    0.061752 0.148163 0.690789 0.109205
H34   H     H_    0.516531 0.831830 0.810905 0.104653
H35   H     H_    0.793972 0.998075 0.707199 0.154546
H36   H     H_    0.978785 0.769562 0.700378 0.158380
H37   H     H_    0.206775 0.193690 0.698573 0.157142
H38   H     H_    0.832236 0.015195 0.790085 0.182386
H39   H     H_    0.952067 0.801524 0.780646 0.188946
H40   H     H_    0.169060 0.132780 0.778299 0.176258
H41   H     H_    0.855092 0.901085 0.788341 0.084613
H42   H     H_    0.044408 0.944382 0.773012 0.077409
H43   H     H_    0.027971 0.100578 0.771418 0.084403
H44   H     H_    0.534886 0.657154 0.728170 0.134453
H45   H     H_    0.186087 0.740869 0.815413 0.114173
H46   H     H_    0.335935 0.927365 0.724737 0.150291
H47   H     H_    0.084429 0.421793 0.726652 0.147609
H48   H     H_    0.676548 0.689851 0.720240 0.152917
H49   H     H_    0.272622 0.008776 0.709514 0.151304
H50   H     H_    0.988763 0.281439 0.710630 0.151003
H51   H     H_    0.560900 0.679720 0.811015 0.155219
H52   H     H_    0.307078 0.940529 0.806231 0.174789
H53   H     H_    0.067710 0.375363 0.807924 0.178475
H54   H     H_    0.747215 0.192477 0.786981 0.384683
H55   H     H_    0.819259 0.536644 0.790018 0.388068
H56   H     H_    0.267971 0.433852 0.814681 0.115066
H57   H     H_    0.437214 0.237821 0.783947 0.390951
H58   H     H_    0.700757 0.707085 0.803194 0.168218
H59   H     H_    0.253279 0.029415 0.791392 0.168638
H60   H     H_    0.966874 0.236931 0.792058 0.165119
O1    O     O_R   0.137150 0.468200 0.553200 -0.507843
O2    O     O_R   0.140110 0.470540 0.446010 -0.521288
O3    O     O_R   0.529460 0.669570 0.446010 -0.521033
O4    O     O_R   0.330430 0.859890 0.446010 -0.523612
O5    O     O_R   0.176710 0.690910 0.450560 -0.502161
O6    O     O_R   0.309090 0.485800 0.450560 -0.501233
O7    O     O_R   0.514200 0.823290 0.450560 -0.504150
O8    O     O_3   0.333333 0.666667 0.499990 -0.266039
O9    O     O_R   0.176750 0.985260 0.074180 -0.528789
O10   O     O_R   0.014740 0.191490 0.074180 -0.486791
O11   O     O_R   0.808510 0.823250 0.074180 -0.515717
O12   O     O_R   0.531800 0.668950 0.553200 -0.507658
O13   O     O_R   0.146100 0.172630 0.068980 -0.475722
O14   O     O_R   0.827370 0.973470 0.068980 -0.518612
O15   O     O_R   0.026530 0.853900 0.068980 -0.489754
O16   O     O_3   0.000000 0.000000 0.020040 -0.307839
O17   O     O_R   0.148270 0.170520 0.969620 -0.466730
O18   O     O_R   0.829480 0.977750 0.969620 -0.510098
O19   O     O_R   0.022250 0.851730 0.969620 -0.459555
O20   O     O_2   0.528297 0.038083 0.801766 -0.301223
O21   O     O_2   0.662890 0.047442 0.862299 -0.260273
O22   O     O_3   0.733024 0.120200 0.774392 -0.571861
O23   O     O_R   0.331050 0.862850 0.553200 -0.506195
O24   O     O_2   0.005608 0.525443 0.814793 -0.303366
O25   O     O_2   0.961698 0.643870 0.864731 -0.251972
O26   O     O_3   0.885644 0.600130 0.775593 -0.563287
O27   O     O_2   0.475046 0.443608 0.810615 -0.288364
O28   O     O_2   0.346536 0.287207 0.860804 -0.257777
O29   O     O_3   0.377909 0.250294 0.770492 -0.572486
O30   O     O_R   0.179100 0.982980 0.967000 -0.483300
O31   O     O_R   0.017020 0.196120 0.967000 -0.464540
O32   O     O_R   0.803880 0.820900 0.967000 -0.501357
O33   O     O_R   0.173970 0.688730 0.549930 -0.499290
O34   O     O_R   0.311270 0.485240 0.549930 -0.498312
O35   O     O_R   0.514760 0.826030 0.549930 -0.497370
S1    S     S_3+6 0.629413 0.026385 0.809333 -0.023554
S2    S     S_3+6 0.990483 0.624679 0.814017 -0.019431
S3    S     S_3+6 0.367350 0.336333 0.810351 -0.020353

loop_
_geom_bond_atom_site_label_1
_geom_bond_atom_site_label_2
_ccdc_geom_bond_type
C25   C31   A    
C65   C92   S    
C54   H21   S    
C26   C32   A    
C16   O18   A    
C73   H17   S    
C32   H9    S    
C55   C59   A    
C81   H38   S    
C18   C21   A    
C65   H12   S    
C2    C84   T    
O20   S1    D    
H55   O26   S    
C21   C51   A    
Cr4   O16   S    
C6    C9    T    
C13   C41   S    
H54   O22   S    
O28   S3    D    
C66   C90   S    
C23   O12   A    
C27   C33   A    
Cr6   O11   S    
C13   O11   A    
C46   C49   A    
C80   H33   S    
C60   C63   A    
C17   C85   S    
C32   C36   A    
C29   O6    A    
C40   H4    S    
C1    O33   A    
C77   H35   S    
C47   C76   A    
C15   O17   A    
C56   H53   S    
C30   C74   S    
C26   C39   A    
C4    C86   T    
C44   H28   S    
C56   H60   S    
C16   C84   S    
C8    C23   S    
C6    C88   S    
C20   C76   A    
Cr5   O10   S    
C39   H3    S    
C7    C10   T    
C45   H59   S    
C18   H5    S    
C79   C88   S    
C38   H2    S    
Cr5   O16   S    
C28   O5    A    
C4    C96   S    
C91   S1    S    
C43   C73   A    
C89   H50   S    
C91   H34   S    
C20   C24   A    
Cr1   O1    S    
C11   C43   S    
C45   C78   S    
C52   C69   A    
C39   C42   A    
C92   S2    S    
C64   C87   S    
C78   H46   S    
C14   C42   S    
C66   H27   S    
C19   H6    S    
C61   C71   A    
C58   C61   A    
C89   H47   S    
C11   O10   A    
C18   C74   A    
C83   H43   S    
C67   H48   S    
C12   O34   A    
C29   O2    A    
C15   O31   A    
Cr4   O30   S    
C25   C68   A    
C77   H31   S    
C67   H44   S    
C82   H39   S    
C53   C70   A    
Cr6   O32   S    
C42   C72   A    
C46   C75   A    
C83   H40   S    
Cr5   O31   S    
C78   H49   S    
C47   C50   A    
C40   C43   A    
C17   O30   A    
C26   C69   A    
C48   C51   A    
O21   S1    D    
C71   H15   S    
Cr2   O34   S    
C50   C53   A    
C65   H26   S    
H57   O29   S    
C2    C94   S    
C19   C22   A    
C1    C9    S    
O29   S3    S    
C38   C41   A    
C82   H42   S    
Cr4   O17   S    
C57   H24   S    
C37   H14   S    
C14   O9    A    
C57   C60   A    
C13   O14   A    
C63   C73   A    
O26   S2    S    
C24   C53   A    
C49   C55   A    
C7    C90   S    
C92   C95   S    
C33   C37   A    
Cr1   O8    S    
C62   C69   A    
O25   S2    D    
C5    C87   S    
C48   C54   A    
C30   O7    A    
C25   C38   A    
C5    C8    T    
C63   C70   A    
C77   C81   S    
C27   C40   A    
C49   C52   A    
C64   H1    S    
Cr3   O35   S    
Cr4   O13   S    
C58   H18   S    
C24   C37   A    
C62   C72   A    
C92   H45   S    
C33   H10   S    
C60   H20   S    
C27   C70   A    
C10   C12   S    
C15   C86   S    
Cr3   O7    S    
O27   S3    D    
C56   C89   S    
C93   C96   S    
O22   S1    S    
C66   C93   S    
Cr6   O16   S    
C31   C35   A    
C3    C85   T    
C45   C95   S    
C93   S3    S    
Cr3   O23   S    
C65   C88   S    
C22   C52   A    
C54   C58   A    
C34   H51   S    
C78   C88   S    
C56   C96   S    
C79   H32   S    
C55   H22   S    
C59   C62   A    
C82   C95   S    
Cr6   O19   S    
C67   C87   S    
C34   C94   S    
C30   O3    A    
C44   C74   A    
C34   C67   S    
C79   C82   S    
C21   C35   A    
C28   O4    A    
C80   H37   S    
C22   C36   A    
C23   O35   A    
Cr2   O3    S    
C11   O13   A    
C66   H23   S    
C41   C71   A    
C47   H30   S    
Cr1   O2    S    
Cr3   O8    S    
C1    O23   A    
Cr3   O4    S    
C19   C75   A    
C59   H19   S    
Cr5   O18   S    
Cr1   O5    S    
C64   H25   S    
C81   C94   S    
C50   C57   A    
C61   C68   A    
Cr1   O33   S    
C28   C75   S    
C46   H29   S    
Cr2   O12   S    
C83   C96   S    
C80   C83   S    
C31   H8    S    
C35   H11   S    
C51   C68   A    
C80   C90   S    
C93   H56   S    
O24   S2    D    
C12   O1    A    
C16   O32   A    
C20   H7    S    
Cr2   O8    S    
C17   O19   A    
C81   H41   S    
C79   H36   S    
C29   C76   S    
C77   C87   S    
C72   H16   S    
Cr6   O15   S    
Cr4   O9    S    
C14   O15   A    
Cr5   O14   S    
C3    C95   S    
C45   H52   S    
C64   C91   S    
C89   C90   S    
C36   H13   S    
Cr2   O6    S    
C44   C48   A    
C91   C94   S    
C34   H58   S    
