data_mof_unit_30498.cif
_audit_creation_date              2012-12-10T17:52:27-0500
_audit_creation_method            fapswitch 2.2
_symmetry_space_group_name_H-M    P1
_symmetry_Int_Tables_number       1
_space_group_crystal_system       triclinic
_cell_length_a                    18.988266
_cell_length_b                    10.630158
_cell_length_c                    9.913681
_cell_angle_alpha                 89.932418
_cell_angle_beta                  89.968734
_cell_angle_gamma                 91.700438
_cell_volume                      2000.17640781

loop_
_atom_site_label
_atom_site_type_symbol
_atom_type_description
_atom_site_fract_x
_atom_site_fract_y
_atom_site_fract_z
_atom_type_partial_charge
Br1   Br    Br    0.298504 0.143693 0.834066 -0.529182
C1    C     C_R   0.501688 0.260709 0.500105 0.861249
C2    C     C_R   0.851412 0.407518 0.499406 0.090205
C3    C     C_R   0.619962 0.137520 0.623637 -0.169386
C4    C     C_R   0.365148 0.496135 0.500078 0.858447
C5    C     C_R   0.675388 0.074846 0.683409 -0.124778
C6    C     C_R   0.675463 0.943942 0.683384 -0.135051
C7    C     C_R   0.620170 0.875275 0.623390 -0.188854
C8    C     C_R   0.563144 0.937431 0.563496 0.097649
C9    C     C_R   0.563016 0.069314 0.563689 0.097442
C10   C     C_R   0.506472 0.128694 0.499960 -0.088079
C11   C     C_R   0.453092 0.061824 0.432968 -0.181959
C12   C     C_R   0.289098 0.472335 0.500138 -0.044731
C13   C     C_R   0.453250 0.933294 0.432698 -0.177019
C14   C     C_R   0.506754 0.872048 0.499488 -0.106085
C15   C     C_R   0.407389 0.335290 0.140215 -0.228802
C16   C     C_R   0.502035 0.739471 0.499897 0.879750
C17   C     C_R   0.361563 0.254542 0.070141 -0.235780
C18   C     C_R   0.361540 0.254520 0.930399 0.290296
C19   C     C_R   0.407473 0.335306 0.860215 -0.213614
C20   C     C_R   0.454407 0.418805 0.927850 0.124480
C21   C     C_R   0.454392 0.418842 0.072409 0.181445
C22   C     C_R   0.543700 0.577562 0.071341 -0.110354
C23   C     C_R   0.927030 0.385163 0.499510 0.287795
C24   C     C_R   0.543683 0.577539 0.928224 -0.102107
C25   C     C_R   0.634783 0.497080 0.499960 0.825490
C26   C     C_R   0.253089 0.454260 0.622495 -0.151973
C27   C     C_R   0.181930 0.420527 0.622415 -0.117398
C28   C     C_R   0.145690 0.405010 0.499962 0.074085
C29   C     C_R   0.181958 0.421931 0.377613 -0.147827
C30   C     C_R   0.253103 0.455612 0.377708 -0.197343
C31   C     C_R   0.069251 0.383685 0.499814 0.298303
C32   C     C_R   0.815102 0.419084 0.621849 -0.165824
C33   C     C_R   0.745033 0.452593 0.622186 -0.216349
C34   C     C_R   0.710168 0.474390 0.500066 -0.031415
C35   C     C_R   0.746277 0.462217 0.377623 -0.184431
C36   C     C_R   0.816356 0.428764 0.377266 -0.159604
H1    H     H_    0.279899 0.464952 0.718386 0.168377
H2    H     H_    0.404688 0.329799 0.753295 0.223768
H3    H     H_    0.155244 0.408497 0.718329 0.161233
H4    H     H_    0.579356 0.640951 0.874302 0.141618
H5    H     H_    0.155299 0.411065 0.281617 0.158626
H6    H     H_    0.279904 0.467415 0.281850 0.166773
H7    H     H_    0.840896 0.403695 0.717602 0.150881
H8    H     H_    0.718031 0.459688 0.718033 0.157184
H9    H     H_    0.720304 0.477263 0.281942 0.156169
H10   H     H_    0.843172 0.421296 0.281305 0.150826
H11   H     H_    0.410501 0.109412 0.383252 0.146388
H12   H     H_    0.622855 0.239151 0.623270 0.151952
H13   H     H_    0.718720 0.128075 0.728706 0.142073
H14   H     H_    0.718847 0.895432 0.728746 0.140299
H15   H     H_    0.623246 0.773875 0.622661 0.140712
H16   H     H_    0.410761 0.881174 0.382835 0.159855
H17   H     H_    0.579401 0.640959 0.124943 0.145415
H18   H     H_    0.404293 0.329425 0.247163 0.213889
H19   H     H_    0.325951 0.191683 0.125114 0.182621
N1    N     N_R   0.033127 0.382037 0.381911 -0.172006
N2    N     N_R   0.963268 0.382760 0.381759 -0.174396
N3    N     N_R   0.963040 0.381563 0.617414 -0.174285
N4    N     N_R   0.032912 0.380866 0.617564 -0.169394
N5    N     N_R   0.499340 0.498800 0.142780 -0.113550
N6    N     N_R   0.499320 0.498720 0.857170 -0.111311
O1    O     O_R   0.500000 0.316780 0.614690 -0.632387
O2    O     O_R   0.499990 0.316750 0.385360 -0.629373
O3    O     O_R   0.398140 0.500000 0.614700 -0.628779
O4    O     O_R   0.398130 0.499970 0.385370 -0.635516
O5    O     O_R   0.500010 0.683250 0.614640 -0.605385
O6    O     O_R   0.500000 0.683220 0.385310 -0.609237
O7    O     O_R   0.601870 0.500030 0.614630 -0.633682
O8    O     O_R   0.601860 0.500000 0.385300 -0.613784
Zn1   Zn    Zn3+2 0.500000 0.500020 0.653130 0.942113
Zn2   Zn    Zn3+2 0.500000 0.499980 0.346870 0.943620

loop_
_geom_bond_atom_site_label_1
_geom_bond_atom_site_label_2
_ccdc_geom_bond_type
C7    C8    A    
C35   C36   A    
C15   C21   A    
C10   C11   A    
C35   H9    S    
C28   C29   A    
C36   H10   S    
C8    C9    A    
C7    H15   S    
O5    Zn1   S    
C34   C35   A    
C17   H19   S    
C3    H12   S    
O6    Zn2   S    
C22   C24   A    
C32   C33   A    
C20   N6    A    
C15   H18   S    
C6    H14   S    
N3    N4    A    
C33   H8    S    
C20   C21   A    
C5    H13   S    
C21   N5    A    
O4    Zn2   S    
C31   N4    A    
C2    C23   S    
C5    C6    A    
C30   H6    S    
C31   N1    A    
C4    O4    A    
C23   N3    A    
C1    C10   S    
N5    Zn2   S    
C23   N2    A    
C27   C28   A    
C11   H11   S    
C1    O2    A    
N6    Zn1   S    
C17   C18   A    
C28   C31   S    
N1    N2    A    
C24   N6    A    
O2    Zn2   S    
C8    C14   A    
C29   C30   A    
C25   O8    A    
C19   H2    S    
C16   O5    A    
C3    C5    A    
Br1   C18   S    
C9    C10   A    
C2    C32   A    
C26   H1    S    
C3    C9    A    
C11   C13   A    
C25   C34   S    
C6    C7    A    
C13   H16   S    
C19   C20   A    
C2    C36   A    
C22   H17   S    
C4    O3    A    
C33   C34   A    
C22   N5    A    
C24   H4    S    
C26   C27   A    
C14   C16   S    
C25   O7    A    
C27   H3    S    
C13   C14   A    
C12   C26   A    
C16   O6    A    
O8    Zn2   S    
C1    O1    A    
O3    Zn1   S    
C32   H7    S    
C4    C12   S    
C12   C30   A    
C15   C17   A    
C29   H5    S    
C18   C19   A    
O1    Zn1   S    
O7    Zn1   S    
