data_mof_unit_37793.cif
_audit_creation_date              2012-12-10T17:16:37-0500
_audit_creation_method            fapswitch 2.2
_symmetry_space_group_name_H-M    P1
_symmetry_Int_Tables_number       1
_space_group_crystal_system       triclinic
_cell_length_a                    10.096676
_cell_length_b                    10.597196
_cell_length_c                    10.714887
_cell_angle_alpha                 89.801387
_cell_angle_beta                  95.079307
_cell_angle_gamma                 82.09672
_cell_volume                      1130.96404946

loop_
_atom_site_label
_atom_site_type_symbol
_atom_type_description
_atom_site_fract_x
_atom_site_fract_y
_atom_site_fract_z
_atom_type_partial_charge
C1    C     C_R   0.443908 0.512888 0.266590 0.852202
C2    C     C_R   0.556282 0.495995 0.733430 0.847597
C3    C     C_2   0.411686 0.535636 0.133526 0.230347
C4    C     C_2   0.589221 0.509698 0.866405 0.212402
C5    C     C_2   0.508914 0.566975 0.067241 -0.171698
C6    C     C_2   0.493456 0.569161 0.932502 -0.143259
C7    C     C_2   0.071196 0.494055 0.486254 0.071142
C8    C     C_2   0.928756 0.506097 0.513634 0.067215
C9    C     C_R   0.493507 0.261206 0.481406 0.915874
C10   C     C_R   0.506389 0.738941 0.518197 0.880133
C11   C     C_R   0.701881 0.082984 0.365477 0.598808
C12   C     C_R   0.297700 0.917442 0.633429 0.591883
C13   C     C_R   0.828911 0.011112 0.368984 0.614203
C14   C     C_R   0.170635 0.989288 0.629722 0.620311
C15   C     C_R   0.858647 0.901929 0.444271 -0.293393
C16   C     C_R   0.140966 0.098388 0.554322 -0.284924
C17   C     C_R   0.758100 0.858795 0.507323 -0.163938
C18   C     C_R   0.241620 0.141475 0.491359 -0.160266
C19   C     C_R   0.625954 0.924990 0.496253 -0.003273
C20   C     C_R   0.373737 0.075232 0.502569 -0.005937
C21   C     C_R   0.603215 0.045749 0.439072 -0.168448
C22   C     C_R   0.396441 0.954517 0.559822 -0.158606
C23   C     C_R   0.515639 0.873889 0.539353 -0.070770
C24   C     C_R   0.484100 0.126372 0.459699 -0.073526
H1    H     H_    0.040925 0.151492 0.546994 0.221940
H2    H     H_    0.958696 0.848858 0.451506 0.220807
H3    H     H_    0.784878 0.775024 0.566696 0.206054
H4    H     H_    0.214998 0.225297 0.432025 0.208048
H5    H     H_    0.395966 0.609109 0.887289 0.259061
H6    H     H_    0.607090 0.578739 0.112430 0.218145
H7    H     H_    0.894742 0.564782 0.590278 0.149302
H8    H     H_    0.105174 0.435476 0.409527 0.151875
N1    N     N_2   0.157300 0.551390 0.551120 0.143416
N2    N     N_2   0.842700 0.448610 0.448880 0.142133
O1    O     O_R   0.568940 0.489660 0.307530 -0.558926
O2    O     O_R   0.431060 0.510340 0.692470 -0.563094
O3    O     O_R   0.348880 0.522640 0.340350 -0.610769
O4    O     O_R   0.651120 0.477360 0.659650 -0.606056
O5    O     O_R   0.610030 0.300280 0.483580 -0.548920
O6    O     O_R   0.389970 0.699720 0.516420 -0.555700
O7    O     O_R   0.389970 0.333270 0.516400 -0.651115
O8    O     O_R   0.610030 0.666730 0.483600 -0.663353
Zn1   Zn    Zn3+2 0.646940 0.477980 0.478080 1.103390
Zn2   Zn    Zn3+2 0.353060 0.522020 0.521920 1.102257
F1    F     F_    0.673386 0.185088 0.285835 -0.567343
F2    F     F_    0.326172 0.815614 0.713374 -0.602874
F3    F     F_    0.924155 0.048766 0.301158 -0.569318
F4    F     F_    0.075334 0.951745 0.697559 -0.572019
Cl1   Cl    Cl    0.749634 0.443820 0.935034 -0.420965
Cl2   Cl    Cl    0.250049 0.515882 0.065105 -0.443379
F5    F     F_    0.884865 0.378633 0.352541 -0.494266
F6    F     F_    0.115182 0.621244 0.647557 -0.502410

loop_
_geom_bond_atom_site_label_1
_geom_bond_atom_site_label_2
_ccdc_geom_bond_type
C1    C3    S    
C19   C23   A    
C9    C24   S    
C14   C16   A    
C10   C23   S    
C10   O8    A    
O1    Zn1   S    
C2    O4    A    
C2    C4    S    
C1    O3    A    
C4    Cl1   S    
O3    Zn2   S    
C7    C8    S    
C8    N2    D    
N1    F6    S    
C11   C13   A    
N2    F5    S    
C16   C18   A    
C19   C21   A    
C3    Cl2   S    
C12   C14   A    
C18   C20   A    
C13   C15   A    
O5    Zn1   S    
C5    C6    S    
O7    Zn2   S    
O4    Zn1   S    
C11   F1    S    
O2    Zn2   S    
O8    Zn1   S    
C7    N1    D    
C17   H3    S    
C12   C22   A    
O6    Zn2   S    
C6    H5    S    
C18   H4    S    
C1    O1    A    
C4    C6    D    
C5    H6    S    
C21   C24   A    
C2    O2    A    
C16   H1    S    
C15   C17   A    
C22   C23   A    
C15   H2    S    
C10   O6    A    
C14   F4    S    
C7    H8    S    
C9    O7    A    
C17   C19   A    
N2    Zn1   S    
N1    Zn2   S    
C13   F3    S    
C11   C21   A    
C9    O5    A    
C8    H7    S    
C20   C24   A    
C20   C22   A    
C3    C5    D    
C12   F2    S    
