data_mof_unit_62041.cif
_audit_creation_date              2012-12-10T18:28:01-0500
_audit_creation_method            fapswitch 2.2
_symmetry_space_group_name_H-M    P1
_symmetry_Int_Tables_number       1
_space_group_crystal_system       triclinic
_cell_length_a                    18.189196
_cell_length_b                    18.152674
_cell_length_c                    18.214976
_cell_angle_alpha                 90.249462
_cell_angle_beta                  119.93421
_cell_angle_gamma                 119.827031
_cell_volume                      4258.77808081

loop_
_atom_site_label
_atom_site_type_symbol
_atom_type_description
_atom_site_fract_x
_atom_site_fract_y
_atom_site_fract_z
_atom_type_partial_charge
C1    C     C_R   0.782108 0.641858 0.641155 0.804871
C2    C     C_3   0.059405 0.199095 0.279489 -0.387265
C3    C     C_3   0.101814 0.300466 0.300849 0.208394
C4    C     C_R   0.217375 0.358560 0.358651 0.741178
C5    C     C_3   0.898091 0.198684 0.199008 0.209699
C6    C     C_3   0.939930 0.259331 0.150758 -0.399476
C7    C     C_3   0.940280 0.139574 0.219959 -0.385437
C8    C     C_3   0.603464 0.309713 0.747215 -0.391109
C9    C     C_3   0.604167 0.247027 0.805005 0.034516
C10   C     C_3   0.488124 0.330117 0.769955 -0.404516
C11   C     C_3   0.408847 0.200171 0.641074 -0.401259
C12   C     C_3   0.569453 0.766614 0.836593 -0.133969
C13   C     C_3   0.499659 0.300669 0.698458 0.173240
C14   C     C_3   0.502220 0.199596 0.801258 0.197098
C15   C     C_3   0.489626 0.270837 0.830337 -0.389544
C16   C     C_R   0.496384 0.637595 0.355519 0.782345
C17   C     C_3   0.408862 0.141305 0.701349 -0.452991
C18   C     C_3   0.940965 0.732991 0.799358 -0.391815
C19   C     C_3   0.059886 0.792162 0.858201 -0.456881
C20   C     C_3   0.938014 0.645648 0.686505 -0.023575
C21   C     C_3   0.938722 0.784866 0.669098 -0.011772
C22   C     C_3   0.897461 0.700197 0.698566 0.109187
C23   C     C_3   0.594792 0.792705 0.767399 -0.182440
C24   C     C_3   0.101976 0.801526 0.799823 0.109583
C25   C     C_3   0.058793 0.703461 0.750846 -0.054034
C26   C     C_3   0.060805 0.845234 0.729361 0.045303
C27   C     C_3   0.586349 0.360839 0.286807 -0.452137
C28   C     C_R   0.499305 0.358588 0.641058 0.752019
C29   C     C_3   0.596105 0.302789 0.235130 0.048722
C30   C     C_3   0.534967 0.238422 0.354188 0.025456
C31   C     C_3   0.397147 0.242246 0.213916 -0.410230
C32   C     C_3   0.504512 0.300351 0.305791 0.169700
C33   C     C_3   0.506813 0.200566 0.204098 0.163359
C34   C     C_3   0.525621 0.827794 0.733076 -0.182062
C35   C     C_3   0.522275 0.171839 0.287838 -0.380095
C36   C     C_3   0.401058 0.188728 0.151935 -0.480352
C37   C     C_3   0.588076 0.790009 0.353442 -0.545576
C38   C     C_3   0.592830 0.853138 0.296459 -0.036587
C39   C     C_3   0.503119 0.660858 0.220795 0.063871
C40   C     C_R   0.502172 0.358319 0.360722 0.767043
C41   C     C_3   0.392762 0.691592 0.249793 0.053571
C42   C     C_3   0.492145 0.691204 0.293806 0.110478
C43   C     C_3   0.497404 0.797572 0.195605 0.106662
C44   C     C_3   0.496963 0.719162 0.157456 0.048703
C45   C     C_3   0.430182 0.733105 0.663384 -0.133548
C46   C     C_3   0.397800 0.755503 0.193926 -0.446357
C47   C     C_R   0.500805 0.141355 0.858739 0.752915
C48   C     C_R   0.499931 0.858643 0.141069 0.787582
C49   C     C_R   0.782548 0.141221 0.141260 0.739142
C50   C     C_R   0.217608 0.857953 0.858701 0.796600
C51   C     C_R   0.502488 0.141830 0.143619 0.762051
C52   C     C_R   0.499785 0.641574 0.641522 0.770234
C53   C     C_R   0.500037 0.858298 0.858450 0.767879
C54   C     C_3   0.474014 0.671921 0.766897 -0.181711
C55   C     C_3   0.404844 0.707024 0.732586 -0.180949
C56   C     C_3   0.499424 0.698872 0.698617 0.060766
C57   C     C_3   0.500232 0.800858 0.801358 0.062601
C58   C     C_3   0.706206 0.299063 0.900339 -0.929227
C59   C     C_3   0.890456 0.552724 0.698866 -0.962167
C60   C     C_3   0.889018 0.835843 0.662171 -0.900230
C61   C     C_3   0.112349 0.946374 0.772679 -0.912275
C62   C     C_3   0.103949 0.697187 0.700170 -0.957554
C63   C     C_3   0.707193 0.325589 0.293204 -0.937103
C64   C     C_3   0.476838 0.186423 0.395415 -0.918172
C65   C     C_3   0.700141 0.907356 0.312449 -0.928608
C66   C     C_3   0.287078 0.598297 0.194545 -0.896305
C67   C     C_3   0.060062 0.319663 0.349295 -0.396958
C68   C     C_3   0.434825 0.557795 0.172231 -0.922989
C69   C     C_3   0.407495 0.664699 0.056490 -0.922770
C70   C     C_3   0.940052 0.259704 0.289305 -0.402079
C71   C     C_3   0.059954 0.319286 0.210749 -0.400234
H1    H     H_    0.326979 0.672927 0.719328 0.128807
H2    H     H_    0.552516 0.401910 0.812669 0.183253
H3    H     H_    0.553379 0.314239 0.901755 0.183038
H4    H     H_    0.412969 0.087903 0.677197 0.179973
H5    H     H_    0.334364 0.106870 0.694993 0.185325
H6    H     H_    0.626658 0.781141 0.908528 0.140794
H7    H     H_    0.415894 0.236321 0.825258 0.147761
H8    H     H_    0.912801 0.674817 0.822437 0.189332
H9    H     H_    0.912822 0.771586 0.809333 0.183842
H10   H     H_    0.089409 0.859234 0.897078 0.196014
H11   H     H_    0.087636 0.761055 0.908543 0.179342
H12   H     H_    0.911535 0.303299 0.276650 0.178432
H13   H     H_    0.913196 0.759742 0.599099 0.133979
H14   H     H_    0.084884 0.845170 0.684030 0.145759
H15   H     H_    0.662793 0.411064 0.351202 0.192774
H16   H     H_    0.562683 0.400315 0.246073 0.168019
H17   H     H_    0.585555 0.321833 0.174277 0.165112
H18   H     H_    0.618565 0.282670 0.411472 0.139632
H19   H     H_    0.591266 0.169525 0.322102 0.135484
H20   H     H_    0.336103 0.195002 0.223070 0.189251
H21   H     H_    0.374561 0.286026 0.181192 0.153245
H22   H     H_    0.389900 0.212671 0.093485 0.158844
H23   H     H_    0.911429 0.302932 0.135150 0.179987
H24   H     H_    0.335530 0.116356 0.124880 0.191203
H25   H     H_    0.453984 0.101982 0.265609 0.193573
H26   H     H_    0.660366 0.792434 0.389505 0.203870
H27   H     H_    0.584268 0.814614 0.406754 0.157169
H28   H     H_    0.586164 0.904035 0.321685 0.159107
H29   H     H_    0.372956 0.718571 0.591454 0.140911
H30   H     H_    0.568582 0.750114 0.159533 0.152185
H31   H     H_    0.395534 0.720717 0.305904 0.162932
H32   H     H_    0.327284 0.720997 0.123460 0.199889
H33   H     H_    0.088740 0.391842 0.365213 0.178769
H34   H     H_    0.087734 0.183037 0.244261 0.173030
H35   H     H_    0.089025 0.306324 0.414115 0.148764
H36   H     H_    0.911080 0.217401 0.325151 0.149326
H37   H     H_    0.088680 0.391475 0.223722 0.179321
H38   H     H_    0.911728 0.095066 0.156315 0.173962
H39   H     H_    0.088809 0.305646 0.174727 0.149523
H40   H     H_    0.910836 0.216756 0.085764 0.149579
H41   H     H_    0.614691 0.291535 0.696948 0.126891
H42   H     H_    0.710983 0.350519 0.939058 0.258083
H43   H     H_    0.714275 0.252324 0.937561 0.249407
H44   H     H_    0.773489 0.333933 0.895859 0.232417
H45   H     H_    0.087864 0.183324 0.342973 0.173148
H46   H     H_    0.333312 0.192181 0.604016 0.177254
H47   H     H_    0.416368 0.176520 0.590283 0.182843
H48   H     H_    0.414065 0.324483 0.736228 0.152030
H49   H     H_    0.909798 0.559520 0.767793 0.245980
H50   H     H_    0.804788 0.508835 0.649475 0.235837
H51   H     H_    0.921348 0.517826 0.687231 0.246809
H52   H     H_    0.082586 0.673875 0.804483 0.178325
H53   H     H_    0.912337 0.888860 0.632307 0.240410
H54   H     H_    0.803068 0.790096 0.616601 0.225191
H55   H     H_    0.911310 0.867198 0.728617 0.246256
H56   H     H_    0.911854 0.095389 0.255027 0.174765
H57   H     H_    0.198160 0.985844 0.812002 0.226989
H58   H     H_    0.088790 0.976262 0.719757 0.238289
H59   H     H_    0.091808 0.956375 0.817994 0.247050
H60   H     H_    0.672672 0.826862 0.780688 0.126614
H61   H     H_    0.913115 0.630940 0.615444 0.173204
H62   H     H_    0.187289 0.724681 0.747719 0.259890
H63   H     H_    0.063734 0.625377 0.663736 0.244042
H64   H     H_    0.093958 0.732472 0.650181 0.247286
H65   H     H_    0.728521 0.318797 0.360178 0.233578
H66   H     H_    0.716919 0.282485 0.261018 0.264506
H67   H     H_    0.668864 0.381503 0.789451 0.188380
H68   H     H_    0.763956 0.396520 0.304093 0.239203
H69   H     H_    0.546787 0.892689 0.720193 0.125487
H70   H     H_    0.502164 0.233015 0.455659 0.251987
H71   H     H_    0.391521 0.148169 0.345783 0.259681
H72   H     H_    0.495819 0.137904 0.418745 0.228289
H73   H     H_    0.714453 0.862911 0.288457 0.244397
H74   H     H_    0.708286 0.959403 0.279490 0.251109
H75   H     H_    0.761982 0.943718 0.385609 0.239937
H76   H     H_    0.583687 0.678833 0.258122 0.141224
H77   H     H_    0.259487 0.575142 0.123972 0.233137
H78   H     H_    0.452847 0.607031 0.779790 0.126146
H79   H     H_    0.289231 0.545582 0.224069 0.253109
H80   H     H_    0.227455 0.603046 0.192307 0.229722
H81   H     H_    0.398346 0.810040 0.223019 0.157029
H82   H     H_    0.459182 0.543205 0.132276 0.232811
H83   H     H_    0.444627 0.520798 0.220632 0.240478
H84   H     H_    0.351398 0.528955 0.126323 0.256729
H85   H     H_    0.407620 0.709793 0.015594 0.230520
H86   H     H_    0.417720 0.617872 0.030091 0.243573
H87   H     H_    0.330408 0.625211 0.044595 0.245710
H88   H     H_    0.603648 0.193483 0.774133 0.134252
O1    O     O_3   0.500000 0.500000 0.500000 -0.464841
O2    O     O_R   0.266230 0.883210 0.944500 -0.654315
O3    O     O_R   0.561150 0.178510 0.117240 -0.653358
O4    O     O_R   0.733670 0.616970 0.678220 -0.646267
O5    O     O_R   0.438720 0.882700 0.821420 -0.643605
O6    O     O_R   0.438610 0.055960 0.117240 -0.651043
O7    O     O_R   0.561250 0.882700 0.943960 -0.648399
O8    O     O_R   0.733630 0.055440 0.116700 -0.651333
O9    O     O_R   0.266260 0.883000 0.821740 -0.643008
O10   O     O_R   0.561190 0.178210 0.944500 -0.640435
O11   O     O_R   0.438650 0.883210 0.116920 -0.657140
O12   O     O_R   0.438720 0.616970 0.383270 -0.649892
O13   O     O_R   0.266300 0.444520 0.383270 -0.649032
O14   O     O_R   0.561280 0.616750 0.383040 -0.652273
O15   O     O_R   0.438750 0.321760 0.555460 -0.653237
O16   O     O_R   0.561320 0.444010 0.382720 -0.659037
O17   O     O_R   0.561210 0.617270 0.678540 -0.643112
O18   O     O_R   0.438790 0.321460 0.382720 -0.640482
O19   O     O_R   0.438680 0.617270 0.556010 -0.648512
O20   O     O_R   0.561250 0.444520 0.678220 -0.649034
O21   O     O_R   0.733700 0.616750 0.555460 -0.660597
O22   O     O_R   0.266330 0.321760 0.383040 -0.650989
O23   O     O_3   0.499930 0.999970 0.999970 -0.464707
O24   O     O_R   0.438680 0.055440 0.821740 -0.653926
O25   O     O_R   0.561210 0.883000 0.116700 -0.645109
O26   O     O_R   0.733610 0.178210 0.116920 -0.651417
Zn1   Zn    Zn3+2 0.412450 0.543930 0.456390 0.944472
Zn2   Zn    Zn3+2 0.587550 0.543620 0.456070 0.934599
Zn3   Zn    Zn3+2 0.412480 0.368530 0.456070 0.936199
Zn4   Zn    Zn3+2 0.587520 0.543930 0.631470 0.947126
Zn5   Zn    Zn3+2 0.587490 0.956040 0.043570 0.941467
Zn6   Zn    Zn3+2 0.587450 0.131440 0.043900 0.937446
Zn7   Zn    Zn3+2 0.412380 0.956350 0.043900 0.936295
Zn8   Zn    Zn3+2 0.412420 0.956040 0.868500 0.943970

loop_
_geom_bond_atom_site_label_1
_geom_bond_atom_site_label_2
_ccdc_geom_bond_type
C16   O14   A    
C59   H50   S    
C46   H81   S    
C21   C26   S    
C29   C63   S    
C8    C13   S    
C30   C64   S    
C27   C29   S    
C39   C68   S    
C2    C7    S    
C36   H24   S    
O1    Zn1   S    
C43   C44   S    
C68   H84   S    
O6    Zn7   S    
C37   H26   S    
C23   C56   S    
C35   H25   S    
C12   C23   S    
C43   C46   S    
C59   H49   S    
O18   Zn3   S    
C30   C35   S    
C62   H62   S    
C21   C22   S    
C60   H54   S    
C26   C61   S    
C24   C26   S    
O1    Zn4   S    
C49   O8    A    
C68   H83   S    
C70   H36   S    
C8    H41   S    
C5    C6    S    
C1    O21   A    
C15   H7    S    
C20   C25   S    
C9    H88   S    
C41   C66   S    
C71   H39   S    
C29   C33   S    
C33   C36   S    
C41   H31   S    
C51   O3    A    
C8    H67   S    
C18   C19   S    
C41   C42   S    
C37   C42   S    
C60   H53   S    
C67   H35   S    
O3    Zn6   S    
C29   H17   S    
C10   H48   S    
O15   Zn3   S    
C2    H45   S    
C36   H22   S    
C6    H40   S    
C11   C17   S    
C45   C56   S    
O13   Zn1   S    
C18   H8    S    
C6    H23   S    
C58   H42   S    
C69   H86   S    
C41   C46   S    
C21   H13   S    
C13   C28   S    
C4    O22   A    
C39   C42   S    
C19   H11   S    
C43   C48   S    
C52   O17   A    
C31   C36   S    
C66   H77   S    
C55   H1    S    
C61   H58   S    
C59   H51   S    
C1    C22   S    
C71   H37   S    
C50   O2    A    
C63   H66   S    
C14   C17   S    
C5    C49   S    
O23   Zn7   S    
C20   H61   S    
O2    Zn7   S    
C37   H27   S    
C47   O10   A    
O22   Zn3   S    
C67   H33   S    
O26   Zn6   S    
C54   H78   S    
C24   C50   S    
C6    C71   S    
C54   C56   S    
C69   H85   S    
C24   C25   S    
C21   C60   S    
C47   O24   A    
C68   H82   S    
C48   O25   A    
C65   H73   S    
C53   C57   S    
O5    Zn8   S    
C8    C9    S    
C10   C13   S    
C7    H38   S    
O7    Zn5   S    
C62   H64   S    
C37   C38   S    
C27   H15   S    
C3    C71   S    
C9    C14   S    
C5    C70   S    
O21   Zn2   S    
C17   H5    S    
O14   Zn2   S    
C31   C32   S    
O20   Zn4   S    
C38   C65   S    
C23   C34   S    
C12   H6    S    
C69   H87   S    
C23   H60   S    
C44   C69   S    
O4    Zn4   S    
O23   Zn8   S    
C20   C59   S    
C27   H16   S    
C70   H12   S    
C25   H52   S    
C45   C55   S    
C39   C44   S    
C60   H55   S    
C34   C45   S    
C61   H59   S    
C48   O11   A    
C10   H2    S    
C20   C22   S    
C31   H20   S    
O9    Zn8   S    
C55   C57   S    
C50   O9    A    
C58   H44   S    
O25   Zn5   S    
C51   O6    A    
O23   Zn6   S    
C12   C57   S    
C65   H74   S    
C3    C4    S    
C11   H46   S    
C16   C42   S    
O24   Zn8   S    
C5    C7    S    
C26   H14   S    
O8    Zn5   S    
C54   C55   S    
C9    C58   S    
O11   Zn7   S    
C4    O13   A    
O12   Zn1   S    
C27   C32   S    
C18   C22   S    
C63   H68   S    
C3    C67   S    
C38   H28   S    
C45   H29   S    
C40   O16   A    
C44   H30   S    
C53   O5    A    
C66   H79   S    
C14   C47   S    
C64   H72   S    
C33   C51   S    
C46   H32   S    
C2    H34   S    
C10   C15   S    
C67   C70   S    
C63   H65   S    
C62   H63   S    
C30   H18   S    
C2    C3    S    
C38   C43   S    
C30   C32   S    
C11   C13   S    
C16   O12   A    
C28   O15   A    
O17   Zn4   S    
C64   H71   S    
C34   C57   S    
C34   H69   S    
C33   C35   S    
C19   C24   S    
C61   H57   S    
C25   C62   S    
C32   C40   S    
C28   O20   A    
C52   O19   A    
O16   Zn2   S    
C40   O18   A    
O19   Zn1   S    
C35   H19   S    
C53   O7    A    
C66   H80   S    
C15   H3    S    
C49   O26   A    
C1    O4    A    
C18   H9    S    
C31   H21   S    
C64   H70   S    
C39   H76   S    
C58   H43   S    
O10   Zn6   S    
C14   C15   S    
O23   Zn5   S    
O1    Zn2   S    
C7    H56   S    
C65   H75   S    
C19   H10   S    
C11   H47   S    
C12   C54   S    
C52   C56   S    
C17   H4    S    
O1    Zn3   S    
