data_mof_unit_6315.cif
_audit_creation_date              2012-12-10T17:34:52-0500
_audit_creation_method            fapswitch 2.2
_symmetry_space_group_name_H-M    P1
_symmetry_Int_Tables_number       1
_space_group_crystal_system       triclinic
_cell_length_a                    11.994446
_cell_length_b                    12.796833
_cell_length_c                    15.728518
_cell_angle_alpha                 90.13056
_cell_angle_beta                  86.629483
_cell_angle_gamma                 94.101492
_cell_volume                      2403.83198929

loop_
_atom_site_label
_atom_site_type_symbol
_atom_type_description
_atom_site_fract_x
_atom_site_fract_y
_atom_site_fract_z
_atom_type_partial_charge
C1    C     C_R   0.522833 0.700422 0.498791 0.877365
C2    C     C_R   0.538057 0.811741 0.503814 -0.038334
C3    C     C_R   0.619342 0.964696 0.571546 -0.222248
C4    C     C_R   0.500527 0.499783 0.661662 0.900191
C5    C     C_R   0.619891 0.858766 0.553665 -0.219365
C6    C     C_R   0.460325 0.869850 0.467082 -0.265756
C7    C     C_R   0.459444 0.975541 0.483598 0.148802
C8    C     C_R   0.537125 0.024148 0.538876 0.167029
C9    C     C_R   0.531321 0.130891 0.558063 0.090349
C10   C     C_R   0.383262 0.139045 0.457418 -0.243263
C11   C     C_R   0.380671 0.032356 0.445937 -0.225633
C12   C     C_3   0.379647 0.528347 0.050410 -0.019691
C13   C     C_R   0.953662 0.413797 0.409893 0.077723
C14   C     C_R   0.836765 0.421193 0.421463 0.018219
C15   C     C_R   0.858057 0.535491 0.538887 -0.081037
C16   C     C_R   0.477205 0.299801 0.504699 0.866883
C17   C     C_R   0.975971 0.531853 0.532190 -0.011120
C18   C     C_R   0.024139 0.469482 0.466973 -0.010677
C19   C     C_R   0.141958 0.464938 0.460846 -0.077803
C20   C     C_R   0.163373 0.580265 0.577601 0.019573
C21   C     C_R   0.046587 0.588940 0.588376 0.076679
C22   C     C_R   0.499417 0.499710 0.338381 0.912781
C23   C     C_3   0.500690 0.518316 0.083359 0.305352
C24   C     C_3   0.392010 0.541821 0.952629 -0.533218
C25   C     C_3   0.601109 0.596186 0.944545 -0.054910
C26   C     C_3   0.592649 0.608306 0.046652 0.309243
C27   C     C_1   0.498567 0.504819 0.249797 -0.232572
C28   C     C_3   0.509380 0.511572 0.916930 0.240268
C29   C     C_3   0.297806 0.605345 0.092744 -0.413833
C30   C     C_3   0.245649 0.569859 0.180199 -0.880843
C31   C     C_3   0.594657 0.182046 0.630892 -0.403141
C32   C     C_3   0.548086 0.139145 0.717511 -0.902653
C33   C     C_3   0.004261 0.349010 0.337734 -0.428360
C34   C     C_3   0.530762 0.407533 0.049593 -0.496639
C35   C     C_3   0.921692 0.296160 0.277674 -0.901953
C36   C     C_3   0.996335 0.657403 0.658231 -0.427575
C37   C     C_3   0.079600 0.716608 0.714325 -0.905302
C38   C     C_3   0.719912 0.583646 0.899987 -0.389963
C39   C     C_3   0.781364 0.688905 0.874225 -0.942702
C40   C     C_3   0.554865 0.723469 0.062064 -0.463952
C41   C     C_3   0.532032 0.762124 0.153825 -0.896502
C42   C     C_3   0.709521 0.608453 0.090393 -0.327181
C43   C     C_3   0.765103 0.506793 0.107914 -0.945957
C44   C     C_3   0.533987 0.403811 0.951906 -0.421584
C45   C     C_1   0.497840 0.511472 0.174725 -0.034513
C46   C     C_1   0.505829 0.506041 0.825450 -0.087524
C47   C     C_1   0.502756 0.502427 0.750358 -0.194280
C48   C     C_R   0.460995 0.188235 0.509832 -0.083239
H1    H     H_    0.683020 0.998324 0.611258 0.153244
H2    H     H_    0.222170 0.484336 0.181582 0.249860
H3    H     H_    0.303304 0.590441 0.230997 0.272794
H4    H     H_    0.168616 0.611356 0.194914 0.247393
H5    H     H_    0.333514 0.686400 0.097826 0.232118
H6    H     H_    0.226787 0.609474 0.050713 0.211199
H7    H     H_    0.324512 0.491673 0.923616 0.184787
H8    H     H_    0.331801 0.450948 0.060454 0.172086
H9    H     H_    0.608026 0.379550 0.072324 0.202562
H10   H     H_    0.457973 0.153605 0.727056 0.264444
H11   H     H_    0.557342 0.053910 0.723136 0.264007
H12   H     H_    0.320935 0.995115 0.404232 0.146511
H13   H     H_    0.593906 0.179747 0.768859 0.247443
H14   H     H_    0.685633 0.171631 0.621764 0.200383
H15   H     H_    0.587272 0.267640 0.634552 0.227367
H16   H     H_    0.328001 0.183986 0.422219 0.157953
H17   H     H_    0.398570 0.831797 0.427238 0.147821
H18   H     H_    0.182842 0.417768 0.413055 0.132568
H19   H     H_    0.862345 0.238837 0.312979 0.259111
H20   H     H_    0.875139 0.355644 0.246029 0.260388
H21   H     H_    0.968573 0.253109 0.227476 0.253958
H22   H     H_    0.064810 0.400967 0.298209 0.210431
H23   H     H_    0.680342 0.812703 0.582176 0.149114
H24   H     H_    0.050774 0.286716 0.365775 0.208094
H25   H     H_    0.126642 0.660807 0.749689 0.256893
H26   H     H_    0.138467 0.770453 0.675160 0.263102
H27   H     H_    0.033344 0.764468 0.761551 0.254039
H28   H     H_    0.947770 0.716621 0.628089 0.210418
H29   H     H_    0.937651 0.607198 0.700655 0.211814
H30   H     H_    0.817092 0.582189 0.586972 0.133278
H31   H     H_    0.738653 0.724997 0.822046 0.260783
H32   H     H_    0.784117 0.744199 0.928490 0.254735
H33   H     H_    0.868497 0.676254 0.850929 0.263777
H34   H     H_    0.379534 0.623938 0.934326 0.168006
H35   H     H_    0.774050 0.539883 0.938365 0.230968
H36   H     H_    0.713970 0.537380 0.840520 0.215775
H37   H     H_    0.474682 0.707541 0.192474 0.273373
H38   H     H_    0.610440 0.779061 0.186787 0.249644
H39   H     H_    0.491505 0.837328 0.151324 0.247623
H40   H     H_    0.621642 0.779449 0.033091 0.203720
H41   H     H_    0.481511 0.737439 0.025332 0.189122
H42   H     H_    0.719933 0.463046 0.161846 0.262507
H43   H     H_    0.774224 0.455078 0.052089 0.250291
H44   H     H_    0.850976 0.527505 0.128386 0.252972
H45   H     H_    0.220693 0.621350 0.618613 0.154600
H46   H     H_    0.772462 0.662402 0.055533 0.203907
H47   H     H_    0.700563 0.643204 0.154638 0.223310
H48   H     H_    0.466854 0.346088 0.074811 0.164533
H49   H     H_    0.779501 0.380502 0.380187 0.153881
H50   H     H_    0.575119 0.668996 0.914834 0.146893
H51   H     H_    0.470465 0.342652 0.931292 0.183545
H52   H     H_    0.617413 0.381183 0.926570 0.176752
N1    N     N_R   0.207800 0.519340 0.515510 -0.119551
N2    N     N_R   0.792190 0.480660 0.484490 -0.119623
O1    O     O_R   0.421690 0.658830 0.504140 -0.621297
O2    O     O_R   0.609320 0.646410 0.494190 -0.619038
O3    O     O_R   0.406150 0.506210 0.627840 -0.617504
O4    O     O_R   0.593770 0.493790 0.617880 -0.628093
O5    O     O_R   0.390680 0.353590 0.505810 -0.615227
O6    O     O_R   0.578310 0.341170 0.495860 -0.630383
O7    O     O_R   0.406230 0.506210 0.382120 -0.622148
O8    O     O_R   0.593850 0.493790 0.372160 -0.615915
Zn1   Zn    Zn3+2 0.374720 0.508290 0.506640 0.935816
Zn2   Zn    Zn3+2 0.625280 0.491710 0.493360 0.929926

loop_
_geom_bond_atom_site_label_1
_geom_bond_atom_site_label_2
_ccdc_geom_bond_type
C20   H45   S    
C23   C45   S    
C38   H35   S    
C44   H52   S    
N2    Zn2   S    
C32   H10   S    
C37   H26   S    
C16   C48   S    
C3    H1    S    
C7    C8    A    
C21   C36   S    
O4    Zn2   S    
C24   H7    S    
C7    C11   A    
C41   H38   S    
C12   C23   S    
C28   C46   S    
C13   C18   A    
C36   C37   S    
C30   H3    S    
C34   H48   S    
C32   H13   S    
C18   C19   A    
C36   H29   S    
O7    Zn1   S    
C38   C39   S    
C12   C29   S    
C44   H51   S    
C14   N2    A    
C15   H30   S    
C29   H6    S    
C19   H18   S    
O1    Zn1   S    
C1    C2    S    
C23   C26   S    
C24   H34   S    
C30   H4    S    
C36   H28   S    
C16   O5    A    
C6    H17   S    
C8    C9    A    
C22   O8    A    
C34   H9    S    
C40   H41   S    
C1    O1    A    
C33   H24   S    
C27   C45   T    
C37   H27   S    
C13   C14   A    
C31   H14   S    
C2    C6    A    
C41   H39   S    
C43   H42   S    
C42   H47   S    
C31   H15   S    
C34   C44   S    
C39   H33   S    
C3    C8    A    
O2    Zn2   S    
C16   O6    A    
C20   N1    A    
C25   C26   S    
C4    O4    A    
C28   C44   S    
C43   H43   S    
O6    Zn2   S    
C25   C28   S    
C39   H31   S    
C13   C33   S    
C29   C30   S    
C25   C38   S    
C31   C32   S    
C35   H19   S    
C23   C34   S    
C17   C18   A    
C1    O2    A    
C12   H8    S    
C33   H22   S    
C40   C41   S    
C22   C27   S    
C10   C48   A    
C2    C5    A    
C42   C43   S    
C11   H12   S    
C26   C42   S    
C14   H49   S    
C15   C17   A    
C37   H25   S    
C46   C47   T    
C38   H36   S    
C42   H46   S    
O5    Zn1   S    
C10   H16   S    
C24   C28   S    
C3    C5    A    
C6    C7    A    
N1    Zn1   S    
C41   H37   S    
C4    O3    A    
C12   C24   S    
C43   H44   S    
C22   O7    A    
C39   H32   S    
C40   H40   S    
C5    H23   S    
C19   N1    A    
C26   C40   S    
C29   H5    S    
C35   H20   S    
C33   C35   S    
C15   N2    A    
C30   H2    S    
O8    Zn2   S    
C10   C11   A    
C9    C31   S    
O3    Zn1   S    
C25   H50   S    
C20   C21   A    
C35   H21   S    
C9    C48   A    
C32   H11   S    
C4    C47   S    
C17   C21   A    
