data_mof_unit_31506.cif
_audit_creation_date              2012-12-10T17:10:27-0500
_audit_creation_method            fapswitch 2.2
_symmetry_space_group_name_H-M    P1
_symmetry_Int_Tables_number       1
_space_group_crystal_system       triclinic
_cell_length_a                    10.859397
_cell_length_b                    12.964859
_cell_length_c                    11.80237
_cell_angle_alpha                 98.6634
_cell_angle_beta                  90.604719
_cell_angle_gamma                 94.854742
_cell_volume                      1636.35181694

loop_
_atom_site_label
_atom_site_type_symbol
_atom_type_description
_atom_site_fract_x
_atom_site_fract_y
_atom_site_fract_z
_atom_type_partial_charge
C1    C     C_R   0.497992 0.299617 0.479227 0.803804
C2    C     C_R   0.499204 0.700149 0.520841 0.831691
C3    C     C_R   0.500538 0.813454 0.532755 -0.060559
C4    C     C_R   0.494061 0.186113 0.467359 -0.042356
C5    C     C_R   0.448322 0.015633 0.352737 -0.203579
C6    C     C_R   0.545432 0.983929 0.647322 -0.207407
C7    C     C_R   0.456091 0.124090 0.362792 -0.185572
C8    C     C_R   0.536813 0.875597 0.637686 -0.141064
C9    C     C_R   0.525968 0.139185 0.561321 -0.239352
C10   C     C_R   0.470079 0.860125 0.438130 -0.270903
C11   C     C_R   0.516798 0.030850 0.552452 0.169722
C12   C     C_R   0.477974 0.968531 0.447256 0.174607
C13   C     C_R   0.387667 0.392362 0.032011 -0.313661
C14   C     C_R   0.606533 0.610977 0.968567 -0.297327
C15   C     C_R   0.397480 0.404497 0.151317 0.057649
C16   C     C_R   0.596843 0.599211 0.849390 0.079451
C17   C     C_R   0.547540 0.548757 0.151665 0.302159
C18   C     C_R   0.455354 0.448210 0.847702 0.266048
C19   C     C_R   0.538395 0.540835 0.030475 0.023192
C20   C     C_R   0.459510 0.459722 0.969404 0.017744
C21   C     C_R   0.263099 0.505564 0.504263 0.806463
C22   C     C_R   0.737571 0.505057 0.498049 0.851544
C23   C     C_R   0.093838 0.445567 0.698026 0.044233
C24   C     C_R   0.899692 0.693360 0.445496 0.051284
C25   C     C_R   0.028128 0.363742 0.743553 -0.202210
C26   C     C_R   0.969010 0.760761 0.383105 -0.167829
C27   C     C_R   0.919041 0.314918 0.689722 -0.119003
C28   C     C_R   0.089171 0.741810 0.352668 -0.134926
C29   C     C_R   0.867352 0.356949 0.600101 -0.136016
C30   C     C_R   0.144238 0.660569 0.392253 -0.153707
C31   C     C_R   0.931657 0.441962 0.557505 0.024076
C32   C     C_R   0.074533 0.589805 0.451999 0.054420
C33   C     C_R   0.056160 0.467650 0.589425 0.070279
C34   C     C_R   0.945657 0.597207 0.462412 0.082792
C35   C     C_R   0.872777 0.511134 0.497625 -0.158533
C36   C     C_R   0.130901 0.521737 0.515687 -0.147708
Cu1   Cu    Cu3+1 0.509250 0.507730 0.615930 1.014442
Cu2   Cu    Cu3+1 0.490750 0.492270 0.384070 0.965948
H1    H     H_    0.143624 0.796252 0.308092 0.144577
H2    H     H_    0.868155 0.252156 0.725016 0.143855
H3    H     H_    0.322521 0.330043 0.991631 0.176070
H4    H     H_    0.667104 0.676325 0.009736 0.183454
H5    H     H_    0.056445 0.342580 0.824674 0.146827
H6    H     H_    0.933502 0.832527 0.365533 0.142215
H7    H     H_    0.775493 0.326337 0.568539 0.127272
H8    H     H_    0.242403 0.658357 0.380708 0.159724
H9    H     H_    0.440939 0.812321 0.357307 0.165247
H10   H     H_    0.557594 0.186765 0.641513 0.169066
H11   H     H_    0.561092 0.840617 0.711708 0.175805
H12   H     H_    0.430987 0.159271 0.289149 0.158441
H13   H     H_    0.418503 0.968779 0.271646 0.143798
H14   H     H_    0.574875 0.030851 0.728481 0.147594
H15   H     H_    0.648929 0.654173 0.803869 0.172801
H16   H     H_    0.341972 0.352069 0.197432 0.135721
N1    N     N_R   0.523180 0.519350 0.790130 -0.191729
N2    N     N_R   0.476820 0.480650 0.209870 -0.194364
O1    O     O_R   0.506570 0.354460 0.582000 -0.566290
O2    O     O_R   0.493430 0.645540 0.418000 -0.585338
O3    O     O_R   0.490940 0.341410 0.386200 -0.595747
O4    O     O_R   0.509060 0.658590 0.613800 -0.561542
O5    O     O_R   0.327470 0.506520 0.597900 -0.537643
O6    O     O_R   0.672530 0.493480 0.402100 -0.565379
O7    O     O_R   0.311840 0.493460 0.402100 -0.601405
O8    O     O_R   0.688160 0.506540 0.597900 -0.549700
C37   C     C_2   0.171029 0.523816 0.779742 0.431876
H17   H     H_    0.201294 0.503724 0.860941 0.057652
O9    O     O_2   0.195160 0.613310 0.760860 -0.523751
C38   C     C_2   0.798273 0.738842 0.512865 0.327378
H18   H     H_    0.747881 0.797581 0.480805 0.087426
O10   O     O_2   0.778103 0.719067 0.609170 -0.557716
I1    I     I_    0.343839 0.314126 0.760435 -0.441559
I2    I     I_    0.678779 0.664865 0.238448 -0.434474

loop_
_geom_bond_atom_site_label_1
_geom_bond_atom_site_label_2
_ccdc_geom_bond_type
C18   C20   A    
Cu1   O5    S    
C11   C12   A    
C31   C33   A    
C33   C36   A    
Cu1   Cu2   S    
C14   C16   A    
C1    O1    A    
C22   O6    A    
C5    C7    A    
C21   O5    A    
C19   C20   A    
C13   C20   A    
C13   C15   A    
C27   H2    S    
C14   H4    S    
C1    C4    S    
C15   N2    A    
C25   H5    S    
C2    O2    A    
C2    C3    S    
C16   N1    A    
C26   H6    S    
C28   C30   A    
C29   C31   A    
C3    C10   A    
C23   C25   A    
C32   C34   A    
C30   C32   A    
C22   C35   S    
C9    C11   A    
C17   N2    A    
C23   C37   S    
C10   C12   A    
C18   N1    A    
C9    H10   S    
C4    C7    A    
C32   C36   A    
C13   H3    S    
C17   C19   A    
C24   C26   A    
C34   C35   A    
Cu2   O6    S    
C31   C35   A    
C1    O3    A    
C3    C8    A    
Cu1   O1    S    
C2    O4    A    
C21   O7    A    
Cu1   O4    S    
C25   C27   A    
C37   H17   S    
C24   C38   S    
C22   O8    A    
Cu2   O3    S    
Cu1   N1    S    
C15   H16   S    
C6    C11   A    
Cu1   O8    S    
Cu2   N2    S    
C27   C29   A    
C17   I2    S    
C38   O10   D    
Cu2   O7    S    
C18   I1    S    
C21   C36   S    
C16   H15   S    
C5    H13   S    
C6    C8    A    
C8    H11   S    
C28   H1    S    
C6    H14   S    
C4    C9    A    
Cu2   O2    S    
C10   H9    S    
C26   C28   A    
C14   C19   A    
C30   H8    S    
C24   C34   A    
C37   O9    D    
C7    H12   S    
C29   H7    S    
C38   H18   S    
C23   C33   A    
C5    C12   A    
