data_mof_unit_13691.cif
_audit_creation_date              2012-12-10T17:05:46-0500
_audit_creation_method            fapswitch 2.2
_symmetry_space_group_name_H-M    P1
_symmetry_Int_Tables_number       1
_space_group_crystal_system       triclinic
_cell_length_a                    15.875017
_cell_length_b                    11.048268
_cell_length_c                    9.881656
_cell_angle_alpha                 111.755679
_cell_angle_beta                  97.488124
_cell_angle_gamma                 91.696378
_cell_volume                      1590.26023396

loop_
_atom_site_label
_atom_site_type_symbol
_atom_type_description
_atom_site_fract_x
_atom_site_fract_y
_atom_site_fract_z
_atom_type_partial_charge
C1    C     C_R   0.493699 0.253408 0.439369 0.814983
C2    C     C_2   0.502756 0.067266 0.511550 -0.178651
C3    C     C_2   0.511941 0.886152 0.594225 -0.326186
C4    C     C_R   0.340504 0.499808 0.501699 0.825914
C5    C     C_2   0.490010 0.929058 0.486203 -0.111835
C6    C     C_2   0.506999 0.512528 0.081906 -0.094726
C7    C     C_2   0.487257 0.498419 0.922812 0.059350
C8    C     C_R   0.506018 0.746081 0.560169 0.844163
C9    C     C_R   0.659491 0.499588 0.498181 0.819222
C10   C     C_3   0.051796 0.386097 0.561168 -0.205130
C11   C     C_3   0.038238 0.451215 0.341145 -0.430815
C12   C     C_3   0.954147 0.393559 0.572523 -0.230534
C13   C     C_3   0.939239 0.442212 0.333896 -0.160834
C14   C     C_1   0.748569 0.495287 0.493935 -0.075823
C15   C     C_3   0.083179 0.490425 0.502439 0.161894
C16   C     C_2   0.905470 0.259328 0.521421 0.865911
C17   C     C_2   0.103447 0.394515 0.705304 0.875907
C18   C     C_2   0.473151 0.022648 0.243081 0.866312
C19   C     C_2   0.406196 0.423873 0.838954 0.921428
C20   C     C_2   0.895942 0.309700 0.230003 0.872294
C21   C     C_3   0.916145 0.484506 0.493655 0.122311
C22   C     C_3   0.958933 0.624992 0.584001 -0.421239
C23   C     C_3   0.056925 0.627450 0.593287 -0.336225
C24   C     C_1   0.823837 0.490465 0.492798 -0.005629
C25   C     C_1   0.175691 0.495070 0.504738 -0.046456
C26   C     C_1   0.251207 0.497920 0.504699 -0.094484
C27   C     C_2   0.489900 0.111726 0.401580 -0.181231
Cu1   Cu    Cu3+1 0.514650 0.521810 0.644910 0.999862
Cu2   Cu    Cu3+1 0.485350 0.478190 0.355090 1.006322
H1    H     H_    0.947035 0.441566 0.690990 0.152121
H2    H     H_    0.061396 0.358597 0.269824 0.222518
H3    H     H_    0.087335 0.660920 0.710248 0.222681
H4    H     H_    0.079601 0.700421 0.550087 0.180010
H5    H     H_    0.942240 0.661471 0.697545 0.193292
H6    H     H_    0.904933 0.062782 0.427853 0.343068
H7    H     H_    0.183263 0.307124 0.809587 0.352807
H8    H     H_    0.934828 0.693589 0.531939 0.184680
H9    H     H_    0.505050 0.864187 0.080739 0.337515
H10   H     H_    0.344873 0.250020 0.704743 0.338297
H11   H     H_    0.905068 0.117776 0.115995 0.347240
H12   H     H_    0.461928 0.860564 0.377566 0.209833
H13   H     H_    0.915023 0.514126 0.286683 0.131361
H14   H     H_    0.520414 0.135051 0.625128 0.221385
H15   H     H_    0.536790 0.953477 0.705543 0.172940
H16   H     H_    0.558735 0.582540 0.153269 0.172235
H17   H     H_    0.592070 0.605770 0.928082 0.200599
H18   H     H_    0.062602 0.289945 0.477780 0.207241
H19   H     H_    0.414934 0.377682 0.069677 0.223765
H20   H     H_    0.057285 0.525972 0.297626 0.183044
N1    N     N_2   0.463320 0.445430 0.137380 -0.271480
N2    N     N_2   0.536720 0.554500 0.862620 -0.328159
O1    O     O_R   0.507820 0.332330 0.577400 -0.554720
O2    O     O_R   0.944544 0.144634 0.454951 -0.731110
O3    O     O_2   0.102989 0.490070 0.818675 -0.583864
O4    O     O_R   0.151568 0.291212 0.707775 -0.739888
O5    O     O_2   0.417860 0.044205 0.158428 -0.564225
O6    O     O_R   0.522362 0.916857 0.190059 -0.764379
O7    O     O_2   0.339701 0.477092 0.854252 -0.583317
O8    O     O_R   0.404511 0.290610 0.754131 -0.775791
O9    O     O_2   0.819495 0.299713 0.185411 -0.579876
O10   O     O_R   0.942070 0.199348 0.184415 -0.739741
O11   O     O_R   0.483070 0.295500 0.332660 -0.543839
O12   O     O_R   0.391820 0.518430 0.622420 -0.555680
O13   O     O_R   0.367070 0.481600 0.377680 -0.568700
O14   O     O_R   0.516930 0.704500 0.667340 -0.572033
O15   O     O_R   0.492180 0.667670 0.422600 -0.577566
O16   O     O_R   0.632930 0.518400 0.622320 -0.571147
O17   O     O_R   0.608180 0.481570 0.377580 -0.566243
O18   O     O_2   0.831833 0.251455 0.543434 -0.580950

loop_
_geom_bond_atom_site_label_1
_geom_bond_atom_site_label_2
_ccdc_geom_bond_type
C16   O18   D    
C4    C26   S    
C9    C14   S    
C9    O16   A    
C8    O15   A    
C2    C27   D    
C11   H20   S    
C6    H16   S    
H6    O2    S    
C20   O9    D    
H9    O6    S    
C11   C13   S    
C4    O13   A    
C18   O6    S    
C18   O5    D    
C2    H14   S    
Cu2   N1    S    
H10   O8    S    
C23   H3    S    
H19   N1    S    
Cu1   O14   S    
Cu2   O13   S    
C11   H2    S    
C8    O14   A    
H7    O4    S    
C21   C22   S    
C1    O11   A    
Cu1   O1    S    
C4    O12   A    
C6    C7    S    
C10   C12   S    
H17   N2    S    
C17   O3    D    
C15   C23   S    
Cu1   Cu2   S    
C1    O1    A    
C7    C19   S    
C10   C15   S    
C22   C23   S    
C19   O7    D    
C22   H5    S    
Cu1   N2    S    
C3    H15   S    
C9    O17   A    
C2    C5    S    
C15   C25   S    
C18   C27   S    
C10   C17   S    
C13   C21   S    
Cu2   O15   S    
Cu2   O17   S    
Cu1   O12   S    
C3    C5    D    
C10   H18   S    
Cu1   O16   S    
C19   O8    S    
C3    C8    S    
C7    N2    D    
C21   C24   S    
C14   C24   T    
C20   O10   S    
C1    C27   S    
C17   O4    S    
Cu2   O11   S    
C13   H13   S    
C5    H12   S    
C13   C20   S    
C12   H1    S    
C25   C26   T    
C16   O2    S    
C22   H8    S    
C11   C15   S    
C12   C21   S    
C6    N1    D    
H11   O10   S    
C12   C16   S    
C23   H4    S    
