data_mof_unit_16444.cif
_audit_creation_date              2012-12-11T15:33:45-0500
_audit_creation_method            fapswitch 2.2
_symmetry_space_group_name_H-M    P1
_symmetry_Int_Tables_number       1
_space_group_crystal_system       triclinic
_cell_length_a                    27.401002
_cell_length_b                    7.180172
_cell_length_c                    22.510479
_cell_angle_alpha                 89.926246
_cell_angle_beta                  101.041589
_cell_angle_gamma                 89.939248
_cell_volume                      4346.80807634

loop_
_atom_site_label
_atom_site_type_symbol
_atom_type_description
_atom_site_fract_x
_atom_site_fract_y
_atom_site_fract_z
_atom_type_partial_charge
O1    O     O_R   0.207310 0.594030 0.676830 -0.532670
O2    O     O_R   0.792690 0.405970 0.323170 -0.532975
O3    O     O_R   0.292690 0.094030 0.823170 -0.532708
O4    O     O_R   0.707310 0.905970 0.176830 -0.533144
O5    O     O_R   0.197320 0.262370 0.795700 -0.540739
O6    O     O_R   0.802680 0.737630 0.204300 -0.547137
O7    O     O_R   0.302680 0.762370 0.704300 -0.540638
O8    O     O_R   0.697320 0.237630 0.295700 -0.547087
C1    C     C_R   0.184605 0.432852 0.812088 0.691222
C2    C     C_R   0.815951 0.566739 0.188862 0.697036
C3    C     C_R   0.315410 0.932857 0.687929 0.691363
C4    C     C_R   0.684064 0.066779 0.311167 0.696430
O9    O     O_R   0.201410 0.264250 0.675590 -0.540829
O10   O     O_R   0.798590 0.735750 0.324410 -0.539339
O11   O     O_R   0.298590 0.764250 0.824410 -0.539981
O12   O     O_R   0.701410 0.235750 0.175590 -0.538854
O13   O     O_R   0.296810 0.094940 0.702210 -0.504518
O14   O     O_R   0.703190 0.905060 0.297790 -0.498627
O15   O     O_R   0.203190 0.594940 0.797790 -0.504422
O16   O     O_R   0.796810 0.405060 0.202210 -0.498476
C5    C     C_R   0.189622 0.434069 0.653260 0.681232
C6    C     C_R   0.810345 0.566126 0.346631 0.675315
C7    C     C_R   0.310406 0.933740 0.846736 0.681292
C8    C     C_R   0.689593 0.066477 0.153421 0.675365
O17   O     O_3   0.281300 0.427390 0.758870 -0.366390
O18   O     O_3   0.718700 0.572610 0.241130 -0.364149
O19   O     O_3   0.218700 0.927390 0.741130 -0.366616
O20   O     O_3   0.781300 0.072610 0.258870 -0.364027
V1    V     V_3+5 0.244190 0.152150 0.748350 1.461802
V2    V     V_3+5 0.755810 0.847850 0.251650 1.463090
V3    V     V_3+5 0.255810 0.652150 0.751650 1.463561
V4    V     V_3+5 0.744190 0.347850 0.248350 1.464087
C9    C     C_R   0.653914 0.049739 0.095463 -0.071311
C10   C     C_R   0.343778 0.951797 0.906565 -0.076329
C11   C     C_R   0.845905 0.547581 0.404674 -0.072527
C12   C     C_R   0.156274 0.453008 0.593438 -0.077729
C13   C     C_R   0.638702 0.933774 0.993289 -0.108258
C14   C     C_R   0.355922 0.093131 0.005467 -0.124484
C15   C     C_R   0.861566 0.416490 0.505005 -0.109386
C16   C     C_R   0.144112 0.594821 0.494436 -0.126048
C17   C     C_R   0.671599 0.991723 0.044612 -0.165279
C18   C     C_R   0.324767 0.038062 0.952593 -0.189934
C19   C     C_R   0.828460 0.477842 0.454310 -0.162432
C20   C     C_R   0.175275 0.539395 0.547369 -0.190023
C21   C     C_R   0.602317 0.057411 0.093452 -0.153829
C22   C     C_R   0.395297 0.918408 0.914877 -0.160916
C23   C     C_R   0.897459 0.563088 0.407355 -0.159482
C24   C     C_R   0.104762 0.420383 0.585157 -0.164025
C25   C     C_R   0.566962 0.004245 0.040636 0.068701
C26   C     C_R   0.428473 0.966630 0.970196 0.049639
C27   C     C_R   0.933088 0.502819 0.459189 0.069954
C28   C     C_R   0.071658 0.468008 0.529685 0.049338
C29   C     C_R   0.586994 0.932664 0.991388 -0.028876
C30   C     C_R   0.407539 0.064502 0.013950 -0.026845
C31   C     C_R   0.913303 0.421725 0.507330 -0.028867
C32   C     C_R   0.092515 0.566025 0.485888 -0.031264
C33   C     C_R   0.513206 0.016552 0.034281 -0.155118
C34   C     C_R   0.481758 0.938832 0.980991 -0.182228
C35   C     C_R   0.986851 0.516998 0.465614 -0.156457
C36   C     C_R   0.018508 0.437806 0.518611 -0.180405
C37   C     C_R   0.504977 0.834553 0.940463 0.330168
C38   C     C_R   0.489322 0.107760 0.077418 0.334700
C39   C     C_R   0.995781 0.327584 0.558264 0.333785
C40   C     C_R   0.010662 0.608992 0.422493 0.334504
C41   C     C_R   0.555884 0.850832 0.941752 0.310524
C42   C     C_R   0.438090 0.143130 0.064459 0.281598
C43   C     C_R   0.944712 0.337227 0.556330 0.313850
C44   C     C_R   0.061892 0.643829 0.435178 0.285371
H1    H     H_    0.408229 0.872776 0.875179 0.166549
H2    H     H_    0.592521 0.092514 0.135692 0.158127
H3    H     H_    0.091647 0.375954 0.624915 0.165944
H4    H     H_    0.906926 0.611660 0.366244 0.162922
H5    H     H_    0.285826 0.073682 0.946068 0.115575
H6    H     H_    0.711244 0.981838 0.045777 0.111949
H7    H     H_    0.214206 0.574800 0.553899 0.115994
H8    H     H_    0.788880 0.461987 0.452593 0.111724
H9    H     H_    0.654301 0.882681 0.955677 0.156424
H10   H     H_    0.339344 0.165145 0.038952 0.157441
H11   H     H_    0.846125 0.357393 0.541662 0.156172
H12   H     H_    0.160669 0.666912 0.460923 0.157500
C45   C     C_R   0.618522 0.883359 0.352888 0.439272
C46   C     C_R   0.363144 0.111703 0.619512 0.437173
C47   C     C_R   0.881569 0.382970 0.147303 0.439206
C48   C     C_R   0.136950 0.611458 0.880609 0.437287
C49   C     C_R   0.584843 0.870280 0.392968 -0.253228
C50   C     C_R   0.401824 0.121900 0.586665 -0.216819
C51   C     C_R   0.915294 0.369914 0.107270 -0.253536
C52   C     C_R   0.098316 0.621639 0.913530 -0.216512
H13   H     H_    0.567200 0.737810 0.397977 0.140041
H14   H     H_    0.407784 0.252085 0.564861 0.151745
H15   H     H_    0.932941 0.237348 0.102270 0.139801
H16   H     H_    0.092373 0.751671 0.935357 0.151716
C53   C     C_R   0.573504 0.025642 0.425610 -0.025867
C54   C     C_R   0.431184 0.966352 0.579929 -0.041959
C55   C     C_R   0.926655 0.525413 0.074623 -0.025425
C56   C     C_R   0.068972 0.466251 0.920296 -0.041964
C57   C     C_R   0.596775 0.196072 0.417846 -0.142542
C58   C     C_R   0.422343 0.799539 0.608900 -0.141565
C59   C     C_R   0.903361 0.695963 0.082322 -0.142341
C60   C     C_R   0.077787 0.299632 0.891292 -0.141437
H17   H     H_    0.588669 0.319197 0.441961 0.154131
H18   H     H_    0.444367 0.676606 0.604762 0.153858
H19   H     H_    0.911479 0.819182 0.058198 0.154063
H20   H     H_    0.055776 0.176827 0.895454 0.153991
C61   C     C_R   0.631940 0.209075 0.380246 -0.243210
C62   C     C_R   0.385324 0.789941 0.644261 -0.226105
C63   C     C_R   0.868147 0.708988 0.119850 -0.243546
C64   C     C_R   0.114757 0.290083 0.855860 -0.226287
H21   H     H_    0.650139 0.341492 0.377009 0.174201
H22   H     H_    0.380276 0.659812 0.666681 0.181290
H23   H     H_    0.849926 0.841516 0.123025 0.174166
H24   H     H_    0.119784 0.160116 0.833416 0.181413
C65   C     C_R   0.644281 0.052941 0.348346 -0.130090
C66   C     C_R   0.355075 0.945219 0.650311 -0.154467
C67   C     C_R   0.855784 0.552759 0.151756 -0.130056
C68   C     C_R   0.144983 0.445196 0.849768 -0.154632
N1    N     N_R   0.517970 0.163967 0.488657 -0.283513
N2    N     N_R   0.489478 0.825420 0.520536 -0.281578
N3    N     N_R   0.982214 0.663784 0.011611 -0.283479
N4    N     N_R   0.010711 0.325275 0.979734 -0.281567
N5    N     N_R   0.484873 0.149573 0.524802 -0.287960
N6    N     N_R   0.522424 0.839836 0.484078 -0.286170
N7    N     N_R   0.015309 0.649426 0.975464 -0.287813
N8    N     N_R   0.977766 0.339651 0.016194 -0.286136
C69   C     C_R   0.469792 0.980203 0.541538 0.532201
C70   C     C_R   0.537319 0.009447 0.467164 0.533145
C71   C     C_R   0.030391 0.480076 0.958726 0.532364
C72   C     C_R   0.962865 0.509243 0.033103 0.533140
O21   O     O_3   0.576117 0.762960 0.897353 -0.543676
C73   C     C_3   0.569850 0.880092 0.846001 0.116083
H25   H     H_    0.589289 0.015454 0.857272 0.105477
H26   H     H_    0.529737 0.906867 0.827594 0.148229
C74   C     C_3   0.592086 0.785730 0.796889 -0.681798
H27   H     H_    0.572996 0.651136 0.784174 0.229712
H28   H     H_    0.587424 0.876650 0.756239 0.178784
H29   H     H_    0.632356 0.759517 0.813440 0.218256
O22   O     O_3   0.417948 0.259339 0.102668 -0.548925
C75   C     C_3   0.422460 0.445611 0.083882 0.125316
H30   H     H_    0.398076 0.470303 0.038974 0.107368
H31   H     H_    0.461587 0.480539 0.080990 0.130984
C76   C     C_3   0.406499 0.577062 0.129513 -0.702108
H32   H     H_    0.430727 0.557272 0.174645 0.221280
H33   H     H_    0.409742 0.723583 0.114827 0.170101
H34   H     H_    0.367273 0.549270 0.132949 0.224157
O23   O     O_3   0.924813 0.241480 0.599531 -0.542916
C77   C     C_3   0.929070 0.354216 0.651628 0.117292
H35   H     H_    0.908339 0.487507 0.640900 0.104803
H36   H     H_    0.968730 0.385414 0.671093 0.148784
C78   C     C_3   0.907005 0.251383 0.699335 -0.682583
H37   H     H_    0.927356 0.118663 0.711517 0.230157
H38   H     H_    0.910101 0.338750 0.740559 0.178669
H39   H     H_    0.867155 0.220523 0.681697 0.217938
O24   O     O_3   0.081978 0.757432 0.396180 -0.547688
C79   C     C_3   0.077809 0.944745 0.413997 0.124781
H40   H     H_    0.103097 0.971217 0.458116 0.106038
H41   H     H_    0.038963 0.980723 0.418018 0.128622
C80   C     C_3   0.092587 0.073418 0.366771 -0.700083
H42   H     H_    0.067437 0.051815 0.322384 0.221044
H43   H     H_    0.089694 0.220755 0.380744 0.169272
H44   H     H_    0.131502 0.044561 0.362118 0.224370
O25   O     O_3   0.478986 0.714196 0.898135 -0.554720
C81   C     C_3   0.473686 0.541877 0.926374 0.124071
H45   H     H_    0.452737 0.558365 0.963824 0.097100
H46   H     H_    0.510708 0.478403 0.944431 0.138095
C82   C     C_3   0.444745 0.410141 0.879771 -0.701575
H47   H     H_    0.464550 0.391511 0.841505 0.225997
H48   H     H_    0.441141 0.272818 0.900850 0.180777
H49   H     H_    0.407001 0.467086 0.862315 0.221817
O26   O     O_3   0.515349 0.182775 0.130530 -0.555963
C83   C     C_3   0.508693 0.067590 0.179502 0.097088
H50   H     H_    0.527451 0.931022 0.177069 0.099871
H51   H     H_    0.468733 0.041891 0.180217 0.159948
C84   C     C_3   0.531375 0.162515 0.238665 -0.715531
H52   H     H_    0.513628 0.300535 0.241315 0.228966
H53   H     H_    0.525090 0.076936 0.277570 0.181214
H54   H     H_    0.571958 0.180982 0.241492 0.205391
O27   O     O_3   0.022420 0.208060 0.600599 -0.553361
C85   C     C_3   0.032990 0.043193 0.571432 0.116584
H55   H     H_    0.052787 0.073023 0.533670 0.097407
H56   H     H_    0.998117 0.965431 0.553569 0.138577
C86   C     C_3   0.066592 0.921048 0.617166 -0.696791
H57   H     H_    0.047100 0.879998 0.654104 0.223149
H58   H     H_    0.076819 0.794202 0.594562 0.183970
H59   H     H_    0.101158 0.997468 0.636737 0.223124
O28   O     O_3   0.984731 0.682460 0.369029 -0.557133
C87   C     C_3   0.990548 0.563383 0.320765 0.097288
H60   H     H_    0.970511 0.430001 0.323771 0.102211
H61   H     H_    0.030314 0.531770 0.320450 0.157304
C88   C     C_3   0.968924 0.658197 0.261089 -0.713553
H62   H     H_    0.987390 0.794621 0.258275 0.229953
H63   H     H_    0.975208 0.570830 0.222640 0.180777
H64   H     H_    0.928379 0.680061 0.257599 0.204585
O29   O     O_3   0.628365 0.728666 0.320105 -0.545456
C89   C     C_3   0.584194 0.657265 0.284296 0.041478
H65   H     H_    0.553382 0.760905 0.274593 0.101355
H66   H     H_    0.571231 0.536272 0.307875 0.138807
C90   C     C_3   0.595051 0.592958 0.223744 -0.651989
H67   H     H_    0.560197 0.545722 0.193950 0.186152
H68   H     H_    0.610801 0.709797 0.201073 0.212193
H69   H     H_    0.621951 0.475662 0.230673 0.233655
O30   O     O_3   0.333837 0.267430 0.622004 -0.548781
C91   C     C_3   0.301866 0.296220 0.565312 0.090137
H70   H     H_    0.262921 0.287506 0.572237 0.131845
H71   H     H_    0.305495 0.191535 0.529678 0.099416
C92   C     C_3   0.310674 0.489407 0.541488 -0.736693
H72   H     H_    0.349501 0.502261 0.534403 0.227608
H73   H     H_    0.285002 0.513718 0.497638 0.180460
H74   H     H_    0.303795 0.596955 0.574280 0.222694
O31   O     O_3   0.871641 0.228102 0.180057 -0.545335
C93   C     C_3   0.915780 0.154891 0.215603 0.042277
H75   H     H_    0.946666 0.257803 0.225524 0.101405
H76   H     H_    0.928618 0.034414 0.191708 0.138647
C94   C     C_3   0.904952 0.088868 0.276030 -0.653958
H77   H     H_    0.939794 0.040081 0.305617 0.187362
H78   H     H_    0.889361 0.205245 0.299053 0.213205
H79   H     H_    0.877926 0.972277 0.268857 0.233219
O32   O     O_3   0.166241 0.766992 0.878080 -0.548760
C95   C     C_3   0.198263 0.795065 0.934738 0.090155
H80   H     H_    0.237192 0.786316 0.927740 0.131855
H81   H     H_    0.194711 0.689993 0.970363 0.099358
C96   C     C_3   0.189432 0.988025 0.958628 -0.736716
H82   H     H_    0.150622 0.000952 0.965788 0.227590
H83   H     H_    0.215145 0.011765 0.002449 0.180423
H84   H     H_    0.196241 0.095904 0.925839 0.222751

loop_
_geom_bond_atom_site_label_1
_geom_bond_atom_site_label_2
_ccdc_geom_bond_type
O17   V3    S    
C89   H66   S    
C52   C56   A    
O1    C5    A    
C80   H42   S    
C51   H15   S    
O19   V1    S    
C9    C21   A    
O26   C83   S    
O12   C8    A    
O3    C7    A    
C48   O32   S    
C10   C18   A    
C60   H20   S    
C85   C86   S    
C11   C23   A    
C85   H55   S    
C33   C34   A    
N4    C71   A    
C25   C33   A    
C33   C38   A    
C5    C12   S    
C84   H52   S    
O7    C3    A    
C6    C11   S    
C94   H79   S    
C35   C40   A    
C82   H47   S    
C91   H71   S    
C62   C66   A    
C36   C39   A    
C37   O25   S    
C40   C44   A    
C61   C65   A    
C14   C18   A    
C96   H84   S    
C76   H33   S    
O23   C77   S    
O4    C8    A    
C55   C59   A    
C92   H74   S    
C89   C90   S    
C83   H50   S    
C54   C58   A    
C77   C78   S    
C86   H57   S    
O1    V3    S    
O13   V1    S    
C31   C43   A    
O2    V4    S    
O30   C91   S    
O3    V1    S    
C3    C66   S    
N1    N5    A    
C53   C70   S    
C22   H1    S    
C50   C54   A    
C62   H22   S    
C17   H6    S    
C49   C53   A    
C55   C72   S    
C1    O15   A    
C15   C31   A    
C52   H16   S    
C20   H7    S    
C2    O16   A    
C16   C32   A    
C91   C92   S    
C51   C55   A    
O2    C6    A    
C74   H29   S    
C16   H12   S    
C10   C22   A    
N2    C69   A    
C11   C19   A    
N1    C70   A    
C16   C20   A    
C79   H41   S    
C40   O28   S    
C45   C49   A    
N8    C72   A    
C13   C29   A    
N3    C72   A    
C34   C37   A    
O11   C7    A    
C89   H65   S    
O15   V3    S    
C35   C36   A    
C80   H43   S    
C78   H38   S    
C82   H48   S    
O10   V2    S    
C4    C65   S    
O25   C81   S    
C77   H36   S    
C92   H73   S    
C15   C19   A    
C39   C43   A    
C60   C64   A    
O7    V3    S    
C91   H70   S    
C38   C42   A    
C88   H64   S    
C26   C34   A    
C94   H77   S    
C47   C67   A    
C46   C66   A    
C79   C80   S    
C44   O24   S    
C50   H14   S    
C86   H58   S    
C49   H13   S    
O18   V4    S    
C23   C27   A    
C14   H10   S    
C27   C31   A    
O32   C95   S    
C32   C44   A    
C13   H9    S    
C43   O23   S    
C64   H24   S    
C56   C71   S    
N4    N8    A    
O8    V4    S    
N6    C70   A    
C90   H69   S    
C73   H26   S    
O5    C1    A    
C96   H82   S    
C81   C82   S    
C41   O21   S    
C90   H67   S    
C14   C30   A    
C21   C25   A    
O8    C4    A    
C7    C10   S    
C95   H80   S    
C4    O14   A    
O31   C93   S    
O9    C5    A    
C26   C30   A    
C63   C67   A    
C79   H40   S    
C47   O31   S    
C84   H53   S    
C75   H31   S    
O27   C85   S    
O14   V2    S    
C78   H39   S    
C92   H72   S    
O6    V2    S    
N5    C69   A    
C93   H75   S    
C82   H49   S    
C93   H76   S    
C74   H27   S    
C48   C68   A    
C76   H34   S    
C73   C74   S    
C27   C35   A    
C24   H3    S    
C87   H61   S    
O5    V1    S    
C53   C57   A    
N7    C71   A    
C29   C41   A    
C95   C96   S    
C81   H45   S    
O16   V4    S    
C86   H59   S    
O9    V1    S    
C19   H8    S    
C38   O26   S    
C61   H21   S    
C3    O13   A    
C18   H5    S    
C21   H2    S    
C1    C68   S    
C63   H23   S    
C59   H19   S    
C48   C52   A    
C75   C76   S    
C58   C62   A    
C47   C51   A    
O6    C2    A    
C46   O30   S    
C85   H56   S    
O11   V3    S    
C30   C42   A    
N3    N7    A    
C80   H44   S    
O12   V4    S    
C93   C94   S    
C59   C63   A    
O22   C75   S    
C22   C26   A    
C8    C9    S    
C39   O27   S    
C95   H81   S    
C9    C17   A    
O10   C6    A    
C87   C88   S    
C90   H68   S    
C73   H25   S    
O21   C73   S    
C94   H78   S    
C57   C61   A    
C96   H83   S    
C81   H46   S    
C58   H18   S    
C78   H37   S    
C46   C50   A    
C64   C68   A    
O28   C87   S    
C42   O22   S    
C83   H51   S    
N2    N6    A    
C56   C60   A    
O20   V2    S    
C84   H54   S    
C12   C24   A    
C77   H35   S    
C13   C17   A    
C88   H62   S    
O4    V2    S    
C23   H4    S    
C25   C29   A    
C12   C20   A    
C75   H30   S    
C45   O29   S    
C37   C41   A    
C24   C28   A    
C28   C36   A    
O29   C89   S    
C45   C65   A    
C74   H28   S    
C88   H63   S    
C87   H60   S    
C76   H32   S    
C57   H17   S    
C2    C67   S    
C28   C32   A    
C15   H11   S    
C54   C69   S    
O24   C79   S    
C83   C84   S    
