data_mof_unit_16903.cif
_audit_creation_date              2013-03-05T16:03:40-0500
_audit_creation_method            fapswitch 2.2
_symmetry_space_group_name_H-M    P1
_symmetry_Int_Tables_number       1
_space_group_crystal_system       triclinic
_cell_length_a                    25.795025
_cell_length_b                    7.328426
_cell_length_c                    23.233832
_cell_angle_alpha                 89.999656
_cell_angle_beta                  104.286823
_cell_angle_gamma                 90.000371
_cell_volume                      4256.21716776

loop_
_atom_site_label
_atom_site_type_symbol
_atom_site_description
_atom_site_fract_x
_atom_site_fract_y
_atom_site_fract_z
_atom_type_partial_charge
O1    O     O_R   0.438720 0.630760 0.439780 -0.579590
O2    O     O_R   0.061280 0.869240 0.060220 -0.586163
O3    O     O_R   0.561280 0.130760 0.560220 -0.579584
O4    O     O_R   0.938720 0.369240 0.939780 -0.586163
O5    O     O_R   0.546410 0.956760 0.446260 -0.545261
O6    O     O_R   0.953590 0.543240 0.053740 -0.541311
O7    O     O_R   0.453590 0.456760 0.553740 -0.545247
O8    O     O_R   0.046410 0.043240 0.946260 -0.541314
C1    C     C_R   0.563099 0.792975 0.434749 0.944130
C2    C     C_R   0.936917 0.707027 0.065271 0.943904
C3    C     C_R   0.436901 0.292973 0.565250 0.944115
C4    C     C_R   0.063083 0.207027 0.934729 0.943889
O9    O     O_R   0.438220 0.960230 0.432810 -0.591726
O10   O     O_R   0.061780 0.539770 0.067190 -0.603394
O11   O     O_R   0.561780 0.460230 0.567190 -0.591700
O12   O     O_R   0.938220 0.039770 0.932810 -0.603396
O13   O     O_R   0.452310 0.134250 0.546660 -0.583494
O14   O     O_R   0.047690 0.365750 0.953340 -0.583198
O15   O     O_R   0.547690 0.634250 0.453340 -0.583499
O16   O     O_R   0.952310 0.865750 0.046660 -0.583195
C5    C     C_R   0.419169 0.791855 0.417065 0.960563
C6    C     C_R   0.081170 0.708339 0.083224 0.971060
C7    C     C_R   0.580832 0.291855 0.582935 0.960585
C8    C     C_R   0.918828 0.208338 0.916777 0.971016
O17   O     O_3   0.504750 0.798450 0.537370 -0.268791
O18   O     O_3   0.995250 0.701550 0.962630 -0.270580
O19   O     O_3   0.495250 0.298450 0.462630 -0.268816
O20   O     O_3   0.004750 0.201550 0.037370 -0.270568
V1    V     V_3+5 0.499120 0.071860 0.493070 1.251583
V2    V     V_3+5 0.000880 0.428140 0.006930 1.238949
V3    V     V_3+5 0.500880 0.571860 0.506930 1.251593
V4    V     V_3+5 0.999120 0.928140 0.993070 1.238941
C9    C     C_R   0.721458 0.171742 0.669816 0.619466
C10   C     C_R   0.795334 0.403397 0.807568 0.641428
C11   C     C_R   0.278553 0.671613 0.330179 0.619590
C12   C     C_R   0.204652 0.903401 0.192452 0.641554
C13   C     C_R   0.674014 0.179936 0.624363 -0.285819
C14   C     C_R   0.843366 0.389270 0.852372 -0.302524
C15   C     C_R   0.326004 0.679814 0.375627 -0.286330
C16   C     C_R   0.156621 0.889276 0.147646 -0.302494
H1    H     H_    0.672178 0.110518 0.582717 0.169130
H2    H     H_    0.860802 0.512117 0.874871 0.159764
H3    H     H_    0.327860 0.610280 0.417258 0.168993
H4    H     H_    0.139182 0.012127 0.125154 0.159770
C17   C     C_R   0.629985 0.281604 0.631592 -0.166901
C18   C     C_R   0.868968 0.220108 0.867764 -0.174381
C19   C     C_R   0.370015 0.781598 0.368409 -0.166650
C20   C     C_R   0.131026 0.720109 0.132242 -0.174401
C21   C     C_R   0.633033 0.370159 0.685731 -0.173750
C22   C     C_R   0.846158 0.064357 0.836238 -0.174716
C23   C     C_R   0.366950 0.870246 0.314283 -0.173723
C24   C     C_R   0.153840 0.564350 0.163758 -0.174717
H5    H     H_    0.599171 0.447105 0.692509 0.138978
H6    H     H_    0.864609 0.931736 0.846547 0.158381
H7    H     H_    0.400801 0.947273 0.307513 0.138982
H8    H     H_    0.135396 0.431723 0.153439 0.158388
C25   C     C_R   0.679050 0.354669 0.732357 -0.120548
C26   C     C_R   0.799399 0.077657 0.790458 -0.148561
C27   C     C_R   0.320934 0.854737 0.267659 -0.120748
C28   C     C_R   0.200598 0.577645 0.209539 -0.148369
H9    H     H_    0.679020 0.417674 0.774419 0.150061
H10   H     H_    0.783059 0.954722 0.767124 0.208608
H11   H     H_    0.320958 0.917809 0.225606 0.150099
H12   H     H_    0.216944 0.454695 0.232858 0.208644
C29   C     C_R   0.724134 0.257176 0.725158 -0.022958
C30   C     C_R   0.773637 0.246416 0.775035 -0.049032
C31   C     C_R   0.275863 0.757148 0.274850 -0.022780
C32   C     C_R   0.226353 0.746407 0.224979 -0.048655
C33   C     C_R   0.123960 0.379156 0.884505 -0.112665
C34   C     C_R   0.376014 0.120824 0.615460 -0.109955
C35   C     C_R   0.876039 0.879154 0.115494 -0.112656
C36   C     C_R   0.623991 0.620830 0.384547 -0.109886
H13   H     H_    0.113470 0.501148 0.904321 0.238027
H14   H     H_    0.386615 0.998754 0.595774 0.238112
H15   H     H_    0.886531 0.001147 0.095679 0.238026
H16   H     H_    0.613395 0.498763 0.404241 0.238095
C37   C     C_R   0.159726 0.390729 0.848020 -0.101592
C38   C     C_R   0.340171 0.109314 0.651856 -0.102765
C39   C     C_R   0.840272 0.890726 0.151978 -0.101587
C40   C     C_R   0.659832 0.609317 0.348149 -0.102690
H17   H     H_    0.175338 0.523294 0.840389 0.145632
H18   H     H_    0.324620 0.976718 0.659563 0.145544
H19   H     H_    0.824661 0.023292 0.159609 0.145632
H20   H     H_    0.675388 0.476724 0.340449 0.145563
C41   C     C_R   0.175294 0.233203 0.822204 0.049612
C42   C     C_R   0.324467 0.266932 0.677507 0.050295
C43   C     C_R   0.824704 0.733200 0.177793 0.049616
C44   C     C_R   0.675530 0.766930 0.322489 0.050239
C45   C     C_R   0.154370 0.064791 0.834158 -0.255968
C46   C     C_R   0.345315 0.435376 0.665458 -0.256671
C47   C     C_R   0.845627 0.564788 0.165840 -0.255958
C48   C     C_R   0.654676 0.935372 0.334529 -0.256586
H21   H     H_    0.166373 0.940242 0.815887 0.151620
H22   H     H_    0.333214 0.559988 0.683602 0.151218
H23   H     H_    0.833623 0.440239 0.184110 0.151620
H24   H     H_    0.666773 0.059980 0.316380 0.151239
C49   C     C_R   0.119169 0.052506 0.871351 0.412932
C50   C     C_R   0.380595 0.447576 0.628356 0.411756
C51   C     C_R   0.880829 0.552504 0.128647 0.412935
C52   C     C_R   0.619398 0.947576 0.371634 0.411772
C53   C     C_R   0.102376 0.211891 0.896449 -0.339111
C54   C     C_R   0.397539 0.288120 0.603445 -0.338290
C55   C     C_R   0.897623 0.711888 0.103550 -0.339102
C56   C     C_R   0.602459 0.788123 0.396554 -0.338314
N1    N     N_R   0.229460 0.088459 0.760294 -0.073420
N2    N     N_R   0.270264 0.411705 0.739373 -0.073623
N3    N     N_R   0.770540 0.588458 0.239707 -0.073412
N4    N     N_R   0.729730 0.911700 0.260619 -0.073616
N5    N     N_R   0.264446 0.095843 0.726631 -0.077483
N6    N     N_R   0.235279 0.404320 0.773037 -0.077555
N7    N     N_R   0.735553 0.595842 0.273369 -0.077471
N8    N     N_R   0.764716 0.904315 0.226956 -0.077550
C57   C     C_R   0.285674 0.257714 0.715429 0.142116
C58   C     C_R   0.214053 0.242448 0.784242 0.142265
C59   C     C_R   0.714323 0.757711 0.284568 0.142145
C60   C     C_R   0.785944 0.742444 0.215755 0.142275
O21   O     O_3   0.764594 0.075464 0.660213 -0.627181
C61   C     C_3   0.794655 0.193101 0.632988 -0.194453
H25   H     H_    0.809720 0.313172 0.661631 0.143637
H26   H     H_    0.770987 0.238566 0.588533 0.140631
H27   H     H_    0.829961 0.117370 0.626357 0.178715
O22   O     O_3   0.771930 0.572244 0.791483 -0.622585
C62   C     C_3   0.758039 0.654381 0.840660 -0.315896
H28   H     H_    0.793353 0.720421 0.870446 0.155195
H29   H     H_    0.739387 0.555978 0.866151 0.138034
H30   H     H_    0.728101 0.762844 0.824000 0.183885
O23   O     O_3   0.235427 0.575179 0.339739 -0.627171
C63   C     C_3   0.205622 0.692121 0.367513 -0.194746
H31   H     H_    0.190689 0.813311 0.339359 0.143588
H32   H     H_    0.229438 0.735800 0.412105 0.140745
H33   H     H_    0.170235 0.616458 0.373949 0.178771
O24   O     O_3   0.228055 0.072248 0.208537 -0.622518
C64   C     C_3   0.241951 0.154373 0.159360 -0.316097
H34   H     H_    0.206639 0.220414 0.129571 0.155215
H35   H     H_    0.260602 0.055961 0.133871 0.138033
H36   H     H_    0.271891 0.262830 0.176020 0.183888
N9    N     N_R   0.103236 0.875283 0.885305 0.225298
O25   O     O_R   0.122728 0.808849 0.938169 -0.449416
O26   O     O_R   0.074831 0.772783 0.843540 -0.432905
N10   N     N_R   0.396504 0.624760 0.614347 0.225034
O27   O     O_R   0.376974 0.691205 0.561489 -0.453143
O28   O     O_R   0.425304 0.726763 0.655980 -0.438505
N11   N     N_R   0.896762 0.375281 0.114694 0.225297
O29   O     O_R   0.877269 0.308848 0.061829 -0.449420
O30   O     O_R   0.925168 0.272786 0.156458 -0.432868
N12   N     N_R   0.603491 0.124761 0.385642 0.225040
O31   O     O_R   0.623016 0.191200 0.438500 -0.453041
O32   O     O_R   0.574715 0.226798 0.343998 -0.438537

loop_
_geom_bond_atom_site_label_1
_geom_bond_atom_site_label_2
_geom_bond_distance
_ccdc_geom_bond_type
C26   H10   1.081871 S    
C6    C20   1.495160 S    
O1    C5    1.339874 A    
C7    C17   1.477769 S    
C43   C47   1.402011 A    
C34   C38   1.401038 A    
O13   V1    1.989808 S    
C33   C37   1.401029 A    
O1    V3    1.989142 S    
C36   H16   1.070521 S    
O4    V2    1.989141 S    
O15   V3    1.989797 S    
C63   H31   1.113859 S    
C10   C30   1.413938 A    
C39   C43   1.404486 A    
C34   H14   1.070502 S    
C9    C29   1.416438 A    
C62   H28   1.109872 S    
C9    O21   1.381384 S    
N9    O26   1.300687 A    
C22   H6    1.082685 S    
C42   C57   1.489061 S    
N4    C59   1.360212 A    
C51   N11   1.423571 S    
C2    C55   1.504825 S    
N10   O28   1.300656 A    
C14   H2    1.081662 S    
C12   O24   1.387032 S    
O16   V4    1.989799 S    
C11   C15   1.406742 A    
O4    C8    1.343117 A    
C62   H29   1.114865 S    
O19   V1    1.797974 S    
N11   O29   1.301407 A    
C48   H24   1.083521 S    
C21   C25   1.400277 A    
O2    V4    1.989142 S    
O3    V1    1.989140 S    
C16   C20   1.408644 A    
C61   H25   1.113795 S    
N1    N5    1.333216 A    
C24   C28   1.400865 A    
C27   C31   1.409572 A    
C10   O22   1.387037 S    
O3    C7    1.339878 A    
C1    O15   1.335035 A    
C52   C56   1.420015 A    
C44   C48   1.402035 A    
C2    O16   1.335062 A    
O24   C64   1.413593 S    
C39   H19   1.082893 S    
O2    C6    1.343112 A    
C64   H36   1.109268 S    
C33   H13   1.070489 S    
O14   V2    1.989806 S    
C11   C31   1.416414 A    
N6    C58   1.358357 A    
C16   H4    1.081659 S    
N12   O32   1.300695 A    
C40   H20   1.082894 S    
C38   C42   1.404523 A    
O11   C7    1.345055 A    
C37   C41   1.404500 A    
O12   C8    1.350210 A    
C45   H21   1.083529 S    
O10   V2    2.002925 S    
C49   N9    1.423569 S    
C26   C30   1.407830 A    
C46   H22   1.083533 S    
O5    V1    2.009263 S    
O7    V3    2.009254 S    
N2    C57   1.360207 A    
C31   C32   1.499805 S    
O8    V4    2.009254 S    
N1    C58   1.360212 A    
C12   C16   1.411700 A    
N10   O27   1.301441 A    
C51   C55   1.420089 A    
C42   C46   1.402032 A    
C52   N12   1.423479 S    
C41   C45   1.402017 A    
O18   V4    1.797981 S    
C62   H30   1.109267 S    
C19   C23   1.400237 A    
C36   C56   1.402089 A    
C50   C54   1.420011 A    
O11   V3    2.002925 S    
C9    C13   1.406666 A    
C35   C39   1.401043 A    
N4    N8    1.333219 A    
C45   C49   1.402368 A    
C61   H27   1.109253 S    
C22   C26   1.400881 A    
O7    C3    1.324527 A    
O5    C1    1.324528 A    
C38   H18   1.082894 S    
C37   H17   1.082892 S    
O8    C4    1.324514 A    
C12   C32   1.413979 A    
C17   C21   1.400249 A    
O9    C5    1.345053 A    
C11   O23   1.381402 S    
C43   C60   1.489085 S    
O6    V2    2.009266 S    
C33   C53   1.402070 A    
C64   H34   1.109868 S    
C23   C27   1.400259 A    
C13   C17   1.402632 A    
O23   C63   1.409541 S    
C63   H33   1.109230 S    
N8    C60   1.358354 A    
C48   C52   1.402306 A    
C15   C19   1.402599 A    
N12   O31   1.301415 A    
N2    N6    1.333225 A    
O9    V1    2.002925 S    
N11   O30   1.300675 A    
C35   C55   1.402074 A    
C3    O13   1.335034 A    
C10   C14   1.411707 A    
N3    N7    1.333216 A    
O17   V3    1.797981 S    
C25   C29   1.409580 A    
C63   H32   1.113164 S    
O6    C2    1.324518 A    
C15   H3    1.083809 S    
C34   C54   1.402081 A    
C25   H9    1.081007 S    
N5    C57   1.358346 A    
O12   V4    2.002926 S    
N9    O25   1.301399 A    
C18   C22   1.404565 A    
C27   H11   1.081004 S    
C28   H12   1.081861 S    
C8    C18   1.495183 S    
O10   C6    1.350205 A    
C44   C59   1.489039 S    
O20   V2    1.797975 S    
C4    C53   1.504826 S    
C40   C44   1.404530 A    
O21   C61   1.409494 S    
C35   H15   1.070483 S    
C1    C56   1.504773 S    
C21   H5    1.083345 S    
C3    C54   1.504768 S    
C23   H7    1.083349 S    
C13   H1    1.083817 S    
C61   H26   1.113236 S    
N3    C60   1.360195 A    
C14   C18   1.408644 A    
C41   C58   1.489062 S    
C47   H23   1.083524 S    
C20   C24   1.404554 A    
C28   C32   1.407831 A    
C36   C40   1.401015 A    
C29   C30   1.499780 S    
C4    O14   1.335064 A    
C64   H35   1.114871 S    
C50   N10   1.423478 S    
N7    C59   1.358358 A    
C47   C51   1.402369 A    
O22   C62   1.413595 S    
C46   C50   1.402303 A    
C49   C53   1.420094 A    
C24   H8    1.082688 S    
C5    C19   1.477750 S    
