data_mof_unit_14714.cif
_audit_creation_date              2012-12-10T18:57:09-0500
_audit_creation_method            fapswitch 2.2
_symmetry_space_group_name_H-M    P1
_symmetry_Int_Tables_number       1
_space_group_crystal_system       triclinic
_cell_length_a                    10.645479
_cell_length_b                    9.944083
_cell_length_c                    10.689959
_cell_angle_alpha                 89.613015
_cell_angle_beta                  91.440419
_cell_angle_gamma                 90.239776
_cell_volume                      1131.24148237

loop_
_atom_site_label
_atom_site_type_symbol
_atom_type_description
_atom_site_fract_x
_atom_site_fract_y
_atom_site_fract_z
_atom_type_partial_charge
C1    C     C_R   0.260479 0.499591 0.499178 0.891652
C2    C     C_R   0.739740 0.499921 0.499989 0.850000
C3    C     C_R   0.600573 0.073139 0.545826 -0.092757
C4    C     C_R   0.398480 0.073251 0.456635 -0.074015
C5    C     C_R   0.600281 0.930405 0.548921 0.042107
C6    C     C_R   0.397155 0.930752 0.456862 0.021498
C7    C     C_R   0.499808 0.500309 0.260174 0.924696
C8    C     C_R   0.504245 0.499828 0.739371 0.878722
C9    C     C_R   0.462866 0.611787 0.060126 0.024213
C10   C     C_R   0.469863 0.613535 0.932691 0.108120
C11   C     C_R   0.508217 0.501465 0.127977 -0.058480
C12   C     C_R   0.515849 0.502327 0.871178 -0.103298
C13   C     C_R   0.570032 0.396839 0.067487 -0.185902
C14   C     C_R   0.573061 0.396733 0.937961 -0.172656
C15   C     C_3   0.344993 0.678601 0.913307 0.031546
C16   C     C_3   0.333823 0.672643 0.054183 0.044050
C17   C     C_R   0.062532 0.402313 0.429072 -0.113764
C18   C     C_R   0.933427 0.402755 0.428964 -0.155703
C19   C     C_R   0.872479 0.499029 0.499670 -0.038086
C20   C     C_R   0.128177 0.498698 0.499261 -0.043283
C21   C     C_R   0.938682 0.592743 0.571899 -0.120133
C22   C     C_R   0.067320 0.593625 0.570947 -0.134873
H1    H     H_    0.611684 0.313775 0.119633 0.172285
H2    H     H_    0.615285 0.312984 0.890438 0.176834
H3    H     H_    0.276428 0.614834 0.860159 0.153925
H4    H     H_    0.331125 0.773662 0.097129 0.218981
H5    H     H_    0.110949 0.328924 0.373535 0.169692
H6    H     H_    0.881347 0.329699 0.373311 0.161142
H7    H     H_    0.891380 0.662336 0.630965 0.178821
H8    H     H_    0.119209 0.665957 0.627659 0.189119
H9    H     H_    0.679798 0.128657 0.584978 0.159512
H10   H     H_    0.317256 0.128687 0.422100 0.151789
N1    N     N_R   0.500000 0.857200 0.500000 -0.147141
N2    N     N_R   0.500000 0.142810 0.500000 -0.099072
O1    O     O_R   0.316770 0.614620 0.499990 -0.600304
O2    O     O_R   0.683230 0.614620 0.500010 -0.616770
O3    O     O_R   0.316800 0.385290 0.500000 -0.622216
O4    O     O_R   0.683200 0.385290 0.500000 -0.634170
O5    O     O_R   0.500000 0.614690 0.316780 -0.585099
O6    O     O_R   0.500000 0.614690 0.683220 -0.552412
O7    O     O_R   0.500020 0.385360 0.316780 -0.623436
O8    O     O_R   0.499980 0.385360 0.683220 -0.614324
Zn1   Zn    Zn3+2 0.500000 0.653120 0.500000 1.035333
Zn2   Zn    Zn3+2 0.500000 0.346880 0.500000 0.979088
Br1   Br    Br    0.361824 0.860327 0.847674 -0.440722
Br2   Br    Br    0.202239 0.547616 0.104299 -0.531709
C23   C     C_2   0.705318 0.866969 0.617909 0.934829
O9    O     O_2   0.813172 0.895122 0.590561 -0.631891
O10   O     O_R   0.681936 0.787809 0.723132 -0.755030
H11   H     H_    0.761265 0.761046 0.771188 0.326183
C24   C     C_2   0.278131 0.867809 0.417108 0.946874
O11   O     O_2   0.181607 0.896600 0.470412 -0.603430
O12   O     O_R   0.273467 0.781879 0.315089 -0.787142
H12   H     H_    0.184858 0.748806 0.296227 0.366806

loop_
_geom_bond_atom_site_label_1
_geom_bond_atom_site_label_2
_ccdc_geom_bond_type
C7    C11   S    
O4    Zn2   S    
C6    C24   S    
O1    Zn1   S    
C9    C10   A    
C2    O4    A    
C17   H5    S    
C23   O9    D    
C6    N1    A    
C1    O3    A    
C8    C12   S    
O3    Zn2   S    
C17   C18   A    
C12   C14   A    
N2    Zn2   S    
C23   O10   S    
C13   C14   A    
C3    H9    S    
C11   C13   A    
C9    C11   A    
C4    H10   S    
O8    Zn2   S    
C14   H2    S    
C10   C12   A    
C21   C22   A    
C19   C21   A    
C9    C16   S    
C20   C22   A    
C18   C19   A    
C10   C15   S    
C7    O7    A    
C16   H4    S    
O7    Zn2   S    
C4    N2    A    
C15   H3    S    
C15   Br1   S    
C24   O12   S    
C16   Br2   S    
C15   C16   S    
C5    C23   S    
C17   C20   A    
C18   H6    S    
C13   H1    S    
C4    C6    A    
O10   H11   S    
C2    O2    A    
C8    O6    A    
C1    O1    A    
C7    O5    A    
C1    C20   S    
O5    Zn1   S    
C22   H8    S    
C3    N2    A    
C3    C5    A    
C2    C19   S    
O12   H12   S    
N1    Zn1   S    
C21   H7    S    
O6    Zn1   S    
C24   O11   D    
C8    O8    A    
O2    Zn1   S    
C5    N1    A    
