data_mof_unit_57646.cif
_audit_creation_date              2012-12-10T17:37:20-0500
_audit_creation_method            fapswitch 2.2
_symmetry_space_group_name_H-M    P1
_symmetry_Int_Tables_number       1
_space_group_crystal_system       triclinic
_cell_length_a                    12.438485
_cell_length_b                    13.096092
_cell_length_c                    15.820273
_cell_angle_alpha                 76.662132
_cell_angle_beta                  100.244748
_cell_angle_gamma                 116.780133
_cell_volume                      2230.46879263

loop_
_atom_site_label
_atom_site_type_symbol
_atom_type_description
_atom_site_fract_x
_atom_site_fract_y
_atom_site_fract_z
_atom_type_partial_charge
C1    C     C_R   0.854622 0.285699 0.509100 0.754008
C2    C     C_R   0.227049 0.837539 0.471571 -0.183238
C3    C     C_R   0.803834 0.078200 0.571811 -0.207454
C4    C     C_R   0.999378 0.500055 0.659575 0.790302
C5    C     C_R   0.722898 0.962030 0.586741 -0.169520
C6    C     C_R   0.603391 0.927416 0.552713 -0.116590
C7    C     C_R   0.562142 0.009189 0.502477 0.108312
C8    C     C_R   0.649740 0.123436 0.475283 0.073507
C9    C     C_R   0.437617 0.979104 0.474491 -0.001410
C10   C     C_R   0.404972 0.055808 0.406853 0.057780
C11   C     C_R   0.496368 0.161982 0.372400 -0.234155
C12   C     C_3   0.999410 0.497444 0.916902 0.120964
C13   C     C_R   0.615704 0.195439 0.406332 -0.199989
C14   C     C_R   0.344316 0.876925 0.513874 0.333813
C15   C     C_R   0.195703 0.911714 0.404413 -0.292820
C16   C     C_R   0.144573 0.713861 0.488144 0.790586
C17   C     C_R   0.769898 0.160771 0.515964 -0.110195
C18   C     C_R   0.357558 0.346632 0.652177 -0.314263
C19   C     C_R   0.774785 0.662260 0.394585 0.090585
C20   C     C_R   0.707900 0.723075 0.395323 -0.263339
C21   C     C_R   0.612179 0.673729 0.447899 -0.168748
C22   C     C_R   0.572354 0.557805 0.490976 0.001070
C23   C     C_3   0.047048 0.605497 0.015061 0.083298
C24   C     C_R   0.657254 0.510225 0.501562 0.238122
C25   C     C_R   0.461669 0.494125 0.533855 -0.070272
C26   C     C_R   0.459771 0.406099 0.605976 0.066655
C27   C     C_R   0.556182 0.371939 0.627305 0.055019
C28   C     C_R   0.000235 0.499342 0.340466 0.811406
C29   C     C_R   0.648205 0.419967 0.571051 -0.184012
C30   C     C_R   0.349984 0.506408 0.504173 0.226944
C31   C     C_R   0.249649 0.354744 0.620179 0.287017
C32   C     C_3   0.065686 0.441393 0.048386 -0.217961
C33   C     C_3   0.951897 0.388902 0.986460 0.414573
C34   C     C_3   0.998516 0.494993 0.084128 0.045517
C35   C     C_1   0.998122 0.499490 0.749148 -0.194278
C36   C     C_1   0.999764 0.496728 0.251246 -0.190552
C37   C     C_3   0.114170 0.552718 0.977841 -0.294063
C38   C     C_3   0.138543 0.247683 0.651256 -0.384185
C39   C     C_3   0.079194 0.260142 0.723518 -0.281503
C40   C     C_3   0.038884 0.151756 0.793964 -0.891473
C41   C     C_3   0.555440 0.278435 0.706639 -0.403135
C42   C     C_3   0.666573 0.251281 0.726029 -0.369400
C43   C     C_3   0.657678 0.163000 0.809603 -0.766705
C44   C     C_3   0.338151 0.572759 0.412375 -0.328748
C45   C     C_3   0.933911 0.549384 0.954434 0.381298
C46   C     C_3   0.318314 0.500667 0.342337 -0.361835
C47   C     C_3   0.321916 0.571687 0.250697 -0.850534
C48   C     C_3   0.100473 0.729299 0.033636 -0.401361
C49   C     C_3   0.145783 0.819125 0.951459 -0.320124
C50   C     C_3   0.197705 0.942554 0.970059 -0.865067
C51   C     C_3   0.238387 0.102958 0.307212 -0.391683
C52   C     C_3   0.239381 0.200836 0.345890 -0.362750
C53   C     C_3   0.149636 0.155198 0.415283 -0.785597
C54   C     C_3   0.883070 0.439121 0.023718 -0.314632
C55   C     C_1   0.998205 0.498432 0.824933 0.041307
C56   C     C_1   0.999032 0.495166 0.175845 -0.042411
C57   C     C_R   0.281785 0.023262 0.374544 0.161643
Cu1   Cu    Cu3+1 0.098270 0.475420 0.519690 0.918812
Cu2   Cu    Cu3+1 0.901730 0.524580 0.480310 0.919425
H1    H     H_    0.892099 0.102447 0.605589 0.153829
H2    H     H_    0.716201 0.389970 0.585284 0.205753
H3    H     H_    0.788817 0.392353 0.042625 0.149577
H4    H     H_    0.208041 0.599088 0.958151 0.157216
H5    H     H_    0.103764 0.881827 0.374438 0.160949
H6    H     H_    0.477375 0.221380 0.318969 0.145971
H7    H     H_    0.879133 0.224392 0.025484 0.315943
H8    H     H_    0.290032 0.771584 0.623148 0.328090
H9    H     H_    0.974545 0.074392 0.764780 0.254963
H10   H     H_    0.118333 0.137158 0.827725 0.255918
H11   H     H_    0.993135 0.163426 0.842817 0.272442
H12   H     H_    0.545929 0.835437 0.563881 0.188345
H13   H     H_    0.143130 0.335213 0.755478 0.234047
H14   H     H_    0.997271 0.273071 0.694925 0.228651
H15   H     H_    0.077074 0.217352 0.594563 0.191995
H16   H     H_    0.162537 0.173035 0.675806 0.169555
H17   H     H_    0.653672 0.197689 0.866193 0.264613
H18   H     H_    0.575813 0.080478 0.803818 0.245633
H19   H     H_    0.738625 0.144843 0.821249 0.259907
H20   H     H_    0.673598 0.214596 0.671546 0.220323
H21   H     H_    0.749722 0.331952 0.734113 0.234192
H22   H     H_    0.547351 0.307039 0.765233 0.210454
H23   H     H_    0.752174 0.898687 0.627016 0.155686
H24   H     H_    0.474620 0.196182 0.697398 0.200103
H25   H     H_    0.256103 0.609974 0.239830 0.255715
H26   H     H_    0.413912 0.642769 0.241509 0.253996
H27   H     H_    0.298904 0.514871 0.201660 0.240493
H28   H     H_    0.389772 0.469249 0.352141 0.212676
H29   H     H_    0.229600 0.424027 0.347629 0.241267
H30   H     H_    0.270427 0.605548 0.403690 0.237074
H31   H     H_    0.412671 0.657196 0.396550 0.155917
H32   H     H_    0.834268 0.628903 0.945238 0.318157
H33   H     H_    0.126953 0.957766 0.992057 0.257068
H34   H     H_    0.681566 0.276650 0.374721 0.174988
H35   H     H_    0.274483 0.957432 0.021167 0.254227
H36   H     H_    0.230949 0.005561 0.909698 0.239554
H37   H     H_    0.217291 0.807393 0.927104 0.216138
H38   H     H_    0.070211 0.807196 0.899553 0.250686
H39   H     H_    0.029854 0.741567 0.058695 0.191647
H40   H     H_    0.176718 0.740697 0.084956 0.198478
H41   H     H_    0.056836 0.103233 0.387893 0.244553
H42   H     H_    0.175491 0.100691 0.472290 0.259382
H43   H     H_    0.149768 0.229235 0.438221 0.229708
H44   H     H_    0.331164 0.252543 0.374846 0.216718
H45   H     H_    0.355551 0.282085 0.709309 0.140086
H46   H     H_    0.214547 0.259780 0.292078 0.201271
H47   H     H_    0.294393 0.139889 0.250877 0.153370
H48   H     H_    0.144845 0.053579 0.279311 0.185188
H49   H     H_    0.853317 0.703305 0.357641 0.119312
H50   H     H_    0.118183 0.394763 0.088267 0.143966
H51   H     H_    0.576939 0.730207 0.460126 0.132727
H52   H     H_    0.734708 0.810751 0.359579 0.140480
N1    N     N_R   0.246280 0.438200 0.549540 -0.198578
N2    N     N_R   0.754330 0.561180 0.450980 -0.203322
O1    O     O_R   0.972510 0.318130 0.524770 -0.587826
O2    O     O_3   0.367067 0.821221 0.595923 -0.746633
O3    O     O_3   0.866055 0.605749 0.903314 -0.734027
O4    O     O_R   0.806530 0.359650 0.491510 -0.602865
O5    O     O_R   0.082970 0.479240 0.637550 -0.575971
O6    O     O_R   0.916990 0.520750 0.604290 -0.579310
O7    O     O_R   0.193470 0.640350 0.508490 -0.578247
O8    O     O_R   0.027490 0.681870 0.475230 -0.578331
O9    O     O_R   0.083010 0.479250 0.395710 -0.591579
O10   O     O_R   0.917030 0.520760 0.362450 -0.582944
O11   O     O_3   0.903083 0.275991 0.968855 -0.747326

loop_
_geom_bond_atom_site_label_1
_geom_bond_atom_site_label_2
_ccdc_geom_bond_type
Cu2   O8    S    
C52   H44   S    
C34   C56   S    
C8    C13   A    
C23   C45   S    
C27   C29   A    
C41   C42   S    
C19   C20   A    
C18   C26   A    
C16   O8    A    
C4    O5    A    
C21   H51   S    
C28   O10   A    
C7    C8    A    
C43   H19   S    
C42   H21   S    
C26   C27   A    
C40   H11   S    
Cu1   N1    S    
C47   H26   S    
C16   O7    A    
C38   C39   S    
C28   O9    A    
C50   H36   S    
C19   N2    A    
C14   O2    S    
C41   H24   S    
Cu1   O5    S    
H32   O3    S    
C12   C37   S    
H8    O2    S    
C24   C29   A    
C42   C43   S    
C53   H42   S    
C22   C25   A    
C33   O11   S    
C15   H5    S    
C4    O6    A    
C51   C57   S    
C2    C16   S    
C9    C10   A    
C33   C54   S    
C3    H1    S    
C4    C35   S    
C24   N2    A    
Cu2   O4    S    
C21   C22   A    
C15   C57   A    
C30   C44   S    
C37   H4    S    
C44   C46   S    
C46   H29   S    
C38   H16   S    
C53   H41   S    
Cu2   O10   S    
C6    H12   S    
C29   H2    S    
Cu1   O9    S    
C40   H10   S    
C35   C55   T    
C51   C52   S    
C47   H27   S    
C10   C57   A    
C32   H50   S    
C39   C40   S    
C50   H35   S    
C18   H45   S    
C54   H3    S    
Cu1   Cu2   S    
C32   C37   S    
C30   N1    A    
C32   C34   S    
C9    C14   A    
C36   C56   T    
C20   H52   S    
C27   C41   S    
C53   H43   S    
Cu2   N2    S    
C23   C34   S    
C41   H22   S    
Cu1   O7    S    
C1    O4    A    
C47   H25   S    
C2    C15   A    
C39   H13   S    
C50   H33   S    
C48   C49   S    
C45   C54   S    
C34   C54   S    
H7    O11   S    
C1    O1    A    
C44   H31   S    
C52   C53   S    
C46   H28   S    
C38   H15   S    
C25   C30   A    
C7    C9    A    
C48   H40   S    
C46   C47   S    
Cu2   O6    S    
C23   C48   S    
C12   C45   S    
C3    C5    A    
C52   H46   S    
C31   N1    A    
C6    C7    A    
C43   H18   S    
C48   H39   S    
C1    C17   S    
C8    C17   A    
C31   C38   S    
C32   C33   S    
C25   C26   A    
C23   C37   S    
C19   H49   S    
C5    H23   S    
C11   C13   A    
C45   O3    S    
C5    C6    A    
C51   H47   S    
C3    C17   A    
C22   C24   A    
C39   H14   S    
C49   H37   S    
C2    C14   A    
C12   C55   S    
C10   C11   A    
C49   H38   S    
C42   H20   S    
C20   C21   A    
C28   C36   S    
C51   H48   S    
C49   C50   S    
C40   H9    S    
C13   H34   S    
Cu1   O1    S    
C43   H17   S    
C18   C31   A    
C12   C33   S    
C44   H30   S    
C11   H6    S    
