data_mof_unit_60674.cif
_audit_creation_date              2012-12-10T17:06:34-0500
_audit_creation_method            fapswitch 2.2
_symmetry_space_group_name_H-M    P1
_symmetry_Int_Tables_number       1
_space_group_crystal_system       triclinic
_cell_length_a                    14.15817
_cell_length_b                    10.743225
_cell_length_c                    10.02503
_cell_angle_alpha                 90.258281
_cell_angle_beta                  89.99523
_cell_angle_gamma                 90.108755
_cell_volume                      1524.83298806

loop_
_atom_site_label
_atom_site_type_symbol
_atom_type_description
_atom_site_fract_x
_atom_site_fract_y
_atom_site_fract_z
_atom_type_partial_charge
C1    C     C_R   0.496240 0.262629 0.499501 0.792253
C2    C     C_R   0.504618 0.737197 0.500288 0.907254
C3    C     C_R   0.670830 0.499936 0.499978 0.885048
C4    C     C_1   0.227700 0.499962 0.500005 -0.194781
C5    C     C_1   0.142470 0.499954 0.499997 -0.000577
C6    C     C_1   0.042608 0.499964 0.499989 0.013661
C7    C     C_1   0.957384 0.499976 0.499985 0.011544
C8    C     C_1   0.857522 0.499983 0.499984 -0.007126
C9    C     C_1   0.772293 0.499971 0.499984 -0.204902
C10   C     C_2   0.515380 0.933167 0.389222 -0.132202
C11   C     C_2   0.520456 0.867856 0.501498 -0.248876
C12   C     C_2   0.521565 0.066850 0.395874 -0.211539
C13   C     C_2   0.482175 0.130670 0.496647 0.299193
C14   C     C_2   0.546344 0.580696 0.925331 -0.115976
C15   C     C_2   0.550262 0.576562 0.075359 -0.125036
C16   C     C_R   0.329168 0.499992 0.500019 0.901818
H1    H     H_    0.506980 0.889334 0.292040 0.166368
H2    H     H_    0.536972 0.911179 0.596888 0.193349
H3    H     H_    0.559679 0.113385 0.316149 0.133503
H4    H     H_    0.585479 0.654205 0.876052 0.158986
H5    H     H_    0.467656 0.427925 0.897444 0.163739
H6    H     H_    0.596550 0.642466 0.125314 0.157279
H7    H     H_    0.453529 0.442983 0.101900 0.165108
H8    H     H_    0.396534 0.137790 0.649030 0.337318
N1    N     N_2   0.500930 0.501330 0.852150 -0.182525
N2    N     N_2   0.500950 0.501360 0.147810 -0.183388
O1    O     O_R   0.499990 0.319060 0.613040 -0.612812
O2    O     O_R   0.500010 0.319100 0.386900 -0.619831
O3    O     O_R   0.373700 0.499980 0.613090 -0.588854
O4    O     O_R   0.373730 0.500020 0.386960 -0.588423
O5    O     O_R   0.499990 0.680900 0.613100 -0.605959
O6    O     O_R   0.500010 0.680940 0.386960 -0.610364
O7    O     O_R   0.626270 0.499980 0.613040 -0.589391
O8    O     O_R   0.626300 0.500020 0.386910 -0.591092
O9    O     O_3   0.423635 0.073557 0.588991 -0.768054
Zn1   Zn    Zn3+2 0.499980 0.499970 0.650990 0.950448
Zn2   Zn    Zn3+2 0.500020 0.500030 0.349010 0.944839

loop_
_geom_bond_atom_site_label_1
_geom_bond_atom_site_label_2
_ccdc_geom_bond_type
C4    C16   S    
C1    O2    A    
N2    Zn2   S    
C6    C7    T    
C3    C9    S    
O1    Zn1   S    
O8    Zn2   S    
C7    C8    S    
C11   H2    S    
O6    Zn2   S    
O3    Zn1   S    
C10   C12   S    
O2    Zn2   S    
C2    C11   S    
C12   H3    S    
C13   O9    S    
C2    O5    A    
C14   N1    D    
C5    C6    S    
H8    O9    S    
C1    C13   S    
C10   C11   D    
C3    O7    A    
N1    Zn1   S    
C16   O4    A    
C14   H4    S    
O7    Zn1   S    
C12   C13   D    
C2    O6    A    
H7    N2    S    
C1    O1    A    
H5    N1    S    
C14   C15   S    
C8    C9    T    
C15   N2    D    
C10   H1    S    
C3    O8    A    
C16   O3    A    
O5    Zn1   S    
C15   H6    S    
O4    Zn2   S    
C4    C5    T    
