data_mof_unit_17366.cif
_audit_creation_date              2012-10-26T18:25:52-0400
_audit_creation_method            fapswitch 2.2
_symmetry_space_group_name_H-M    P1
_symmetry_Int_Tables_number       1
_space_group_crystal_system       triclinic
_cell_length_a                    11.776798
_cell_length_b                    8.820648
_cell_length_c                    7.718207
_cell_angle_alpha                 104.226553
_cell_angle_beta                  97.483964
_cell_angle_gamma                 102.52836
_cell_volume                      744.254113842

loop_
_atom_site_label
_atom_site_type_symbol
_atom_type_description
_atom_site_fract_x
_atom_site_fract_y
_atom_site_fract_z
_atom_type_partial_charge
C1    C     C_R   0.496340 0.199270 0.451663 0.518819
C2    C     C_2   0.505013 0.970034 0.572624 -0.145160
C3    C     C_R   0.362725 0.311673 0.943348 0.201556
C4    C     C_R   0.296942 0.222610 0.047682 -0.064429
C5    C     C_R   0.200304 0.086329 0.976841 -0.158534
C6    C     C_R   0.159140 0.025856 0.792440 -0.102425
C7    C     C_R   0.214482 0.103415 0.680541 -0.164104
C8    C     C_R   0.311062 0.240259 0.753059 -0.074295
C9    C     C_R   0.637275 0.688326 0.056651 0.201556
C10   C     C_R   0.703059 0.777389 0.952318 -0.064429
C11   C     C_R   0.799698 0.913668 0.023159 -0.158534
C12   C     C_R   0.503660 0.800730 0.548337 0.518819
C13   C     C_R   0.840864 0.974139 0.207559 -0.102425
C14   C     C_R   0.785520 0.896581 0.319458 -0.164103
C15   C     C_R   0.688938 0.759740 0.246940 -0.074295
C16   C     C_R   0.283925 0.499088 0.496241 0.521012
C17   C     C_R   0.716075 0.500912 0.503759 0.521012
C18   C     C_1   0.161469 0.498704 0.491190 -0.014832
C19   C     C_1   0.838531 0.501296 0.508811 -0.014831
C20   C     C_1   0.059507 0.499379 0.495600 -0.044661
C21   C     C_1   0.940493 0.500621 0.504399 -0.044660
C22   C     C_2   0.494987 0.029965 0.427376 -0.145161
Cu1   Cu    Cu3+1 0.512570 0.517380 0.684380 0.911839
Cu2   Cu    Cu3+1 0.487430 0.482620 0.315620 0.911839
H1    H     H_    0.485886 0.954425 0.289385 0.147294
H2    H     H_    0.915525 0.079538 0.263263 0.124389
H3    H     H_    0.818152 0.942646 0.465536 0.099665
H4    H     H_    0.667129 0.726497 0.358774 0.178529
H5    H     H_    0.514114 0.045575 0.710615 0.147294
H6    H     H_    0.311791 0.246360 0.188588 0.176453
H7    H     H_    0.156961 0.027331 0.067380 0.105008
H8    H     H_    0.084480 0.920456 0.736736 0.124390
H9    H     H_    0.181851 0.057350 0.534464 0.099665
H10   H     H_    0.332871 0.273504 0.641226 0.178530
H11   H     H_    0.688209 0.753640 0.811412 0.176453
H12   H     H_    0.843042 0.972665 0.932620 0.105008
N1    N     N_2   0.468500 0.456430 0.038520 -0.145100
N2    N     N_2   0.531500 0.543570 0.961480 -0.145100
O1    O     O_R   0.508170 0.286130 0.619770 -0.519559
O2    O     O_R   0.491830 0.713870 0.380230 -0.519559
O3    O     O_R   0.486940 0.256780 0.308360 -0.520140
O4    O     O_R   0.513060 0.743220 0.691640 -0.520140
O5    O     O_R   0.347810 0.514690 0.655710 -0.509450
O6    O     O_R   0.652190 0.485310 0.344290 -0.509450
O7    O     O_R   0.326590 0.485340 0.344300 -0.521877
O8    O     O_R   0.673410 0.514660 0.655700 -0.521877

loop_
_geom_bond_atom_site_label_1
_geom_bond_atom_site_label_2
_ccdc_geom_bond_type
C16   O7    A    
C2    C22   D    
C6    H8    S    
Cu1   Cu2   S    
C12   O2    A    
C6    C7    A    
C14   H3    S    
Cu1   N2    S    
C11   C13   A    
C9    C10   A    
C2    C12   S    
Cu2   N1    S    
C9    C15   A    
C17   O6    A    
C1    C22   S    
Cu1   O8    S    
C8    H10   S    
C13   C14   A    
C17   O8    A    
Cu2   O3    S    
C7    H9    S    
C16   O5    A    
C15   H4    S    
N1    N2    D    
Cu1   O4    S    
C2    H5    S    
Cu1   O1    S    
Cu2   O7    S    
C1    O3    A    
C11   H12   S    
C17   C19   S    
C18   C20   T    
C5    C6    A    
Cu2   O6    S    
C10   H11   S    
C13   H2    S    
C5    H7    S    
C10   C11   A    
C1    O1    A    
C3    C4    A    
C7    C8    A    
Cu1   O5    S    
C20   C21   S    
C3    N1    S    
C16   C18   S    
C3    C8    A    
C14   C15   A    
C9    N2    S    
C12   O4    A    
Cu2   O2    S    
C4    H6    S    
C4    C5    A    
C19   C21   T    
C22   H1    S    
