data_mof_unit_60974.cif
_audit_creation_date              2012-12-10T18:43:59-0500
_audit_creation_method            fapswitch 2.2
_symmetry_space_group_name_H-M    P1
_symmetry_Int_Tables_number       1
_space_group_crystal_system       triclinic
_cell_length_a                    10.994751
_cell_length_b                    19.387347
_cell_length_c                    18.195283
_cell_angle_alpha                 90.756379
_cell_angle_beta                  101.34097
_cell_angle_gamma                 91.724565
_cell_volume                      3800.31321102

loop_
_atom_site_label
_atom_site_type_symbol
_atom_type_description
_atom_site_fract_x
_atom_site_fract_y
_atom_site_fract_z
_atom_type_partial_charge
C1    C     C_R   0.501495 0.367796 0.499824 0.925106
C2    C     C_R   0.498811 0.632183 0.500210 0.925807
C3    C     C_R   0.494607 0.707492 0.500337 -0.408589
C4    C     C_R   0.506766 0.292488 0.499772 -0.368204
C5    C     C_R   0.496398 0.965052 0.566272 0.583823
C6    C     C_R   0.507838 0.034826 0.433802 0.583926
C7    C     C_R   0.498072 0.036986 0.566087 0.594747
C8    C     C_R   0.505970 0.962891 0.433972 0.593753
C9    C     C_R   0.503803 0.072189 0.499848 -0.275694
C10   C     C_R   0.500210 0.927720 0.500200 -0.275648
C11   C     C_R   0.438347 0.447716 0.712837 0.650046
C12   C     C_R   0.587507 0.540756 0.291992 0.707715
C13   C     C_R   0.434251 0.446234 0.789786 0.523738
C14   C     C_R   0.594163 0.543092 0.215463 0.521772
C15   C     C_R   0.493774 0.498781 0.838708 -0.221670
C16   C     C_R   0.510653 0.503056 0.162444 -0.142426
C17   C     C_R   0.558006 0.551260 0.808894 0.509829
C18   C     C_R   0.420402 0.462597 0.187470 0.574629
C19   C     C_R   0.561297 0.551478 0.731562 -0.169599
C20   C     C_R   0.414909 0.461440 0.264529 -0.160354
C21   C     C_R   0.559999 0.448955 0.966677 0.640819
C22   C     C_R   0.447527 0.552973 0.035181 0.702507
C23   C     C_R   0.262156 0.496489 0.470783 0.720869
C24   C     C_R   0.736784 0.496241 0.529171 0.798657
C25   C     C_R   0.571407 0.450187 0.045557 -0.224017
C26   C     C_R   0.435960 0.551564 0.956156 -0.239621
C27   C     C_R   0.514466 0.503057 0.080394 0.018782
C28   C     C_R   0.493366 0.498988 0.921428 -0.007824
C29   C     C_2   0.126118 0.489194 0.457362 0.418739
C30   C     C_2   0.870935 0.489571 0.542828 0.459450
C31   C     C_2   0.065038 0.460117 0.508006 -0.211542
C32   C     C_2   0.929045 0.456781 0.493594 -0.087285
C33   C     C_R   0.394639 0.741698 0.456003 -0.299317
C34   C     C_R   0.605855 0.258586 0.545389 -0.270955
C35   C     C_R   0.397710 0.814379 0.456436 0.716782
C36   C     C_R   0.603786 0.185904 0.544788 0.707383
C37   C     C_R   0.497811 0.851944 0.500276 -0.143582
C38   C     C_R   0.505478 0.147999 0.499681 -0.141353
C39   C     C_R   0.595553 0.817382 0.544047 0.631996
C40   C     C_R   0.408776 0.182260 0.454559 0.634637
C41   C     C_R   0.594080 0.745641 0.543919 0.564970
C42   C     C_R   0.409463 0.253983 0.454591 0.534218
Cu1   Cu    Cu3+1 0.499960 0.500000 0.573360 1.021542
Cu2   Cu    Cu3+1 0.500040 0.500000 0.426640 1.072340
N1    N     N_R   0.499990 0.500020 0.683620 -0.333956
N2    N     N_R   0.500010 0.499980 0.316380 -0.337045
O1    O     O_R   0.499950 0.400180 0.561970 -0.529223
O2    O     O_R   0.500050 0.599820 0.438030 -0.530394
O3    O     O_R   0.500010 0.400190 0.438070 -0.573474
O4    O     O_R   0.499990 0.599810 0.561930 -0.598630
O5    O     O_R   0.320670 0.500000 0.539180 -0.619221
O6    O     O_R   0.679330 0.500000 0.460820 -0.521058
O7    O     O_R   0.320730 0.500010 0.415280 -0.583584
O8    O     O_R   0.679270 0.499990 0.584720 -0.600738
C43   C     C_2   0.865728 0.411519 0.429787 0.473912
H1    H     H_    0.910362 0.402672 0.382516 0.174236
O9    O     O_2   0.768642 0.379945 0.431529 -0.558693
C44   C     C_2   0.126915 0.430464 0.579964 0.572303
H2    H     H_    0.191746 0.461519 0.620481 0.127968
O10   O     O_2   0.098729 0.372071 0.596322 -0.418313
F1    F     F_    0.371577 0.393759 0.816212 -0.521710
F2    F     F_    0.682385 0.583838 0.193397 -0.518276
F3    F     F_    0.621675 0.600822 0.856025 -0.553544
F4    F     F_    0.339456 0.423214 0.136544 -0.552328
C45   C     C_2   0.635828 0.607189 0.705056 0.682244
H3    H     H_    0.687477 0.597799 0.661651 0.138610
O11   O     O_2   0.641577 0.665305 0.732530 -0.389479
C46   C     C_2   0.315957 0.417836 0.287190 0.669445
H4    H     H_    0.326667 0.397140 0.342347 0.127838
O12   O     O_2   0.218542 0.404238 0.243487 -0.397918
F5    F     F_    0.617166 0.399512 0.933472 -0.590915
F6    F     F_    0.390119 0.601992 0.068800 -0.545617
C47   C     C_2   0.643939 0.395257 0.088942 0.615815
H5    H     H_    0.675255 0.352183 0.059663 0.161296
O13   O     O_2   0.671622 0.397365 0.157279 -0.512798
C48   C     C_2   0.360912 0.603745 0.909639 0.669991
H6    H     H_    0.338804 0.597980 0.849073 0.032732
O14   O     O_2   0.322552 0.653975 0.938048 -0.365148
F7    F     F_    0.938368 0.522105 0.605152 -0.632376
F8    F     F_    0.060930 0.512192 0.391260 -0.599742
C49   C     C_2   0.286246 0.701884 0.411450 0.636284
H7    H     H_    0.275785 0.646706 0.418208 0.039582
O15   O     O_2   0.206700 0.730048 0.366528 -0.357088
C50   C     C_2   0.712565 0.298663 0.591374 0.665840
H8    H     H_    0.722301 0.353935 0.585327 0.011071
O16   O     O_2   0.791646 0.270585 0.636685 -0.370156
F9    F     F_    0.302297 0.849132 0.415970 -0.519544
F10   F     F_    0.698541 0.151479 0.586375 -0.518123
F11   F     F_    0.693920 0.853326 0.585519 -0.509302
F12   F     F_    0.312075 0.146036 0.411782 -0.513412
F13   F     F_    0.692314 0.713217 0.584293 -0.576638
F14   F     F_    0.312532 0.285993 0.412336 -0.606553
F15   F     F_    0.488840 0.931684 0.630455 -0.502502
F16   F     F_    0.515597 0.068152 0.369625 -0.505241
F17   F     F_    0.491946 0.072373 0.630095 -0.495965
F18   F     F_    0.511703 0.927452 0.369932 -0.498341
F19   F     F_    0.380416 0.395536 0.667970 -0.581514
F20   F     F_    0.669114 0.580321 0.341818 -0.551511

loop_
_geom_bond_atom_site_label_1
_geom_bond_atom_site_label_2
_ccdc_geom_bond_type
Cu2   O3    S    
C24   O6    A    
C38   C40   A    
C43   H1    S    
C47   H5    S    
C8    F18   S    
C18   F4    S    
C6    C9    A    
C49   H7    S    
C39   C41   A    
C36   F10   S    
C4    C42   A    
C21   F5    S    
C10   C37   S    
C23   C29   S    
C31   C44   S    
C35   C37   A    
C50   O16   D    
C45   O11   D    
C3    C33   A    
C44   O10   D    
C14   F2    S    
C15   C17   A    
C2    O4    A    
C33   C35   A    
C35   F9    S    
Cu2   O7    S    
C46   H4    S    
C6    F16   S    
C1    O3    A    
C26   C48   S    
C32   C43   S    
C25   C47   S    
Cu2   O6    S    
C16   C27   S    
C40   C42   A    
C47   O13   D    
C34   C50   S    
C22   F6    S    
C49   O15   D    
Cu2   N2    S    
C23   O7    A    
C37   C39   A    
C4    C34   A    
C50   H8    S    
C12   N2    A    
C5    C7    A    
C1    O1    A    
C6    C8    A    
C2    O2    A    
C44   H2    S    
C24   O8    A    
Cu1   Cu2   S    
Cu1   O8    S    
C23   O5    A    
C31   C32   S    
C48   H6    S    
Cu1   N1    S    
C30   F7    S    
C8    C10   A    
C41   F13   S    
C21   C28   A    
C12   C14   A    
C22   C27   A    
C43   O9    D    
C14   C16   A    
C11   N1    A    
C7    C9    A    
C21   C25   A    
C3    C41   A    
C42   F14   S    
C12   F20   S    
C20   C46   S    
C48   O14   D    
C5    F15   S    
C19   N1    A    
Cu1   O4    S    
C25   C27   A    
C7    F17   S    
C26   C28   A    
C11   F19   S    
C1    C4    S    
C13   C15   A    
C2    C3    S    
C5    C10   A    
C29   C31   D    
C17   F3    S    
C30   C32   D    
C11   C13   A    
Cu1   O5    S    
C15   C28   S    
C29   F8    S    
C33   C49   S    
C36   C38   A    
C9    C38   S    
C17   C19   A    
C34   C36   A    
C19   C45   S    
C18   C20   A    
C24   C30   S    
C13   F1    S    
C16   C18   A    
C45   H3    S    
C22   C26   A    
C46   O12   D    
C40   F12   S    
Cu1   O1    S    
C39   F11   S    
C20   N2    A    
Cu2   O2    S    
