data_mof_unit_29273.cif
_audit_creation_date              2012-10-26T20:17:42-0400
_audit_creation_method            fapswitch 2.2
_symmetry_space_group_name_H-M    P1
_symmetry_Int_Tables_number       1
_space_group_crystal_system       triclinic
_cell_length_a                    27.855751
_cell_length_b                    8.759695
_cell_length_c                    7.433045
_cell_angle_alpha                 102.851352
_cell_angle_beta                  94.266612
_cell_angle_gamma                 93.244776
_cell_volume                      1758.38997327

loop_
_atom_site_label
_atom_site_type_symbol
_atom_type_description
_atom_site_fract_x
_atom_site_fract_y
_atom_site_fract_z
_atom_type_partial_charge
C1    C     C_R   0.499016 0.200635 0.454432 0.574561
C2    C     C_R   0.869986 0.356023 0.465888 0.028035
C3    C     C_R   0.354768 0.501756 0.508158 -0.051132
C4    C     C_R   0.645876 0.499207 0.493726 -0.055234
C5    C     C_R   0.971878 0.352013 0.470258 -0.030944
C6    C     C_R   0.031186 0.632221 0.623226 -0.032785
C7    C     C_R   0.980078 0.635859 0.609682 0.019317
C8    C     C_R   0.022820 0.352274 0.464942 0.020334
C9    C     C_R   0.950628 0.495163 0.536214 0.020539
C10   C     C_R   0.052334 0.491720 0.544422 0.019011
C11   C     C_R   0.941253 0.212724 0.411544 -0.132082
C12   C     C_R   0.500928 0.799359 0.545557 0.569108
C13   C     C_R   0.062069 0.764930 0.713742 -0.121761
C14   C     C_R   0.891476 0.214480 0.408413 0.389703
C15   C     C_R   0.111830 0.763703 0.716099 0.397391
C16   C     C_R   0.407568 0.501196 0.502299 0.560279
C17   C     C_R   0.592636 0.499280 0.497437 0.556794
C18   C     C_R   0.045235 0.217606 0.379603 -0.134683
C19   C     C_R   0.957361 0.776564 0.666125 -0.136047
C20   C     C_2   0.504876 0.037145 0.431550 0.055768
C21   C     C_2   0.495003 0.962826 0.568355 0.054431
C22   C     C_R   0.175682 0.359505 0.457505 0.490874
C23   C     C_R   0.103442 0.491134 0.544462 -0.113246
C24   C     C_R   0.826839 0.638859 0.564479 0.504293
C25   C     C_R   0.183347 0.627078 0.624374 0.464195
C26   C     C_R   0.819627 0.359765 0.464760 0.465938
C27   C     C_R   0.275519 0.566494 0.395918 0.128957
C28   C     C_R   0.718868 0.445083 0.333062 0.130863
C29   C     C_R   0.325722 0.568788 0.385088 0.026189
C30   C     C_R   0.668213 0.441553 0.328211 0.022068
C31   C     C_R   0.332768 0.434921 0.640030 0.376167
C32   C     C_R   0.675428 0.556592 0.660714 0.370885
C33   C     C_R   0.283081 0.433711 0.649657 0.438632
C34   C     C_R   0.899454 0.497396 0.528466 -0.115193
C35   C     C_R   0.725365 0.555764 0.664194 0.432184
C36   C     C_R   0.254457 0.498702 0.528061 0.187049
C37   C     C_R   0.747376 0.500695 0.501598 0.184027
C38   C     C_R   0.124958 0.353769 0.459282 0.069820
C39   C     C_R   0.877689 0.640533 0.583712 0.069700
C40   C     C_R   0.095188 0.216715 0.376615 0.113326
C41   C     C_R   0.907283 0.780028 0.655621 0.122346
C42   C     C_R   0.133073 0.628597 0.629071 0.024947
Cu1   Cu    Cu3+1 0.505380 0.517380 0.684380 1.223566
Cu2   Cu    Cu3+1 0.494620 0.482620 0.315620 1.160748
F1    F     F_    0.359184 0.366598 0.756948 -0.533109
F2    F     F_    0.656258 0.615482 0.822316 -0.551328
F3    F     F_    0.449779 0.371647 0.929681 -0.501474
F4    F     F_    0.550104 0.629004 0.070611 -0.547968
F5    F     F_    0.262480 0.368192 0.777166 -0.546689
F6    F     F_    0.752731 0.609521 0.827409 -0.557364
F7    F     F_    0.864615 0.075769 0.345907 -0.556664
F8    F     F_    0.138873 0.896943 0.804230 -0.558298
H1    H     H_    0.954559 0.098262 0.370528 0.130842
H2    H     H_    0.622585 0.463338 0.110466 0.335917
H3    H     H_    0.360076 0.558349 0.151382 0.321098
H4    H     H_    0.373843 0.726559 0.319183 0.246573
H5    H     H_    0.730010 0.275797 0.109280 0.292572
H6    H     H_    0.730612 0.459514 0.072272 0.322093
H7    H     H_    0.256743 0.750479 0.289841 0.294992
H8    H     H_    0.250073 0.574380 0.136278 0.306602
H9    H     H_    0.499286 0.885725 0.176250 0.293184
H10   H     H_    0.555822 0.907354 0.296596 0.287865
H11   H     H_    0.500535 0.114206 0.823684 0.288820
H12   H     H_    0.049058 0.872241 0.788192 0.127590
H13   H     H_    0.444042 0.092722 0.703095 0.300786
H14   H     H_    0.024948 0.110329 0.307928 0.097709
H15   H     H_    0.977381 0.888652 0.716350 0.095330
H16   H     H_    0.100346 0.043057 0.149820 0.261724
H17   H     H_    0.104328 0.985788 0.353035 0.244745
H18   H     H_    0.898875 0.964803 0.865644 0.246788
H19   H     H_    0.900808 0.008978 0.656553 0.257448
H20   H     H_    0.616387 0.285414 0.170231 0.259254
N1    N     N_R   0.203241 0.494725 0.537888 -0.385146
N2    N     N_3   0.245311 0.631911 0.272195 -0.535595
N3    N     N_3   0.525279 0.963522 0.264241 -0.583842
N4    N     N_3   0.474554 0.036451 0.735567 -0.575812
N5    N     N_R   0.799150 0.499847 0.509040 -0.389203
N6    N     N_2   0.486510 0.456430 0.038510 0.173578
N7    N     N_2   0.513490 0.543570 0.961490 0.171458
N8    N     N_3   0.115060 0.074640 0.287727 -0.494165
N9    N     N_3   0.887070 0.926373 0.725022 -0.486969
N10   N     N_3   0.640852 0.375429 0.154289 -0.576681
N11   N     N_3   0.346149 0.643340 0.251889 -0.577123
N12   N     N_3   0.741862 0.393226 0.166169 -0.512945
O1    O     O_R   0.503500 0.286120 0.619780 -0.520939
O2    O     O_2   0.804949 0.774569 0.598838 -0.332673
O3    O     O_2   0.791136 0.224588 0.421236 -0.350524
O4    O     O_2   0.212393 0.756686 0.704433 -0.350561
O5    O     O_R   0.496500 0.713880 0.380220 -0.524109
O6    O     O_R   0.494410 0.256780 0.308360 -0.473762
O7    O     O_R   0.505590 0.743220 0.691640 -0.468919
O8    O     O_R   0.434810 0.514700 0.655690 -0.422268
O9    O     O_R   0.565190 0.485300 0.344310 -0.498922
O10   O     O_R   0.425720 0.485350 0.344280 -0.503331
O11   O     O_R   0.574280 0.514650 0.655720 -0.428303
O12   O     O_2   0.197621 0.232255 0.375114 -0.361221

loop_
_geom_bond_atom_site_label_1
_geom_bond_atom_site_label_2
_ccdc_geom_bond_type
H16   N8    S    
C1    O6    A    
C28   N12   S    
C12   O7    A    
C33   C36   A    
C4    C30   A    
C39   C41   A    
H9    N3    S    
C21   N4    S    
H13   N4    S    
F4    N7    S    
C35   C37   A    
C29   N11   S    
C11   C14   A    
C27   C29   A    
H11   N4    S    
Cu1   N7    S    
C22   C38   A    
C24   C39   A    
H8    N2    S    
C3    C29   A    
H18   N9    S    
C18   C40   A    
Cu2   O9    S    
C26   O3    S    
Cu1   O11   S    
C40   N8    S    
C19   H15   S    
C17   O11   A    
C27   N2    S    
C11   H1    S    
C2    C34   A    
C22   O12   S    
C1    O1    A    
C26   N5    A    
C34   C39   A    
Cu1   O1    S    
C32   C35   A    
C12   O5    A    
N6    N7    D    
C37   N5    S    
C12   C21   S    
C25   O4    S    
C8    C18   A    
C20   N3    S    
C30   N10   S    
Cu1   Cu2   S    
C5    C9    A    
H6    N12   S    
C14   F7    S    
C41   N9    S    
C35   F6    S    
C31   C33   A    
H5    N12   S    
C2    C26   A    
C15   F8    S    
C3    C31   A    
C23   C42   A    
H7    N2    S    
C4    C32   A    
C4    C17   S    
C16   O8    A    
C7    C19   A    
C13   C15   A    
C9    C34   A    
C10   C23   A    
H10   N3    S    
C17   O9    A    
H3    N11   S    
H2    N10   S    
Cu2   O6    S    
H4    N11   S    
C7    C9    A    
C1    C20   S    
C32   F2    S    
C15   C42   A    
C25   C42   A    
C6    C10   A    
C5    C8    A    
C5    C11   A    
C6    C7    A    
C27   C36   A    
C18   H14   S    
C23   C38   A    
C16   O10   A    
Cu1   O8    S    
F3    N6    S    
Cu2   N6    S    
C6    C13   A    
C38   C40   A    
C13   H12   S    
C24   O2    S    
C28   C37   A    
C28   C30   A    
C25   N1    A    
C2    C14   A    
Cu1   O7    S    
Cu2   O10   S    
C36   N1    S    
C3    C16   S    
C24   N5    A    
C20   C21   D    
C8    C10   A    
C31   F1    S    
H17   N8    S    
C22   N1    A    
C33   F5    S    
H20   N10   S    
Cu2   O5    S    
C19   C41   A    
H19   N9    S    
