data_mof_unit_51084.cif
_audit_creation_date              2012-10-26T18:53:46-0400
_audit_creation_method            fapswitch 2.2
_symmetry_space_group_name_H-M    P1
_symmetry_Int_Tables_number       1
_space_group_crystal_system       triclinic
_cell_length_a                    14.880626
_cell_length_b                    14.992033
_cell_length_c                    17.328541
_cell_angle_alpha                 108.553732
_cell_angle_beta                  73.95184
_cell_angle_gamma                 116.061817
_cell_volume                      3249.60965739

loop_
_atom_site_label
_atom_site_type_symbol
_atom_type_description
_atom_site_fract_x
_atom_site_fract_y
_atom_site_fract_z
_atom_type_partial_charge
C1    C     C_R   0.118699 0.687597 0.512232 0.593300
C2    C     C_R   0.709735 0.178828 0.509187 -0.121214
C3    C     C_R   0.359990 0.922845 0.506537 0.014131
C4    C     C_R   0.640459 0.076991 0.497652 0.019133
C5    C     C_R   0.320887 0.000800 0.541071 0.034069
C6    C     C_R   0.679631 0.999111 0.463194 0.032955
C7    C     C_R   0.466927 0.948486 0.489494 0.036019
C8    C     C_R   0.533515 0.051228 0.514953 0.046472
C9    C     C_R   0.490984 0.124869 0.557125 -0.092213
C10   C     C_R   0.509493 0.874801 0.447531 -0.116657
C11   C     C_R   0.387875 0.100862 0.567392 -0.072498
C12   C     C_R   0.881327 0.312460 0.488748 0.556241
C13   C     C_R   0.612650 0.898934 0.437187 -0.077371
C14   C     C_R   0.305039 0.347577 0.345370 -0.113558
C15   C     C_R   0.699162 0.661674 0.648648 -0.114150
C16   C     C_R   0.987286 0.498325 0.651450 0.587447
C17   C     C_R   0.011026 0.497434 0.348167 0.576954
C18   C     C_R   0.216211 0.365726 0.374918 0.179852
C19   C     C_R   0.789254 0.645499 0.617047 0.167546
C20   C     C_R   0.287705 0.489884 0.490689 0.183766
C21   C     C_R   0.708188 0.504455 0.513938 0.169641
C22   C     C_R   0.372865 0.460852 0.469036 -0.010864
C23   C     C_R   0.186418 0.795633 0.517026 0.011953
C24   C     C_R   0.623822 0.534163 0.533995 -0.023637
C25   C     C_R   0.385142 0.396265 0.390506 -0.013213
C26   C     C_R   0.614107 0.603533 0.609675 -0.015934
C27   C     C_R   0.450577 0.500687 0.519244 0.024519
C28   C     C_R   0.545352 0.491909 0.484451 0.018626
C29   C     C_R   0.560739 0.445041 0.400351 -0.085440
C30   C     C_R   0.436031 0.547320 0.603644 -0.079402
C31   C     C_R   0.480452 0.389591 0.355788 0.074789
C32   C     C_R   0.518117 0.607947 0.646020 0.068909
C33   C     C_R   0.983639 0.492506 0.735512 -0.035666
C34   C     C_R   0.813851 0.204472 0.485753 -0.015463
C35   C     C_R   0.015834 0.492239 0.261861 -0.019902
C36   C     C_R   0.029429 0.433635 0.747473 0.040265
C37   C     C_R   0.104361 0.550235 0.215730 0.040042
C38   C     C_R   0.054155 0.452261 0.825236 0.033724
C39   C     C_R   0.108119 0.534469 0.130257 0.041581
C40   C     C_R   0.019188 0.517889 0.893810 -0.027708
C41   C     C_R   0.022835 0.461063 0.092458 -0.023030
C42   C     C_R   0.963746 0.568301 0.882647 0.047939
C43   C     C_R   0.936110 0.401191 0.139679 0.054947
C44   C     C_R   0.949466 0.557030 0.803046 -0.126868
C45   C     C_R   0.214784 0.975515 0.553587 0.049575
C46   C     C_R   0.934059 0.418821 0.223710 -0.120163
C47   C     C_2   0.037889 0.531786 0.977223 -0.062597
C48   C     C_2   0.020024 0.451395 0.005789 -0.064266
C49   C     C_2   0.051604 0.352652 0.678432 0.640831
C50   C     C_2   0.192771 0.625865 0.256735 0.626959
C51   C     C_2   0.501294 0.329900 0.271367 0.584292
C52   C     C_2   0.498769 0.671361 0.729110 0.577403
C53   C     C_2   0.692151 0.399683 0.464449 0.589603
C54   C     C_2   0.299750 0.591517 0.546105 0.582790
C55   C     C_2   0.878242 0.723710 0.654931 0.596016
C56   C     C_R   0.785770 0.024638 0.450585 0.050405
C57   C     C_2   0.138403 0.313218 0.320985 0.629008
C58   C     C_2   0.919134 0.633249 0.952112 0.596642
C59   C     C_2   0.844285 0.320777 0.105362 0.601439
C60   C     C_2   0.201383 0.593839 0.080613 0.620700
C61   C     C_2   0.122064 0.407797 0.832736 0.612106
C62   C     C_2   0.170516 0.053742 0.575404 0.591251
C63   C     C_2   0.830525 0.946734 0.428351 0.584448
C64   C     C_R   0.148735 0.872689 0.543075 -0.109247
C65   C     C_R   0.851616 0.127502 0.460784 -0.110291
C66   C     C_R   0.290630 0.821087 0.494387 -0.106313
Cu1   Cu    Cu3+1 0.916740 0.524770 0.521640 1.068234
Cu2   Cu    Cu3+1 0.083260 0.475230 0.478360 1.091803
H1    H     H_    0.869554 0.370992 0.259181 0.182078
H2    H     H_    0.536560 0.810637 0.806194 0.362866
H3    H     H_    0.734677 0.306441 0.363320 0.333933
H4    H     H_    0.391731 0.740063 0.574335 0.346241
H5    H     H_    0.958764 0.874069 0.693169 0.369352
H6    H     H_    0.008649 0.194881 0.294065 0.343335
H7    H     H_    0.311292 0.297080 0.285407 0.178225
H8    H     H_    0.697165 0.720510 0.703977 0.192261
H9    H     H_    0.635537 0.449406 0.368516 0.169735
H10   H     H_    0.361194 0.540679 0.636763 0.182934
H11   H     H_    0.993255 0.375808 0.966602 0.205827
H12   H     H_    0.912278 0.599647 0.793394 0.211522
H13   H     H_    0.056959 0.607132 0.018188 0.182413
H14   H     H_    0.874906 0.751894 0.989538 0.364025
H15   H     H_    0.692078 0.247837 0.124976 0.365544
H16   H     H_    0.314357 0.591414 0.984882 0.376835
H17   H     H_    0.260528 0.432619 0.849362 0.371478
H18   H     H_    0.684472 0.240430 0.533331 0.173452
H19   H     H_    0.315874 0.759324 0.470490 0.165122
H20   H     H_    0.932475 0.147334 0.450163 0.204351
H21   H     H_    0.067790 0.852706 0.554279 0.186059
H22   H     H_    0.180860 0.185510 0.558935 0.372999
H23   H     H_    0.360841 0.161089 0.600718 0.176543
H24   H     H_    0.820618 0.814434 0.443498 0.357810
H25   H     H_    0.639688 0.838683 0.404033 0.174874
H26   H     H_    0.998504 0.227653 0.589136 0.346374
H27   H     H_    0.343127 0.680350 0.256764 0.344193
H28   H     H_    0.534951 0.202106 0.585239 0.148860
H29   H     H_    0.465545 0.797342 0.419833 0.146515
H30   H     H_    0.463614 0.193840 0.189932 0.357043
N1    N     N_R   0.208390 0.438070 0.445820 -0.290846
N2    N     N_R   0.791610 0.561930 0.554180 -0.286158
O1    O     O_R   0.020090 0.662480 0.528530 -0.489281
O2    O     O_R   0.974418 0.278067 0.634876 -0.679249
O3    O     O_2   0.180592 0.687880 0.320215 -0.519655
O4    O     O_R   0.289610 0.625726 0.222926 -0.633699
O5    O     O_2   0.573461 0.370737 0.222486 -0.457581
O6    O     O_R   0.440904 0.226300 0.248736 -0.667115
O7    O     O_2   0.427514 0.633159 0.779807 -0.463914
O8    O     O_R   0.558389 0.775628 0.748073 -0.670154
O9    O     O_2   0.615421 0.329008 0.484162 -0.557715
O10   O     O_R   0.756926 0.381552 0.391630 -0.679559
O11   O     O_2   0.240064 0.601073 0.609422 -0.478945
O12   O     O_R   0.979910 0.337520 0.471470 -0.481926
O13   O     O_R   0.387355 0.675827 0.529716 -0.734912
O14   O     O_2   0.926793 0.701057 0.686294 -0.489144
O15   O     O_R   0.900213 0.826488 0.662026 -0.667202
O16   O     O_2   0.152220 0.340629 0.257841 -0.488060
O17   O     O_R   0.055282 0.225698 0.336801 -0.684398
O18   O     O_2   0.889949 0.614813 0.020692 -0.482688
O19   O     O_R   0.907077 0.713955 0.938092 -0.663389
O20   O     O_2   0.851557 0.264755 0.037116 -0.488554
O21   O     O_R   0.748741 0.305769 0.153805 -0.644032
O22   O     O_2   0.235511 0.687071 0.099655 -0.464329
O23   O     O_R   0.160710 0.620650 0.491980 -0.490910
O24   O     O_R   0.250770 0.542807 0.012947 -0.633560
O25   O     O_2   0.093080 0.315506 0.823028 -0.454594
O26   O     O_R   0.220253 0.471742 0.848103 -0.614205
O27   O     O_2   0.089038 0.041524 0.621048 -0.463252
O28   O     O_R   0.219595 0.139133 0.540797 -0.668011
O29   O     O_2   0.912096 0.959624 0.382712 -0.466389
O30   O     O_R   0.781862 0.860885 0.462403 -0.671732
O31   O     O_R   0.839290 0.379350 0.508020 -0.499777
O32   O     O_R   0.921540 0.523360 0.633990 -0.474430
O33   O     O_R   0.078460 0.476640 0.366010 -0.483415
O34   O     O_R   0.062170 0.481520 0.597440 -0.452353
O35   O     O_R   0.937830 0.518480 0.402560 -0.457114
O36   O     O_2   0.137210 0.352830 0.658516 -0.491210

loop_
_geom_bond_atom_site_label_1
_geom_bond_atom_site_label_2
_ccdc_geom_bond_type
C53   O10   S    
C25   C31   A    
C40   C47   S    
C38   C40   A    
C54   O13   S    
C26   C32   A    
C59   O20   D    
C12   O31   A    
C7    C10   A    
C14   C18   A    
H24   O30   S    
Cu1   O32   S    
C4    C8    A    
C16   O34   A    
C42   C58   S    
C7    C8    A    
C39   C41   A    
C15   C19   A    
Cu1   O1    S    
H14   O19   S    
C23   C66   A    
Cu2   O33   S    
C35   C37   A    
C24   C26   A    
C5    C11   A    
C3    C7    A    
C62   O27   D    
C19   C55   S    
C56   C65   A    
H3    O10   S    
C45   C62   S    
C58   O18   D    
C33   C36   A    
C34   C65   A    
Cu2   O12   S    
C63   O30   S    
C60   O24   S    
C32   C52   S    
C46   H1    S    
C52   O7    D    
C8    C9    A    
C22   C25   A    
C17   O35   A    
C49   O2    S    
C61   O26   S    
C30   C32   A    
C43   C59   S    
C38   C61   S    
C2    C34   A    
C40   C42   A    
C15   H8    S    
C50   O3    D    
C27   C30   A    
C41   C43   A    
H17   O26   S    
C42   C44   A    
C64   H21   S    
Cu2   O23   S    
C57   O16   D    
Cu1   Cu2   S    
C44   H12   S    
C4    C6    A    
C31   C51   S    
C66   H19   S    
C21   N2    A    
C15   C26   A    
C5    C45   A    
H4    O13   S    
C13   H25   S    
C10   H29   S    
C2    C4    A    
C1    O23   A    
Cu1   O35   S    
C16   C33   S    
C18   C57   S    
C47   C48   D    
C51   O5    D    
C56   C63   S    
H15   O21   S    
C60   O22   D    
C9    C11   A    
C9    H28   S    
C52   O8    S    
Cu1   N2    S    
C20   C54   S    
C23   C64   A    
C49   O36   D    
C20   C22   A    
C1    C23   S    
C22   C27   A    
C17   O33   A    
C62   O28   S    
C3    C66   A    
C18   N1    A    
C12   C34   S    
C1    O1    A    
C12   O12   A    
H27   O4    S    
C48   H11   S    
C65   H20   S    
C57   O17   S    
C53   O9    D    
H6    O17   S    
C28   C29   A    
C33   C44   A    
Cu1   O31   S    
C24   C28   A    
C6    C56   A    
C3    C5    A    
C10   C13   A    
H5    O15   S    
C19   N2    A    
C55   O14   D    
H16   O24   S    
C45   C64   A    
H30   O6    S    
C14   H7    S    
Cu2   O34   S    
Cu2   N1    S    
C37   C39   A    
H2    O8    S    
C6    C13   A    
C21   C53   S    
C37   C50   S    
C47   H13   S    
C20   N1    A    
C55   O15   S    
C51   O6    S    
C39   C60   S    
C36   C38   A    
C58   O19   S    
C41   C48   S    
C54   O11   D    
C2    H18   S    
C63   O29   D    
C14   C25   A    
C16   O32   A    
C43   C46   A    
C36   C49   S    
C59   O21   S    
C30   H10   S    
C11   H23   S    
C29   H9    S    
H26   O2    S    
C29   C31   A    
C21   C24   A    
C27   C28   A    
H22   O28   S    
C61   O25   D    
C17   C35   S    
C35   C46   A    
C50   O4    S    
