data_mof_unit_21743.cif
_audit_creation_date              2012-12-10T16:51:00-0500
_audit_creation_method            fapswitch 2.2
_symmetry_space_group_name_H-M    P1
_symmetry_Int_Tables_number       1
_space_group_crystal_system       triclinic
_cell_length_a                    8.04187
_cell_length_b                    8.551911
_cell_length_c                    10.536032
_cell_angle_alpha                 91.140089
_cell_angle_beta                  88.257241
_cell_angle_gamma                 92.151305
_cell_volume                      723.6250381

loop_
_atom_site_label
_atom_site_type_symbol
_atom_type_description
_atom_site_fract_x
_atom_site_fract_y
_atom_site_fract_z
_atom_type_partial_charge
C1    C     C_R   0.542571 0.792706 0.495414 0.924977
C2    C     C_R   0.936915 0.507731 0.076771 -0.093526
C3    C     C_R   0.068451 0.599076 0.027269 -0.135924
C4    C     C_R   0.931549 0.400923 0.972731 -0.135924
C5    C     C_R   0.209460 0.612793 0.101046 -0.190332
C6    C     C_R   0.790539 0.387206 0.898953 -0.190332
C7    C     C_R   0.351565 0.536867 0.060797 0.089152
C8    C     C_R   0.648435 0.463132 0.939203 0.089152
C9    C     C_R   0.352875 0.457428 0.943679 0.097579
C10   C     C_R   0.647125 0.542571 0.056321 0.097579
C11   C     C_R   0.497981 0.554512 0.125445 -0.215582
C12   C     C_R   0.457429 0.207294 0.504585 0.924979
C13   C     C_R   0.502019 0.445487 0.874555 -0.215584
C14   C     C_2   0.556154 0.953272 0.471766 0.094532
C15   C     C_2   0.443844 0.046728 0.528232 0.094536
C16   C     C_R   0.501354 0.478968 0.738584 0.877854
C17   C     C_R   0.498646 0.521032 0.261415 0.877858
C18   C     C_R   0.203109 0.409934 0.891300 -0.168848
C19   C     C_R   0.796891 0.590065 0.108700 -0.168847
C20   C     C_R   0.063085 0.492268 0.923228 -0.093526
Cl1   Cl    Cl    0.694606 0.007877 0.343789 -0.625367
Cl2   Cl    Cl    0.305383 0.992122 0.656200 -0.625368
H1    H     H_    0.963603 0.282168 0.996064 0.180377
H2    H     H_    0.990903 0.618469 0.595366 0.208655
H3    H     H_    0.036397 0.717831 0.003936 0.180377
H4    H     H_    0.198172 0.326104 0.812514 0.193358
H5    H     H_    0.801828 0.673895 0.187486 0.193359
H6    H     H_    0.032286 0.549977 0.835756 0.178769
H7    H     H_    0.967714 0.450022 0.164244 0.178769
H8    H     H_    0.211502 0.694497 0.181118 0.174390
H9    H     H_    0.788497 0.305502 0.818881 0.174389
H10   H     H_    0.009097 0.381531 0.404634 0.208655
N1    N     N_2   0.950330 0.457950 0.466250 -0.175807
N2    N     N_2   0.049670 0.542050 0.533750 -0.175806
O1    O     O_R   0.389250 0.738570 0.508280 -0.573984
O2    O     O_R   0.610750 0.261430 0.491720 -0.573989
O3    O     O_R   0.678390 0.711630 0.486650 -0.598758
O4    O     O_R   0.321610 0.288370 0.513350 -0.598756
O5    O     O_R   0.355430 0.513480 0.694040 -0.603880
O6    O     O_R   0.644570 0.486520 0.305960 -0.603880
O7    O     O_R   0.644570 0.486540 0.672410 -0.630284
O8    O     O_R   0.355430 0.513460 0.327590 -0.630284
Zn1   Zn    Zn3+2 0.306940 0.517990 0.514440 0.992647
Zn2   Zn    Zn3+2 0.693060 0.482010 0.485560 0.992646

loop_
_geom_bond_atom_site_label_1
_geom_bond_atom_site_label_2
_ccdc_geom_bond_type
C2    C4    A    
C5    C7    A    
C8    C13   A    
C12   O2    A    
O1    Zn1   S    
C18   H4    S    
C12   C15   S    
C1    O3    A    
C10   C19   A    
H10   N1    S    
O3    Zn2   S    
C2    C3    A    
C3    C20   A    
C7    C11   A    
C2    H7    S    
C6    C8    A    
C14   Cl1   S    
C8    C10   A    
N1    N2    D    
C18   C20   A    
C12   O4    A    
C14   C15   D    
O7    Zn2   S    
O4    Zn1   S    
O2    Zn2   S    
C10   C11   A    
C16   O5    A    
C4    C20   A    
C9    C18   A    
O6    Zn2   S    
C3    H3    S    
C19   H5    S    
C1    O1    A    
C4    C6    A    
C5    H8    S    
O8    Zn1   S    
C13   C16   S    
C7    C9    A    
C4    H1    S    
C9    C13   A    
C17   O8    A    
C11   C17   S    
C6    H9    S    
C1    C14   S    
C20   H6    S    
C2    C19   A    
O5    Zn1   S    
N1    Zn2   S    
C16   O7    A    
C15   Cl2   S    
H2    N2    S    
N2    Zn1   S    
C3    C5    A    
C17   O6    A    
