data_mof_unit_22722.cif
_audit_creation_date              2012-12-11T14:51:39-0500
_audit_creation_method            fapswitch 2.2
_symmetry_space_group_name_H-M    P1
_symmetry_Int_Tables_number       1
_space_group_crystal_system       triclinic
_cell_length_a                    6.951157
_cell_length_b                    16.815545
_cell_length_c                    16.78549
_cell_angle_alpha                 101.170382
_cell_angle_beta                  90.080846
_cell_angle_gamma                 91.323126
_cell_volume                      1924.29648874

loop_
_atom_site_label
_atom_site_type_symbol
_atom_type_description
_atom_site_fract_x
_atom_site_fract_y
_atom_site_fract_z
_atom_type_partial_charge
O1    O     O_R   0.506340 0.439070 0.579550 -0.537939
O2    O     O_R   0.170010 0.404890 0.412100 -0.533121
O3    O     O_R   0.005010 0.560930 0.420450 -0.516856
C1    C     C_R   0.337830 0.381568 0.383605 0.851061
O4    O     O_R   0.176280 0.429360 0.578400 -0.554682
O5    O     O_R   0.011320 0.585570 0.587940 -0.549868
C2    C     C_R   0.343592 0.415765 0.606800 0.709965
O6    O     O_R   0.500030 0.414430 0.412060 -0.522562
O7    O     O_3   0.340950 0.551220 0.502940 -0.375385
V1    V     V_3+5 0.064020 0.490500 0.499460 1.507422
O8    O     O_R   0.681910 0.595110 0.587900 -0.548839
C3    C     C_R   0.852246 0.617339 0.617242 0.738929
O9    O     O_R   0.675640 0.570640 0.421600 -0.540783
C4    C     C_R   0.845944 0.586213 0.394868 0.804599
V2    V     V_3+5 0.564670 0.509500 0.500540 1.502563
O10   O     O_3   0.837610 0.448780 0.497060 -0.364975
C5    C     C_R   0.904226 0.865192 0.170542 -0.333568
C6    C     C_R   0.864017 0.635910 0.330994 -0.280785
C7    C     C_R   0.993143 0.653457 0.200131 0.691229
C8    C     C_R   0.963376 0.605739 0.259032 0.518835
C9    C     C_R   0.799119 0.715847 0.344264 -0.194343
C10   C     C_R   0.835711 0.765835 0.286901 -0.166176
C11   C     C_R   0.930752 0.734162 0.213345 -0.280100
C12   C     C_R   0.961226 0.783820 0.155023 0.632140
C13   C     C_R   0.823682 0.898209 0.247044 0.113323
C14   C     C_R   0.783387 0.847570 0.303007 0.664131
H1    H     H_    0.727453 0.739868 0.400843 0.200943
C15   C     C_3   0.718936 0.788594 0.758919 0.583936
C16   C     C_3   0.847331 0.776045 0.683638 0.118986
C17   C     C_3   0.867781 0.686644 0.688325 -0.197974
C18   C     C_3   0.738247 0.698383 0.764482 -0.199009
C19   C     C_3   0.920138 0.721234 0.819329 -0.258404
C20   C     C_3   0.049789 0.708429 0.742455 -0.167553
C21   C     C_3   0.026450 0.798430 0.737316 0.635722
C22   C     C_3   0.898488 0.811228 0.813309 -0.250007
H2    H     H_    0.618018 0.657500 0.775494 0.142474
H3    H     H_    0.950146 0.699050 0.876112 0.205433
H4    H     H_    0.187790 0.675961 0.734857 0.150951
C23   C     C_3   0.525704 0.254940 0.304097 0.592132
C24   C     C_3   0.388180 0.181592 0.276940 0.171686
C25   C     C_3   0.413725 0.188949 0.187242 -0.323972
C26   C     C_3   0.545784 0.264248 0.215031 0.021531
C27   C     C_3   0.372057 0.320069 0.224045 0.467853
C28   C     C_3   0.238522 0.245191 0.197196 0.574097
C29   C     C_3   0.211290 0.236716 0.287095 -0.319454
C30   C     C_3   0.350267 0.311196 0.313527 -0.362377
H5    H     H_    0.072762 0.224668 0.315865 0.210907
C31   C     C_R   0.418049 0.138222 0.831757 -0.246948
C32   C     C_R   0.346337 0.366954 0.671697 -0.189106
C33   C     C_R   0.243854 0.341626 0.803659 0.662620
C34   C     C_R   0.248698 0.391781 0.745811 0.154036
C35   C     C_R   0.441667 0.293054 0.658189 -0.243944
C36   C     C_R   0.434473 0.241099 0.715364 -0.091132
C37   C     C_R   0.336938 0.266194 0.789931 -0.108186
C38   C     C_R   0.335165 0.215880 0.849201 0.199835
C39   C     C_R   0.503170 0.111571 0.754905 0.203063
C40   C     C_R   0.520365 0.164102 0.699022 0.308895
H6    H     H_    0.517386 0.276176 0.601432 0.155973
O11   O     O_R   0.266070 0.085680 0.087850 -0.517949
O12   O     O_R   0.590090 0.070660 0.921580 -0.549254
O13   O     O_R   0.754780 0.914400 0.912080 -0.525563
C41   C     C_R   0.422332 0.086282 0.894588 0.728580
O14   O     O_R   0.596110 0.095130 0.087880 -0.541966
O15   O     O_R   0.760850 0.939050 0.079570 -0.552797
C42   C     C_R   0.427940 0.118591 0.116530 0.753183
O16   O     O_R   0.260010 0.061030 0.920360 -0.543201
O17   O     O_3   0.425070 0.948840 0.997010 -0.357113
V3    V     V_3+5 0.702100 0.009490 0.000550 1.522156
O18   O     O_R   0.090200 0.929250 0.078500 -0.524682
C43   C     C_R   0.920319 0.914127 0.105603 0.792604
O19   O     O_R   0.084180 0.904770 0.912200 -0.512736
C44   C     C_R   0.913759 0.881825 0.883383 0.776968
V4    V     V_3+5 0.201420 0.990350 0.999580 1.596417
O20   O     O_3   0.928580 0.051150 0.002990 -0.374055
F1    F     F_    0.042519 0.753088 0.082292 -0.624066
F2    F     F_    0.176268 0.849297 0.724447 -0.674061
N1    N     N_2   0.391928 0.106153 0.305863 -0.508992
H7    H     H_    0.487466 0.065603 0.275699 0.281998
C45   C     C_3   0.395249 0.113353 0.393081 -0.479826
H8    H     H_    0.373876 0.052407 0.408326 0.209223
H9    H     H_    0.277726 0.152647 0.421438 0.182771
H10   H     H_    0.536213 0.138881 0.418247 0.231367
F3    F     F_    0.675911 0.258204 0.358869 -0.704819
N2    N     N_2   0.723817 0.283286 0.177763 -0.451714
H11   H     H_    0.711782 0.277255 0.115718 0.279119
C46   C     C_3   0.815497 0.359351 0.216224 -0.204154
H12   H     H_    0.945522 0.371310 0.181804 0.268915
H13   H     H_    0.859693 0.356930 0.279268 0.201894
H14   H     H_    0.717402 0.410641 0.217065 0.203502
F4    F     F_    0.357641 0.391777 0.195962 -0.633200
F5    F     F_    0.095851 0.238413 0.138892 -0.670681
N3    N     N_2   0.256074 0.245068 0.927405 -0.449604
H15   H     H_    0.168282 0.204406 0.949698 0.279049
C47   C     C_3   0.394136 0.286520 0.986485 -0.303605
H16   H     H_    0.500044 0.243028 0.001185 0.112196
H17   H     H_    0.317997 0.314043 0.042695 0.262726
H18   H     H_    0.470811 0.335815 0.962908 0.215170
N4    N     N_2   0.786024 0.982626 0.269412 -0.492638
H19   H     H_    0.770318 0.012688 0.222017 0.248873
C48   C     C_3   0.912286 0.027369 0.331732 -0.469541
H20   H     H_    0.873234 0.092270 0.344696 0.213965
H21   H     H_    0.063421 0.022658 0.310614 0.209922
H22   H     H_    0.899150 0.003985 0.388968 0.236876
N5    N     N_2   0.560165 0.029576 0.729891 -0.519328
H23   H     H_    0.602577 0.000519 0.775389 0.279640
C49   C     C_3   0.427141 0.980773 0.673059 -0.383363
H24   H     H_    0.473798 0.917012 0.659235 0.262043
H25   H     H_    0.422481 0.002958 0.615025 0.186659
H26   H     H_    0.280232 0.983031 0.699211 0.217635
F6    F     F_    0.141640 0.367035 0.872476 -0.626303
N6    N     N_2   0.621504 0.136519 0.625378 -0.504760
H27   H     H_    0.554881 0.145481 0.573091 0.242068
C50   C     C_3   0.825456 0.155955 0.629366 -0.495962
H28   H     H_    0.893899 0.127825 0.571296 0.188394
H29   H     H_    0.893979 0.131716 0.679297 0.207777
H30   H     H_    0.850239 0.222699 0.639556 0.191890
N7    N     N_2   0.159570 0.468559 0.765430 -0.488968
H31   H     H_    0.098725 0.489456 0.717722 0.250079
C51   C     C_3   0.274267 0.530149 0.817917 -0.401435
H32   H     H_    0.405246 0.545168 0.785505 0.140435
H33   H     H_    0.317007 0.509141 0.874061 0.256545
H34   H     H_    0.188981 0.585572 0.836018 0.197093
F7    F     F_    0.087568 0.620796 0.131195 -0.558131
F8    F     F_    0.693067 0.878634 0.373592 -0.695798
F9    F     F_    0.032685 0.529533 0.245799 -0.640709
N8    N     N_2   0.803758 0.802768 0.608735 -0.524702
H35   H     H_    0.663089 0.790675 0.589866 0.275641
C52   C     C_3   0.874643 0.882919 0.602908 -0.457321
H36   H     H_    0.809766 0.901634 0.549098 0.223844
H37   H     H_    0.033095 0.882382 0.595040 0.232487
H38   H     H_    0.837908 0.927633 0.658215 0.210814
F10   F     F_    0.548670 0.829950 0.767477 -0.644744

loop_
_geom_bond_atom_site_label_1
_geom_bond_atom_site_label_2
_ccdc_geom_bond_type
C31   C38   A    
O14   C42   A    
N8    H35   S    
C6    C9    A    
V4    O20   S    
C4    C6    S    
O2    C1    A    
N6    H27   S    
C1    O6    A    
C52   H36   S    
N5    C49   S    
C1    C30   S    
N1    H7    S    
C28   C29   S    
C7    F7    S    
C33   C37   A    
O15   V3    S    
C15   C16   S    
N2    C46   S    
N7    C51   S    
O5    C3    A    
C17   C18   S    
C46   H13   S    
C49   H24   S    
V3    O20   S    
V2    O10   S    
C33   F6    S    
C39   C40   A    
O12   C41   A    
C21   C22   S    
C25   C26   S    
C29   H5    S    
C48   H20   S    
O14   V3    S    
O8    V2    S    
C7    C8    A    
C15   C22   S    
C32   C34   A    
C11   C12   A    
O18   V4    S    
O17   V4    S    
O15   C43   A    
O7    V1    S    
O11   V4    S    
C6    C8    A    
C50   H30   S    
C51   H33   S    
C9    H1    S    
C5    C43   S    
O9    C4    A    
O18   C43   A    
C14   F8    S    
N3    C47   S    
N5    H23   S    
C20   C21   S    
C23   C26   S    
N1    C45   S    
C24   C29   S    
C5    C12   A    
C41   O16   A    
O17   V3    S    
C27   F4    S    
C19   C22   S    
C26   N2    S    
N2    H11   S    
C2    C32   S    
C23   C24   S    
C45   H9    S    
C36   C40   A    
C46   H12   S    
C25   C42   S    
C47   H18   S    
C13   C14   A    
C36   C37   A    
O16   V4    S    
C16   C21   S    
C48   H22   S    
C15   F10   S    
C7    C11   A    
C27   C28   S    
C16   C17   S    
C31   C41   S    
C18   C19   S    
O8    C3    A    
C32   C35   A    
C48   H21   S    
C33   C34   A    
N6    C50   S    
C19   H3    S    
C47   H17   S    
O3    C4    A    
C39   N5    S    
C28   F5    S    
C35   H6    S    
C23   C30   S    
O1    V2    S    
O13   C44   A    
C24   C25   S    
C38   N3    S    
C22   C44   S    
O6    V2    S    
N4    C48   S    
O9    V2    S    
C25   C28   S    
C26   C27   S    
O2    V1    S    
C52   H38   S    
C35   C36   A    
O4    C2    A    
C50   H28   S    
C51   H34   S    
C31   C39   A    
C37   C38   A    
N8    C52   S    
C17   C20   S    
C3    C17   S    
O1    C2    A    
C15   C18   S    
C46   H14   S    
C52   H37   S    
O5    V1    S    
C45   H10   S    
C51   H32   S    
C12   F1    S    
C20   H4    S    
C5    C13   A    
C19   C20   S    
O7    V2    S    
C23   F3    S    
O4    V1    S    
O3    V1    S    
V1    O10   S    
N7    H31   S    
O11   C42   A    
O13   V3    S    
C40   N6    S    
C49   H25   S    
N3    H15   S    
C34   N7    S    
C10   C11   A    
C24   N1    S    
C47   H16   S    
C27   C30   S    
C45   H8    S    
C29   C30   S    
C13   N4    S    
C8    F9    S    
O19   C44   A    
O12   V3    S    
N4    H19   S    
C10   C14   A    
O19   V4    S    
C18   H2    S    
C16   N8    S    
C9    C10   A    
C21   F2    S    
C50   H29   S    
C49   H26   S    
