data_mof_unit_19907.cif
_audit_creation_date              2012-12-11T17:25:01-0500
_audit_creation_method            fapswitch 2.2
_symmetry_space_group_name_H-M    P1
_symmetry_Int_Tables_number       1
_space_group_crystal_system       triclinic
_cell_length_a                    6.954453
_cell_length_b                    20.53645
_cell_length_c                    24.499878
_cell_angle_alpha                 90.087726
_cell_angle_beta                  90.427122
_cell_angle_gamma                 89.462717
_cell_volume                      3498.81229516

loop_
_atom_site_label
_atom_site_type_symbol
_atom_type_description
_atom_site_fract_x
_atom_site_fract_y
_atom_site_fract_z
_atom_type_partial_charge
O1    O     O_R   0.507280 0.423750 0.460310 -0.535967
O2    O     O_R   0.171030 0.555650 0.437630 -0.536649
O3    O     O_R   0.004080 0.576250 0.539690 -0.536342
C1    C     C_R   0.339089 0.575690 0.421814 0.724143
O4    O     O_R   0.177330 0.422980 0.453960 -0.537751
O5    O     O_R   0.010420 0.442640 0.556140 -0.534573
C2    C     C_R   0.346248 0.399012 0.443396 0.695569
O6    O     O_R   0.500930 0.557360 0.443860 -0.534870
O7    O     O_3   0.340310 0.506600 0.533500 -0.366911
V1    V     V_3+5 0.064140 0.498780 0.493780 1.423856
O8    O     O_R   0.680890 0.444350 0.562370 -0.537772
C3    C     C_R   0.850608 0.424486 0.578168 0.725932
O9    O     O_R   0.674590 0.577020 0.546040 -0.537885
C4    C     C_R   0.842640 0.600910 0.556734 0.694258
V2    V     V_3+5 0.564550 0.501220 0.506220 1.423241
O10   O     O_3   0.838250 0.493400 0.466500 -0.366492
C5    C     C_R   0.976775 0.837833 0.911578 -0.042983
C6    C     C_R   0.847140 0.661239 0.589420 -0.042491
C7    C     C_R   0.046097 0.722670 0.907213 -0.169775
C8    C     C_R   0.034398 0.780275 0.936841 -0.159365
C9    C     C_R   0.930788 0.837512 0.855727 -0.198028
C10   C     C_R   0.944226 0.779375 0.823772 0.066911
C11   C     C_R   0.003599 0.720843 0.850628 0.073963
C12   C     C_R   0.903249 0.777961 0.766224 0.055870
C13   C     C_R   0.922932 0.718406 0.736158 0.009156
C14   C     C_R   0.981974 0.661998 0.764544 -0.187923
C15   C     C_R   0.021707 0.661807 0.820836 0.113577
C16   C     C_R   0.843288 0.834388 0.737613 -0.175238
C17   C     C_R   0.804306 0.833019 0.682042 -0.203112
C18   C     C_R   0.821970 0.775544 0.652240 0.143448
C19   C     C_R   0.881932 0.717060 0.678361 0.098088
C20   C     C_R   0.777123 0.776349 0.596283 -0.164204
C21   C     C_R   0.787866 0.719618 0.565352 -0.168252
C22   C     C_R   0.895134 0.659837 0.645291 -0.217404
H1    H     H_    0.936980 0.613024 0.661371 0.091359
H2    H     H_    0.748383 0.721131 0.522500 0.107140
H3    H     H_    0.758204 0.877717 0.662163 0.121815
H4    H     H_    0.091875 0.679866 0.929542 0.108017
H5    H     H_    0.072264 0.780011 0.979836 0.103510
H6    H     H_    0.890237 0.883887 0.838574 0.090887
H7    H     H_    0.998416 0.617057 0.743023 0.141100
H8    H     H_    0.823605 0.881040 0.756853 0.121238
H9    H     H_    0.730578 0.821015 0.576478 0.113463
H10   H     H_    0.645934 0.236943 0.813824 0.122026
C23   C     C_R   0.749129 0.286342 0.742585 -0.207064
H11   H     H_    0.618456 0.315037 0.738114 0.122582
C24   C     C_R   0.900147 0.293928 0.705469 0.118144
C25   C     C_R   0.070280 0.256057 0.712338 0.149944
C26   C     C_R   0.084602 0.211829 0.756372 -0.191312
H12   H     H_    0.214348 0.182844 0.761917 0.117080
C27   C     C_R   0.932582 0.204425 0.793119 0.110119
C28   C     C_R   0.764865 0.241913 0.785870 -0.163550
C29   C     C_1   0.878530 0.340786 0.661038 -0.052345
C30   C     C_1   0.948850 0.158576 0.838299 -0.049388
C31   C     C_1   0.961297 0.120518 0.876184 -0.194616
C32   C     C_1   0.863553 0.379268 0.623552 -0.197871
H13   H     H_    0.673379 0.734232 0.320382 0.115563
C33   C     C_R   0.588145 0.786596 0.247204 0.147364
C34   C     C_R   0.440941 0.795923 0.207521 0.117250
C35   C     C_R   0.270680 0.759999 0.211989 -0.200154
H14   H     H_    0.156580 0.766289 0.182066 0.121762
C36   C     C_R   0.245408 0.715577 0.254858 -0.173260
H15   H     H_    0.112470 0.688682 0.257238 0.121013
C37   C     C_R   0.390254 0.705926 0.294201 0.111763
C38   C     C_R   0.561079 0.741477 0.290011 -0.189201
C39   C     C_1   0.461389 0.841498 0.162012 -0.053309
C40   C     C_1   0.365132 0.659570 0.338766 -0.048883
C41   C     C_1   0.349171 0.621145 0.376314 -0.195425
C42   C     C_1   0.475434 0.879412 0.124046 -0.197964
C43   C     C_R   0.472319 0.161453 0.089230 -0.041965
C44   C     C_R   0.352692 0.338367 0.411187 -0.042156
C45   C     C_R   0.530615 0.277080 0.094859 -0.161999
C46   C     C_R   0.522727 0.219905 0.064444 -0.167720
C47   C     C_R   0.430416 0.160411 0.145314 -0.214927
C48   C     C_R   0.440763 0.218082 0.177699 0.086700
C49   C     C_R   0.491493 0.276686 0.150977 0.139782
C50   C     C_R   0.405187 0.219702 0.235442 0.058075
C51   C     C_R   0.420787 0.279918 0.265104 0.057910
C52   C     C_R   0.471098 0.336443 0.236028 -0.187142
C53   C     C_R   0.505216 0.334670 0.180313 -0.201779
C54   C     C_R   0.355204 0.163160 0.264548 -0.187122
C55   C     C_R   0.321111 0.164955 0.320281 -0.201770
C56   C     C_R   0.334460 0.222984 0.349591 0.139834
C57   C     C_R   0.384982 0.281576 0.322827 0.086717
C58   C     C_R   0.295197 0.222669 0.405717 -0.161728
C59   C     C_R   0.302627 0.279923 0.436067 -0.169637
C60   C     C_R   0.394815 0.339307 0.355133 -0.214694
H16   H     H_    0.544035 0.379444 0.159927 0.122644
H17   H     H_    0.430007 0.385968 0.338082 0.093833
H18   H     H_    0.267975 0.278741 0.479108 0.107152
H19   H     H_    0.282550 0.120173 0.340696 0.122624
H20   H     H_    0.570110 0.321781 0.074507 0.112880
H21   H     H_    0.557304 0.221149 0.021406 0.106624
H22   H     H_    0.394884 0.113754 0.162323 0.093484
H23   H     H_    0.486140 0.383340 0.255156 0.123462
H24   H     H_    0.340550 0.116240 0.245425 0.122791
H25   H     H_    0.255930 0.177977 0.426120 0.113393
O11   O     O_R   0.323320 0.942780 0.056240 -0.535125
O12   O     O_R   0.647300 0.077050 0.046060 -0.537742
O13   O     O_R   0.813840 0.057330 0.943840 -0.534861
C61   C     C_R   0.478452 0.100922 0.056861 0.694855
O14   O     O_R   0.653250 0.944380 0.062400 -0.536500
O15   O     O_R   0.819830 0.923720 0.960300 -0.536390
C62   C     C_R   0.485181 0.924463 0.078288 0.724153
O16   O     O_R   0.317330 0.076390 0.039790 -0.536243
O17   O     O_3   0.483830 0.993470 0.966560 -0.366760
V3    V     V_3+5 0.760140 0.001210 0.006210 1.423967
O18   O     O_R   0.149290 0.922840 0.953850 -0.538011
C63   C     C_R   0.981143 0.898986 0.943209 0.690250
O19   O     O_R   0.143340 0.055500 0.937510 -0.537434
C64   C     C_R   0.973679 0.075487 0.921774 0.725365
V4    V     V_3+5 0.259690 0.998600 0.993650 1.424470
O20   O     O_3   0.986130 0.006520 0.033440 -0.366219
C65   C     C_3   0.085065 0.599054 0.849926 -0.349046
C66   C     C_3   0.099546 0.537171 0.815181 -0.774115
H26   H     H_    0.957555 0.525205 0.796879 0.226305
H27   H     H_    0.208954 0.542876 0.782771 0.226287
H28   H     H_    0.145094 0.495738 0.841490 0.220529
H29   H     H_    0.229137 0.606926 0.868618 0.180833
H30   H     H_    0.981408 0.588947 0.883108 0.177718
C67   C     C_3   0.238361 0.262345 0.673862 -0.367191
C68   C     C_3   0.199973 0.227459 0.619850 -0.741562
H31   H     H_    0.173393 0.174954 0.627203 0.226563
H32   H     H_    0.073754 0.249111 0.598382 0.226995
H33   H     H_    0.327299 0.231993 0.593080 0.212324
H34   H     H_    0.268795 0.314565 0.666257 0.181985
H35   H     H_    0.370643 0.240802 0.692419 0.179786
C69   C     C_3   0.774733 0.823679 0.244672 -0.369146
C70   C     C_3   0.749130 0.893288 0.265471 -0.734585
H36   H     H_    0.643818 0.920582 0.239823 0.226908
H37   H     H_    0.698463 0.892953 0.308366 0.224362
H38   H     H_    0.889093 0.918785 0.264003 0.216551
H39   H     H_    0.887155 0.799282 0.270060 0.182039
H40   H     H_    0.829013 0.824264 0.202138 0.180598

loop_
_geom_bond_atom_site_label_1
_geom_bond_atom_site_label_2
_ccdc_geom_bond_type
C13   C19   A    
C18   C20   A    
C33   C69   S    
C4    C6    S    
O2    C1    A    
C7    C8    A    
C57   C60   A    
C46   H21   S    
C1    O6    A    
C69   C70   S    
C21   H2    S    
C65   C66   S    
C43   C61   S    
O17   V4    S    
C23   H11   S    
C14   C15   A    
C36   H15   S    
C16   C17   A    
C67   H35   S    
C34   C39   S    
O5    C3    A    
C18   C19   A    
C45   H20   S    
C29   C32   T    
C39   C42   T    
O17   V3    S    
V2    O10   S    
C5    C8    A    
O18   C63   A    
C35   C36   A    
C22   H1    S    
C47   H22   S    
O19   C64   A    
V3    O20   S    
C36   C37   A    
O8    V2    S    
C24   C25   A    
C58   C59   A    
C66   H27   S    
C43   C47   A    
O1    V2    S    
C11   C15   A    
O7    V1    S    
C65   H29   S    
C45   C49   A    
C24   C29   S    
C70   H38   S    
H10   C28   S    
C34   C35   A    
O9    C4    A    
O4    V1    S    
V4    O20   S    
C54   C55   A    
C23   C24   A    
C61   O16   A    
O11   V4    S    
C47   C48   A    
C40   C41   T    
C37   C40   S    
C49   C53   A    
C12   C13   A    
C59   H18   S    
C25   C67   S    
C1    C41   S    
C8    H5    S    
C51   C52   A    
C23   C28   A    
C26   C27   A    
C13   C14   A    
C50   C51   A    
C5    C9    A    
C55   H19   S    
O18   V4    S    
C35   H14   S    
C7    C11   A    
C48   C49   A    
C52   H23   S    
C17   C18   A    
C7    H4    S    
C69   H40   S    
C44   C59   A    
C48   C50   A    
C33   C38   A    
C56   C57   A    
C50   C54   A    
C66   H28   S    
C43   C46   A    
C19   C22   A    
O14   V3    S    
O14   C62   A    
C6    C22   A    
C67   C68   S    
C3    C32   S    
O3    C4    A    
C44   C60   A    
C25   C26   A    
C56   C58   A    
O16   V4    S    
C55   C56   A    
O6    V2    S    
C60   H17   S    
C10   C12   A    
C68   H32   S    
O2    V1    S    
O4    C2    A    
C70   H36   S    
C42   C62   S    
C54   H24   S    
C30   C31   T    
O13   V3    S    
C31   C64   S    
O1    C2    A    
C12   C16   A    
H13   C38   S    
C45   C46   A    
C5    C63   S    
O5    V1    S    
O8    C3    A    
O12   V3    S    
O15   C63   A    
C27   C30   S    
C20   C21   A    
C68   H33   S    
O9    V2    S    
C33   C34   A    
C27   C28   A    
C53   H16   S    
O3    V1    S    
V1    O10   S    
C69   H39   S    
C37   C38   A    
C2    C44   S    
C9    H6    S    
O11   C62   A    
C16   H8    S    
C20   H9    S    
O7    V2    S    
C6    C21   A    
O19   V4    S    
C58   H25   S    
C52   C53   A    
C15   C65   S    
C51   C57   A    
C67   H34   S    
O13   C64   A    
C26   H12   S    
C17   H3    S    
C10   C11   A    
O15   V3    S    
C68   H31   S    
C9    C10   A    
O12   C61   A    
C65   H30   S    
C66   H26   S    
C14   H7    S    
C70   H37   S    
