data_mof_unit_54768.cif
_audit_creation_date              2012-12-11T17:01:28-0500
_audit_creation_method            fapswitch 2.2
_symmetry_space_group_name_H-M    P1
_symmetry_Int_Tables_number       1
_space_group_crystal_system       triclinic
_cell_length_a                    15.089722
_cell_length_b                    14.819323
_cell_length_c                    14.849856
_cell_angle_alpha                 109.677719
_cell_angle_beta                  109.340789
_cell_angle_gamma                 109.487937
_cell_volume                      2553.34105866

loop_
_atom_site_label
_atom_site_type_symbol
_atom_type_description
_atom_site_fract_x
_atom_site_fract_y
_atom_site_fract_z
_atom_type_partial_charge
C1    C     C_R   0.930128 0.744441 0.022696 -0.148543
C2    C     C_R   0.210689 0.805769 0.301341 -0.143565
C3    C     C_R   0.973063 0.408231 0.223830 -0.125718
C4    C     C_R   0.779530 0.253693 0.685567 -0.148703
C5    C     C_R   0.314890 0.593314 0.058166 -0.143892
C6    C     C_R   0.050772 0.501670 0.327128 0.071531
C7    C     C_R   0.326952 0.500808 0.031869 -0.067595
C8    C     C_R   0.303662 0.868095 0.302532 0.079950
C9    C     C_R   0.930351 0.129186 0.931610 0.067261
C10   C     C_3   0.543606 0.415616 0.088590 -0.421606
C11   C     C_3   0.442296 0.420283 0.084051 -0.420983
C12   C     C_R   0.676866 0.224299 0.672843 0.072652
C13   C     C_3   0.634961 0.620103 0.156405 -0.410260
C14   C     C_3   0.538323 0.483963 0.952174 -0.445417
C15   C     C_3   0.607715 0.505942 0.069034 0.382951
C16   C     C_R   0.096751 0.592057 0.793033 -0.155440
C17   C     C_3   0.429928 0.504699 0.047999 0.337863
C18   C     C_3   0.529792 0.620876 0.140973 -0.397970
C19   C     C_3   0.430521 0.476353 0.936764 -0.088632
C20   C     C_R   0.574574 0.121125 0.467846 0.162604
C21   C     C_R   0.576439 0.168053 0.568040 0.032601
C22   C     C_R   0.476245 0.140870 0.565007 -0.200723
C23   C     C_R   0.067281 0.501135 0.698664 0.082001
C24   C     C_R   0.380817 0.048393 0.471118 -0.202855
C25   C     C_R   0.385915 0.984659 0.380205 0.032077
C26   C     C_R   0.480415 0.030883 0.375087 0.160002
C27   C     C_3   0.540566 0.979113 0.337063 -0.524249
C28   C     C_R   0.702744 0.410075 0.007841 -0.151796
C29   C     C_3   0.643433 0.077292 0.438696 -0.519053
C30   C     C_R   0.156945 0.604933 0.532467 0.164403
C31   C     C_R   0.100064 0.505161 0.432081 0.031093
C32   C     C_R   0.073960 0.406442 0.435802 -0.201954
C33   C     C_R   0.077036 0.405836 0.530877 -0.201791
C34   C     C_R   0.704249 0.503422 0.072144 0.017540
C35   C     C_R   0.107228 0.504196 0.621949 0.035966
C36   C     C_R   0.160937 0.604350 0.626398 0.172213
C37   C     C_3   0.153515 0.707326 0.666134 -0.526886
C38   C     C_3   0.148402 0.707781 0.563352 -0.523952
C39   C     C_R   0.839682 0.870554 0.942809 0.164752
C40   C     C_R   0.004776 0.408778 0.699285 -0.143577
C41   C     C_R   0.896887 0.828291 0.901303 0.030940
C42   C     C_R   0.922479 0.858499 0.829136 -0.199860
C43   C     C_R   0.918801 0.950319 0.825124 -0.201901
C44   C     C_R   0.888772 0.010966 0.892759 0.029676
C45   C     C_R   0.067494 0.593080 0.314242 -0.147512
C46   C     C_R   0.835338 0.960522 0.938132 0.166369
C47   C     C_3   0.842338 0.007597 0.048264 -0.522450
C48   C     C_3   0.847647 0.909888 0.053910 -0.525305
C49   C     C_R   0.795253 0.593611 0.100036 -0.160331
C50   C     C_R   0.686376 0.249693 0.775935 -0.125908
C51   C     C_R   0.024866 0.749796 0.934199 -0.124099
C52   C     C_R   0.946885 0.773911 0.948296 0.073057
C53   C     C_1   0.197299 0.298080 0.884139 -0.055903
C54   C     C_1   0.409487 0.547512 0.892596 0.049647
C55   C     C_R   0.223972 0.407418 0.958650 0.096509
C56   C     C_R   0.298946 0.803367 0.207675 -0.153506
C57   C     C_R   0.903588 0.195234 0.994444 -0.158138
C58   C     C_R   0.991907 0.192273 0.901586 -0.115230
H1    H     H_    0.871278 0.745566 0.047869 0.109396
H2    H     H_    0.371734 0.335487 0.027515 0.171335
H3    H     H_    0.803024 0.250293 0.624047 0.111289
H4    H     H_    0.449343 0.445532 0.166824 0.169955
H5    H     H_    0.683554 0.637029 0.241179 0.160065
H6    H     H_    0.528948 0.644187 0.220087 0.159226
H7    H     H_    0.585096 0.550990 0.940414 0.167185
H8    H     H_    0.521224 0.404867 0.887238 0.146365
H9    H     H_    0.366015 0.389909 0.872655 0.122348
H10   H     H_    0.682774 0.688418 0.147201 0.149019
H11   H     H_    0.528804 0.685612 0.119417 0.156655
H12   H     H_    0.345630 0.831078 0.171305 0.100729
H13   H     H_    0.472599 0.180898 0.638441 0.125345
H14   H     H_    0.160798 0.675822 0.830030 0.104135
H15   H     H_    0.307270 0.020409 0.475652 0.125980
H16   H     H_    0.523006 0.900371 0.337905 0.200467
H17   H     H_    0.535188 0.975858 0.259423 0.188710
H18   H     H_    0.683676 0.053645 0.496912 0.200690
H19   H     H_    0.697344 0.130072 0.419406 0.190811
H20   H     H_    0.037701 0.327925 0.362231 0.127432
H21   H     H_    0.042882 0.326857 0.526841 0.126833
H22   H     H_    0.076997 0.693427 0.667633 0.197936
H23   H     H_    0.840055 0.167905 0.013690 0.103039
H24   H     H_    0.229125 0.778196 0.742826 0.192450
H25   H     H_    0.068674 0.693837 0.507370 0.199291
H26   H     H_    0.645921 0.324709 0.976513 0.086619
H27   H     H_    0.220721 0.779340 0.580925 0.193381
H28   H     H_    0.958907 0.822006 0.787772 0.127193
H29   H     H_    0.952854 0.980874 0.780927 0.130230
H30   H     H_    0.918740 0.087184 0.112616 0.199143
H31   H     H_    0.766572 0.007027 0.041722 0.190095
H32   H     H_    0.927284 0.935380 0.121505 0.200721
H33   H     H_    0.775208 0.853361 0.051282 0.190032
H34   H     H_    0.004962 0.159075 0.833882 0.108575
H35   H     H_    0.981696 0.324197 0.647242 0.088751
H36   H     H_    0.828305 0.679506 0.158332 0.089088
H37   H     H_    0.622976 0.238636 0.796812 0.090991
H38   H     H_    0.056407 0.760836 0.880863 0.093214
H39   H     H_    0.125612 0.678663 0.375145 0.111505
H40   H     H_    0.180468 0.836328 0.354341 0.086263
H41   H     H_    0.940892 0.322535 0.202569 0.092618
H42   H     H_    0.376592 0.679645 0.106890 0.102722
H43   H     H_    0.595409 0.428121 0.170200 0.162680
H44   H     H_    0.517606 0.331868 0.024187 0.154911
N1    N     N_R   0.995640 0.706130 0.053910 -0.040110
N2    N     N_R   0.054010 0.556790 0.847890 -0.038475
N3    N     N_R   0.789940 0.443190 0.997130 -0.032878
N4    N     N_R   0.997630 0.443170 0.791110 -0.039664
N5    N     N_R   0.846320 0.556810 0.053910 -0.032970
N6    N     N_R   0.791080 0.293860 0.847890 -0.040523
N7    N     N_R   0.052880 0.706130 0.997130 -0.040223
N8    N     N_R   0.002370 0.556830 0.208890 -0.039101
N9    N     N_1   0.177585 0.211058 0.824089 -0.109808
N10   N     N_1   0.392819 0.602991 0.858021 -0.096232
N11   N     N_R   0.153680 0.443190 0.946090 -0.055944
N12   N     N_R   0.208920 0.706140 0.152110 -0.037128
N13   N     N_R   0.947120 0.293870 0.002870 -0.040010
N14   N     N_R   0.004360 0.293870 0.946090 -0.043881
N15   N     N_R   0.151690 0.706140 0.208890 -0.038647
N16   N     N_R   0.945990 0.443210 0.152110 -0.038795
N17   N     N_R   0.210060 0.556810 0.002870 -0.044652
N18   N     N_R   0.848310 0.293860 0.791110 -0.041774
Ni1   Ni    Ni4+2 0.999010 0.630300 0.130220 0.207133
Ni2   Ni    Ni4+2 0.000990 0.369700 0.869780 0.214804
Ni3   Ni    Ni4+2 0.130280 0.630280 0.000000 0.207529
Ni4   Ni    Ni4+2 0.869720 0.369720 0.000000 0.207566

loop_
_geom_bond_atom_site_label_1
_geom_bond_atom_site_label_2
_ccdc_geom_bond_type
C58   N14   A    
C6    C45   A    
C38   H25   S    
C28   H26   S    
C29   H19   S    
C41   C42   A    
N6    N18   A    
C35   C36   A    
C16   H14   S    
C7    C55   A    
C40   H35   S    
C11   H4    S    
C8    C56   A    
N2    N4    A    
C39   C41   A    
N2    Ni3   S    
N3    N5    A    
C26   C27   S    
N14   Ni2   S    
C13   C18   S    
C5    N17   A    
C36   C37   S    
C10   C15   S    
C1    H1    S    
N8    Ni1   S    
C30   C31   A    
C24   H15   S    
C27   C29   S    
C23   C40   A    
C30   C38   S    
C9    C58   A    
N15   Ni1   S    
C17   C19   S    
N11   N17   A    
C16   N2    A    
N11   Ni2   S    
C31   C32   A    
C44   C46   A    
C7    C17   S    
C48   H33   S    
C19   H9    S    
C42   H28   S    
C49   H36   S    
C4    C12   A    
C27   H16   S    
C1    N1    A    
C15   C34   S    
C9    C57   A    
C51   H38   S    
C53   N9    T    
C18   H11   S    
C6    C31   S    
C28   C34   A    
C51   N7    A    
C48   H32   S    
C21   C22   A    
C50   N6    A    
C8    C25   S    
C47   H31   S    
N8    N16   A    
N6    Ni4   S    
C27   H17   S    
C2    N15   A    
N18   Ni2   S    
C20   C29   S    
C53   C55   S    
C37   H22   S    
C38   H27   S    
C51   C52   A    
C10   H44   S    
C24   C25   A    
C57   N13   A    
C5    C7    A    
C45   N8    A    
N7    Ni3   S    
C55   N11   A    
C25   C26   A    
C49   N5    A    
C4    H3    S    
N3    Ni4   S    
C43   C44   A    
C37   C38   S    
C3    N16   A    
C47   C48   S    
C13   H5    S    
C5    H42   S    
C28   N3    A    
N4    Ni2   S    
C17   C18   S    
C14   H8    S    
C54   N10   T    
N16   Ni4   S    
C9    C44   S    
C39   C46   A    
N12   Ni3   S    
C19   C54   S    
C16   C23   A    
C56   H12   S    
C13   C15   S    
C22   C24   A    
C37   H24   S    
C42   C43   A    
N5    Ni1   S    
C11   H2    S    
N1    Ni1   S    
C22   H13   S    
C40   N4    A    
C46   C47   S    
C11   C17   S    
C34   C49   A    
N13   Ni4   S    
C41   C52   S    
C14   C19   S    
C10   H43   S    
C2    C8    A    
C33   H21   S    
C12   C50   A    
N17   Ni3   S    
C23   C35   S    
C30   C36   A    
N1    N7    A    
C43   H29   S    
C47   H30   S    
C45   H39   S    
C32   C33   A    
C18   H6    S    
C20   C26   A    
C12   C21   S    
C33   C35   A    
C14   H7    S    
C57   H23   S    
C50   H37   S    
C1    C52   A    
N12   N15   A    
C10   C11   S    
C32   H20   S    
C3    H41   S    
C29   H18   S    
C20   C21   A    
C2    H40   S    
C3    C6    A    
C56   N12   A    
C14   C15   S    
C4    N18   A    
C58   H34   S    
N13   N14   A    
C39   C48   S    
C13   H10   S    
