data_mof_unit_10106.cif
_audit_creation_date              2013-03-05T15:53:04-0500
_audit_creation_method            fapswitch 2.2
_symmetry_space_group_name_H-M    P1
_symmetry_Int_Tables_number       1
_space_group_crystal_system       triclinic
_cell_length_a                    19.991683
_cell_length_b                    17.035245
_cell_length_c                    15.5871
_cell_angle_alpha                 90.015766
_cell_angle_beta                  52.523018
_cell_angle_gamma                 89.787311
_cell_volume                      4212.6786683

loop_
_atom_site_label
_atom_site_type_symbol
_atom_site_description
_atom_site_fract_x
_atom_site_fract_y
_atom_site_fract_z
_atom_type_partial_charge
C1    C     C_R   0.836429 0.667042 0.057665 0.762557
C2    C     C_R   0.153815 0.678709 0.963665 0.761413
C3    C     C_R   0.336426 0.167034 0.057705 0.762226
C4    C     C_R   0.653880 0.178657 0.963559 0.761286
N1    N     N_R   0.908660 0.628630 0.995840 -0.143968
N2    N     N_R   0.091340 0.628630 0.004160 -0.160283
N3    N     N_R   0.408660 0.128630 0.995840 -0.143842
N4    N     N_R   0.591340 0.128630 0.004160 -0.160214
C5    C     C_R   0.847644 0.333899 0.217346 -0.038286
C6    C     C_R   0.153733 0.335364 0.782052 -0.047818
C7    C     C_R   0.347645 0.833899 0.217350 -0.038335
C8    C     C_R   0.653745 0.835383 0.782066 -0.047726
H1    H     H_    0.821761 0.292312 0.193041 0.223581
H2    H     H_    0.181723 0.295290 0.804898 0.202954
H3    H     H_    0.321757 0.792314 0.193050 0.223660
H4    H     H_    0.681741 0.795332 0.804935 0.202901
N5    N     N_R   0.922310 0.368460 0.151950 -0.073794
N6    N     N_R   0.077690 0.368460 0.848050 -0.073812
N7    N     N_R   0.422310 0.868460 0.151950 -0.073937
N8    N     N_R   0.577690 0.868460 0.848050 -0.073759
C9    C     C_R   0.873393 0.384036 0.890188 0.851252
C10   C     C_R   0.134899 0.386041 0.100149 0.839397
C11   C     C_R   0.373364 0.884048 0.890219 0.851130
C12   C     C_R   0.634467 0.885927 0.100664 0.839672
N9    N     N_R   0.903470 0.421430 0.936420 -0.182539
N10   N     N_R   0.096530 0.421430 0.063580 -0.178060
N11   N     N_R   0.403470 0.921430 0.936420 -0.182530
N12   N     N_R   0.596530 0.921430 0.063580 -0.178210
C13   C     C_R   0.911909 0.610090 0.298301 0.794810
C14   C     C_R   0.088537 0.610267 0.701660 0.801143
C15   C     C_R   0.411913 0.110092 0.298295 0.794971
C16   C     C_R   0.588538 0.110267 0.701660 0.801241
N13   N     N_R   0.927500 0.575670 0.211370 -0.184697
N14   N     N_R   0.072500 0.575670 0.788630 -0.181562
N15   N     N_R   0.427500 0.075670 0.211370 -0.184685
N16   N     N_R   0.572500 0.075670 0.788630 -0.181605
C17   C     C_R   0.883656 0.296928 0.986310 0.433117
C18   C     C_R   0.123147 0.298010 0.006325 0.366778
C19   C     C_R   0.383640 0.796934 0.986325 0.433084
C20   C     C_R   0.622945 0.797955 0.006591 0.366668
N17   N     N_R   0.908660 0.365680 0.995820 -0.163498
N18   N     N_R   0.091340 0.365680 0.004180 -0.157947
N19   N     N_R   0.408660 0.865680 0.995820 -0.163470
N20   N     N_R   0.591340 0.865680 0.004180 -0.158131
C21   C     C_R   0.907687 0.700631 0.201955 0.579457
C22   C     C_R   0.093138 0.700645 0.798448 0.553076
C23   C     C_R   0.407677 0.200632 0.201954 0.578998
C24   C     C_R   0.593153 0.200643 0.798440 0.553131
N21   N     N_R   0.922310 0.631420 0.151980 -0.170113
N22   N     N_R   0.077690 0.631420 0.848020 -0.170362
N23   N     N_R   0.422310 0.131420 0.151980 -0.170262
N24   N     N_R   0.577690 0.131420 0.848020 -0.170447
C25   C     C_R   0.863456 0.416729 0.315632 0.471382
C26   C     C_R   0.136932 0.417303 0.684354 0.471156
C27   C     C_R   0.363459 0.916729 0.315632 0.471432
C28   C     C_R   0.636943 0.917310 0.684357 0.471120
N25   N     N_R   0.927500 0.426330 0.211360 -0.106091
N26   N     N_R   0.072500 0.426330 0.788640 -0.107869
N27   N     N_R   0.427500 0.926330 0.211360 -0.106159
N28   N     N_R   0.572500 0.926330 0.788640 -0.107860
C29   C     C_R   0.828368 0.582353 0.955581 0.458718
C30   C     C_R   0.159874 0.591780 0.066240 0.507468
C31   C     C_R   0.328340 0.082330 0.955647 0.457990
C32   C     C_R   0.660028 0.091658 0.065989 0.507392
N29   N     N_R   0.903470 0.570760 0.936440 -0.146516
N30   N     N_R   0.096530 0.570760 0.063560 -0.166833
N31   N     N_R   0.403470 0.070760 0.936440 -0.146255
N32   N     N_R   0.596530 0.070760 0.063560 -0.166641
C33   C     C_R   0.785657 0.641674 0.032799 -0.462952
C34   C     C_R   0.198665 0.656796 0.999704 -0.455644
C35   C     C_R   0.285605 0.141618 0.032933 -0.462442
C36   C     C_R   0.698816 0.156673 0.999456 -0.455595
C37   C     C_R   0.809779 0.361362 0.320770 -0.100740
C38   C     C_R   0.191524 0.362716 0.678897 -0.098167
C39   C     C_R   0.309783 0.861362 0.320773 -0.100778
C40   C     C_R   0.691540 0.862732 0.678907 -0.098239
C41   C     C_R   0.858522 0.306995 0.923455 -0.330471
C42   C     C_R   0.152602 0.309232 0.064278 -0.252868
C43   C     C_R   0.358494 0.807011 0.923488 -0.330297
C44   C     C_R   0.652064 0.809078 0.064976 -0.252314
C45   C     C_R   0.890150 0.687417 0.301401 -0.295408
C46   C     C_R   0.110773 0.687294 0.698830 -0.283674
C47   C     C_R   0.390144 0.187416 0.301397 -0.295403
C48   C     C_R   0.610780 0.187294 0.698825 -0.283618
Ni1   Ni    Ni4+2 0.000000 0.630300 0.000000 0.334387
Ni2   Ni    Ni4+2 0.500000 0.130300 0.000000 0.334457
Ni3   Ni    Ni4+2 0.000000 0.369700 0.000000 0.311291
Ni4   Ni    Ni4+2 0.500000 0.869700 0.000000 0.311170
Ni5   Ni    Ni4+2 0.988090 0.497570 0.863760 0.353384
Ni6   Ni    Ni4+2 0.011910 0.497570 0.136240 0.344691
Ni7   Ni    Ni4+2 0.488090 0.997570 0.863760 0.353499
Ni8   Ni    Ni4+2 0.511910 0.997570 0.136240 0.344780
C49   C     C_R   0.848366 0.713889 0.484877 -0.155229
C50   C     C_R   0.155319 0.712334 0.514072 -0.155500
C51   C     C_R   0.348377 0.213894 0.484862 -0.155315
C52   C     C_R   0.655301 0.212343 0.514077 -0.155445
C53   C     C_R   0.864431 0.743403 0.389134 0.005097
C54   C     C_R   0.137287 0.742791 0.610600 0.003781
C55   C     C_R   0.364430 0.243403 0.389123 0.005089
C56   C     C_R   0.637289 0.242792 0.610597 0.003948
C57   C     C_R   0.341311 0.323399 0.391191 0.525267
C58   C     C_R   0.658872 0.323059 0.609076 0.528845
C59   C     C_R   0.841322 0.823403 0.391201 0.525264
C60   C     C_R   0.158856 0.823062 0.609087 0.528754
C61   C     C_R   0.306974 0.368637 0.483879 -0.164455
C62   C     C_R   0.694105 0.367559 0.515849 -0.169140
C63   C     C_R   0.806993 0.868642 0.483887 -0.164472
C64   C     C_R   0.194108 0.867557 0.515851 -0.169239
H5    H     H_    0.292467 0.429693 0.482680 0.226097
H6    H     H_    0.707556 0.428804 0.517285 0.224666
H7    H     H_    0.792495 0.929700 0.482686 0.226088
H8    H     H_    0.207555 0.928803 0.517288 0.224666
C65   C     C_R   0.268899 0.330657 0.582473 0.091304
C66   C     C_R   0.733265 0.329011 0.417140 0.090199
C67   C     C_R   0.768913 0.830665 0.582484 0.091320
C68   C     C_R   0.233275 0.829007 0.417142 0.090244
C69   C     C_R   0.796367 0.754958 0.580901 -0.262738
C70   C     C_R   0.207383 0.752988 0.418209 -0.247345
C71   C     C_R   0.296372 0.254959 0.580886 -0.262544
C72   C     C_R   0.707361 0.252995 0.418211 -0.247468
C73   C     C_3   0.752069 0.683207 0.647524 0.801823
C74   C     C_3   0.253777 0.681216 0.352103 0.804677
C75   C     C_3   0.252101 0.183201 0.647510 0.801761
C76   C     C_3   0.753735 0.181220 0.352098 0.804633
C77   C     C_3   0.810438 0.637243 0.544084 1.285608
C78   C     C_3   0.195253 0.635573 0.455320 1.265848
C79   C     C_3   0.310474 0.137243 0.544066 1.285622
C80   C     C_3   0.695217 0.135579 0.455319 1.265845
C81   C     C_2   0.753494 0.209654 0.999854 0.742121
C82   C     C_2   0.213517 0.186669 0.061780 0.850108
C83   C     C_2   0.253331 0.709807 0.000070 0.742073
C84   C     C_2   0.713416 0.686564 0.061863 0.849510
C85   C     C_2   0.314661 0.747882 0.910012 0.385725
C86   C     C_2   0.721310 0.764285 0.043659 0.291646
C87   C     C_2   0.814771 0.247830 0.909868 0.385802
C88   C     C_2   0.221778 0.264280 0.042890 0.293222
F1    F     F_    0.819845 0.727340 0.124807 -0.601565
F2    F     F_    0.158668 0.748221 0.917950 -0.578004
F3    F     F_    0.320007 0.227552 0.124459 -0.601327
F4    F     F_    0.658742 0.248182 0.917866 -0.578028
F5    F     F_    0.766838 0.669555 0.722285 -0.566019
F6    F     F_    0.241043 0.666141 0.275755 -0.529387
F7    F     F_    0.266890 0.169566 0.722254 -0.565946
F8    F     F_    0.740977 0.166158 0.275770 -0.529323
Cl1   Cl    Cl    0.643221 0.673653 0.702545 -0.417759
Cl2   Cl    Cl    0.362270 0.673621 0.299473 -0.398309
Cl3   Cl    Cl    0.143250 0.173611 0.702555 -0.417854
Cl4   Cl    Cl    0.862235 0.173601 0.299436 -0.398012
F9    F     F_    0.866778 0.591155 0.545957 -0.479978
F10   F     F_    0.140654 0.588479 0.451736 -0.478780
F11   F     F_    0.366832 0.091173 0.545923 -0.479918
F12   F     F_    0.640601 0.088497 0.451754 -0.478733
F13   F     F_    0.768999 0.596246 0.512315 -0.694064
F14   F     F_    0.236146 0.595760 0.489017 -0.698879
F15   F     F_    0.269033 0.096229 0.512310 -0.694097
F16   F     F_    0.736119 0.095755 0.488994 -0.698859
F17   F     F_    0.731832 0.228892 0.098869 -0.613950
F18   F     F_    0.137208 0.150727 0.117452 -0.571506
F19   F     F_    0.231672 0.729136 0.099058 -0.614134
F20   F     F_    0.637381 0.650145 0.116428 -0.570970
Cl5   Cl    Cl    0.345174 0.727657 0.779357 -0.383055
Cl6   Cl    Cl    0.819841 0.813355 0.962970 -0.449731
Cl7   Cl    Cl    0.845251 0.227746 0.779198 -0.382871
Cl8   Cl    Cl    0.320549 0.312769 0.961199 -0.450994
F21   F     F_    0.886676 0.407984 0.798141 -0.517121
F22   F     F_    0.127755 0.409412 0.188228 -0.533465
F23   F     F_    0.386612 0.908002 0.798194 -0.517089
F24   F     F_    0.626800 0.909244 0.189134 -0.533231
F25   F     F_    0.951093 0.585697 0.340109 -0.556954
F26   F     F_    0.049909 0.586681 0.658886 -0.555274
F27   F     F_    0.451117 0.085709 0.340083 -0.556866
F28   F     F_    0.549906 0.086684 0.658891 -0.555163
Cl9   Cl    Cl    0.914545 0.206601 0.007568 -0.348210
Cl10  Cl    Cl    0.100546 0.206743 0.976350 -0.317959
Cl11  Cl    Cl    0.414474 0.706592 0.007630 -0.348241
Cl12  Cl    Cl    0.600422 0.706763 0.976348 -0.317304
Cl13  Cl    Cl    0.969196 0.780827 0.121593 -0.347531
Cl14  Cl    Cl    0.028985 0.779979 0.879750 -0.324024
Cl15  Cl    Cl    0.469213 0.280818 0.121593 -0.347446
Cl16  Cl    Cl    0.529052 0.280000 0.879736 -0.323402
Cl17  Cl    Cl    0.871081 0.439124 0.419396 -0.327846
Cl18  Cl    Cl    0.128849 0.438888 0.580796 -0.323835
Cl19  Cl    Cl    0.371087 0.939129 0.419393 -0.327632
Cl20  Cl    Cl    0.628876 0.938896 0.580786 -0.323841
Cl21  Cl    Cl    0.799886 0.549038 0.875615 -0.260615
Cl22  Cl    Cl    0.171228 0.563471 0.164845 -0.191723
Cl23  Cl    Cl    0.299901 0.049119 0.875589 -0.260988
Cl24  Cl    Cl    0.671834 0.063014 0.164091 -0.192390
Cl25  Cl    Cl    0.319747 0.363992 0.306336 -0.295742
Cl26  Cl    Cl    0.676131 0.365592 0.697081 -0.296107
Cl27  Cl    Cl    0.819752 0.864001 0.306355 -0.295638
Cl28  Cl    Cl    0.176056 0.865615 0.697137 -0.296167

loop_
_geom_bond_atom_site_label_1
_geom_bond_atom_site_label_2
_geom_bond_distance
_ccdc_geom_bond_type
C14   C46   1.379081 A    
N20   Ni4   1.867405 S    
C28   C40   1.393773 A    
C27   N27   1.333053 A    
C6    C38   1.377672 A    
C22   Cl14  1.756615 S    
C60   C64   1.393366 A    
C4    N4    1.317317 A    
C71   C75   1.498781 S    
C81   F17   1.364646 S    
C15   C47   1.377290 A    
C36   C81   1.423046 S    
N30   Ni6   1.839584 S    
C73   C77   1.509108 S    
C76   Cl4   1.796322 S    
C7    N7    1.330077 A    
N32   Ni8   1.839584 S    
C84   F20   1.361231 S    
N2    Ni1   1.866316 S    
C49   C69   1.382387 A    
C52   C56   1.414602 A    
C62   C66   1.393275 A    
C1    N1    1.319587 A    
N19   Ni4   1.867905 S    
C32   N32   1.342188 A    
C31   Cl23  1.750967 S    
C61   C65   1.393006 A    
C12   F24   1.350902 S    
C73   F5    1.384738 S    
C18   N18   1.324693 A    
C24   N24   1.340098 A    
C3    N3    1.319598 A    
C26   N26   1.332516 A    
C51   C55   1.414719 A    
C18   Cl10  1.761088 S    
N3    Ni2   1.866524 S    
C50   C54   1.414595 A    
N13   N21   1.373429 A    
C60   Cl28  1.761511 S    
C13   N13   1.327119 A    
C40   C67   1.454024 S    
C44   C86   1.428762 S    
C30   C34   1.389951 A    
C70   C74   1.498254 S    
C5    H1    1.074383 S    
C25   C37   1.396617 A    
C14   F26   1.353133 S    
C23   Cl15  1.756869 S    
N22   Ni1   1.883458 S    
C79   F11   1.385406 S    
C65   C71   1.394038 A    
C7    H3    1.074367 S    
C80   F12   1.385233 S    
C8    H4    1.070455 S    
C77   F13   1.386590 S    
C67   C69   1.394040 A    
C75   F7    1.384739 S    
C20   C44   1.359538 A    
N11   Ni7   1.874170 S    
C11   N11   1.347743 A    
N8    N28   1.398865 A    
N4    Ni2   1.866316 S    
N16   N24   1.373610 A    
C21   Cl13  1.756857 S    
C30   Cl22  1.752273 S    
C27   C39   1.396596 A    
N15   Ni8   1.888612 S    
C15   F27   1.352775 S    
C32   C36   1.389925 A    
C16   F28   1.353132 S    
C47   C55   1.477818 S    
C46   C54   1.477650 S    
C26   C38   1.393748 A    
C2    N2    1.317213 A    
C5    C37   1.379362 A    
N17   Ni3   1.867905 S    
N23   Ni2   1.883329 S    
N31   Ni7   1.830629 S    
N26   Ni5   1.808602 S    
C12   C44   1.380256 A    
C29   Cl21  1.750886 S    
C50   C78   1.512571 S    
C57   C61   1.393192 A    
C16   C48   1.379096 A    
C31   N31   1.354607 A    
N14   N22   1.373610 A    
N25   Ni6   1.817421 S    
C14   N14   1.326945 A    
C48   C56   1.477666 S    
N21   Ni1   1.883329 S    
C10   C42   1.380330 A    
C19   Cl11  1.760977 S    
N7    Ni4   1.883133 S    
C6    H2    1.070397 S    
N9    N17   1.373544 A    
C20   Cl12  1.761056 S    
C30   N30   1.342148 A    
C23   N23   1.342430 A    
N9    Ni5   1.874170 S    
C28   Cl20  1.756163 S    
N7    N27   1.399049 A    
C38   C65   1.454001 S    
C17   Cl9   1.760991 S    
N12   N20   1.373724 A    
C1    C33   1.359840 A    
C37   C66   1.452772 S    
C86   Cl6   1.777295 S    
C19   C43   1.356525 A    
C74   C78   1.509539 S    
C2    F2    1.355198 S    
C3    C35   1.359910 A    
C13   C45   1.377286 A    
C51   C79   1.512583 S    
C4    F4    1.355187 S    
C52   C80   1.512569 S    
C24   C48   1.385706 A    
C75   C79   1.509101 S    
C20   N20   1.324839 A    
C81   C87   1.344054 D    
C8    N8    1.333224 A    
C4    C36   1.367358 A    
C26   Cl18  1.756163 S    
C21   N21   1.342455 A    
N12   Ni8   1.865023 S    
C27   Cl19  1.756363 S    
C53   C59   1.431411 A    
C83   F19   1.364640 S    
C63   C67   1.393007 A    
C32   Cl24  1.752354 S    
C77   F9    1.385409 S    
C68   C70   1.392768 A    
C11   F23   1.353883 S    
C78   F14   1.386637 S    
N16   Ni7   1.897867 S    
N1    N29   1.398936 A    
C55   C57   1.431406 A    
C75   Cl3   1.796940 S    
N4    N32   1.398754 A    
C23   C47   1.384117 A    
C8    C40   1.377695 A    
N15   N23   1.373429 A    
C73   Cl1   1.796937 S    
C3    F3    1.354452 S    
C74   F6    1.384170 S    
C79   F15   1.386590 S    
C49   C53   1.414724 A    
C24   Cl16  1.756588 S    
C1    F1    1.354602 S    
N10   N18   1.373724 A    
C56   C58   1.431214 A    
C62   H6    1.082007 S    
N28   Ni7   1.808602 S    
C5    N5    1.330079 A    
N11   N19   1.373544 A    
C9    N9    1.347770 A    
C78   F10   1.385233 S    
C25   N25   1.333064 A    
C88   Cl8   1.776452 S    
N5    Ni3   1.883133 S    
C63   H7    1.081960 S    
C52   C72   1.381688 A    
C82   C88   1.343376 D    
C12   N12   1.343635 A    
C31   C35   1.393445 A    
C83   C85   1.344057 D    
C85   Cl5   1.767654 S    
C22   C46   1.385688 A    
C19   N19   1.318299 A    
C16   N16   1.326948 A    
C87   Cl7   1.767646 S    
C11   C43   1.376674 A    
C25   Cl17  1.756367 S    
N18   Ni3   1.867405 S    
N29   Ni5   1.830629 S    
C69   C73   1.498776 S    
N10   Ni6   1.865023 S    
C18   C42   1.359137 A    
C22   N22   1.340110 A    
C57   Cl25  1.762274 S    
N6    Ni3   1.882990 S    
C76   C80   1.509543 S    
C82   F18   1.360705 S    
C29   C33   1.393292 A    
C64   C68   1.393274 A    
N24   Ni2   1.883458 S    
N14   Ni5   1.897867 S    
N1    Ni1   1.866524 S    
C7    C39   1.379364 A    
N13   Ni6   1.888612 S    
C28   N28   1.332525 A    
C35   C82   1.439145 S    
C50   C70   1.381675 A    
C61   H5    1.081960 S    
C6    N6    1.333214 A    
C33   C84   1.439169 S    
C54   C60   1.431216 A    
N8    Ni4   1.882990 S    
C15   N15   1.327093 A    
C34   C83   1.422960 S    
C58   Cl26  1.761517 S    
N6    N26   1.398865 A    
C58   C62   1.393364 A    
C21   C45   1.384116 A    
N27   Ni8   1.817421 S    
C74   Cl2   1.796321 S    
C29   N29   1.354596 A    
C17   N17   1.318322 A    
C43   C85   1.434239 S    
C49   C77   1.512583 S    
C51   C71   1.382365 A    
C80   F16   1.386636 S    
C9    F21   1.353861 S    
N3    N31   1.398936 A    
C10   F22   1.350698 S    
C64   H8    1.082009 S    
N2    N30   1.398754 A    
C59   Cl27  1.762266 S    
C84   C86   1.343729 D    
C10   N10   1.343720 A    
C9    C41   1.376712 A    
C45   C53   1.477856 S    
C76   F8    1.384179 S    
C59   C63   1.393206 A    
C39   C68   1.452748 S    
C41   C87   1.434414 S    
C13   F25   1.352763 S    
C2    C34   1.367266 A    
C42   C88   1.428642 S    
C66   C72   1.392779 A    
C72   C76   1.498257 S    
N5    N25   1.399049 A    
C17   C41   1.356568 A    
