data_mof_unit_58859.cif
_audit_creation_date              2012-12-10T18:04:34-0500
_audit_creation_method            fapswitch 2.2
_symmetry_space_group_name_H-M    P1
_symmetry_Int_Tables_number       1
_space_group_crystal_system       triclinic
_cell_length_a                    19.335568
_cell_length_b                    17.662191
_cell_length_c                    12.675977
_cell_angle_alpha                 89.853809
_cell_angle_beta                  100.027052
_cell_angle_gamma                 90.0573
_cell_volume                      4262.81734376

loop_
_atom_site_label
_atom_site_type_symbol
_atom_type_description
_atom_site_fract_x
_atom_site_fract_y
_atom_site_fract_z
_atom_type_partial_charge
C1    C     C_R   0.411613 0.103746 0.443845 0.965571
C2    C     C_R   0.410577 0.897559 0.443443 0.979815
C3    C     C_R   0.911613 0.603746 0.443845 0.965575
C4    C     C_R   0.910573 0.397564 0.443440 0.979872
C5    C     C_R   0.749807 0.210959 0.540936 -0.031266
C6    C     C_R   0.748494 0.785666 0.543966 -0.062645
C7    C     C_R   0.249815 0.710954 0.540951 -0.031269
C8    C     C_R   0.248494 0.285666 0.543966 -0.062644
C9    C     C_R   0.789379 0.204247 0.646304 -0.063954
C10   C     C_R   0.783706 0.784873 0.652373 -0.001884
C11   C     C_R   0.289365 0.704282 0.646343 -0.063947
C12   C     C_R   0.283708 0.284878 0.652372 -0.001884
C13   C     C_R   0.357312 0.736387 0.668360 0.303512
C14   C     C_R   0.352429 0.255010 0.676177 0.338197
C15   C     C_R   0.857332 0.236339 0.668306 0.303530
C16   C     C_R   0.852426 0.755005 0.676179 0.338195
C17   C     C_R   0.385920 0.770555 0.584270 0.342806
C18   C     C_R   0.384022 0.225168 0.592369 0.318012
C19   C     C_R   0.885923 0.270534 0.584220 0.342785
C20   C     C_R   0.884021 0.725166 0.592371 0.318014
C21   C     C_R   0.679988 0.187535 0.521551 -0.190341
C22   C     C_R   0.679910 0.812422 0.520478 -0.169872
C23   C     C_R   0.179999 0.687519 0.521542 -0.190348
C24   C     C_R   0.179909 0.312420 0.520479 -0.169871
C25   C     C_R   0.689624 0.139291 0.700834 -0.246882
C26   C     C_R   0.682594 0.848688 0.703671 -0.374614
C27   C     C_R   0.189598 0.639336 0.700857 -0.246898
C28   C     C_R   0.182598 0.348696 0.703671 -0.374611
C29   C     C_R   0.360308 0.836804 0.408297 -0.120914
C30   C     C_R   0.364656 0.168246 0.410253 -0.119264
C31   C     C_R   0.860291 0.336825 0.408284 -0.120897
C32   C     C_R   0.864657 0.668247 0.410254 -0.119261
C33   C     C_R   0.644069 0.984329 0.134432 -0.196618
C34   C     C_R   0.144069 0.484332 0.134432 -0.196626
C35   C     C_R   0.378074 0.993243 0.760110 -0.081330
C36   C     C_R   0.878074 0.493242 0.760110 -0.081310
C37   C     C_R   0.353378 0.971240 0.851735 -0.242765
C38   C     C_R   0.853378 0.471241 0.851736 -0.242778
C39   C     C_R   0.590849 0.899266 0.557709 0.913675
C40   C     C_R   0.591269 0.100149 0.557833 0.906934
C41   C     C_R   0.090849 0.399267 0.557709 0.913696
C42   C     C_R   0.091269 0.600150 0.557833 0.906940
C43   C     C_R   0.401110 0.959255 0.945910 0.564238
C44   C     C_R   0.901110 0.459257 0.945912 0.564233
C45   C     C_R   0.472695 0.981021 0.950843 -0.087348
C46   C     C_R   0.972695 0.481022 0.950843 -0.087335
C47   C     C_R   0.495851 0.993667 0.853211 0.139039
C48   C     C_R   0.995851 0.493668 0.853212 0.139048
C49   C     C_R   0.522411 0.987868 0.046395 -0.126941
C50   C     C_R   0.022411 0.487870 0.046395 -0.126938
C51   C     C_R   0.594981 0.986417 0.040753 -0.029001
C52   C     C_R   0.094981 0.486421 0.040753 -0.028992
C53   C     C_R   0.617669 0.988878 0.941891 0.421803
C54   C     C_R   0.117669 0.488885 0.941890 0.421808
C55   C     C_R   0.567550 0.996139 0.849265 -0.294688
C56   C     C_R   0.067550 0.496143 0.849265 -0.294704
C57   C     C_R   0.502753 0.000792 0.146619 0.469563
C58   C     C_R   0.002754 0.500793 0.146619 0.469544
C59   C     C_R   0.622351 0.989458 0.232136 0.452307
C60   C     C_R   0.122352 0.489459 0.232136 0.452300
C61   C     C_R   0.758309 0.166620 0.726332 0.518236
C62   C     C_R   0.749116 0.815038 0.733361 0.543218
C63   C     C_R   0.258278 0.666681 0.726376 0.518222
C64   C     C_R   0.249121 0.315047 0.733359 0.543216
C65   C     C_R   0.651830 0.147334 0.597184 -0.129960
C66   C     C_R   0.649717 0.849463 0.596589 -0.084889
C67   C     C_R   0.151826 0.647340 0.597183 -0.129959
C68   C     C_R   0.149717 0.349465 0.596590 -0.084902
C69   C     C_R   0.322181 0.838292 0.302500 0.420094
C70   C     C_R   0.334254 0.177553 0.300960 0.441302
C71   C     C_R   0.822147 0.338343 0.302501 0.420082
C72   C     C_R   0.834255 0.677555 0.300960 0.441308
C73   C     C_R   0.268045 0.786166 0.272524 -0.222298
C74   C     C_R   0.280984 0.230993 0.272735 -0.245288
C75   C     C_R   0.767993 0.286240 0.272529 -0.222296
C76   C     C_R   0.780987 0.730997 0.272736 -0.245291
C77   C     C_R   0.245994 0.740623 0.349208 -0.179415
C78   C     C_R   0.253447 0.268751 0.351517 -0.166061
C79   C     C_R   0.745947 0.240686 0.349205 -0.179413
C80   C     C_R   0.753450 0.768756 0.351517 -0.166062
C81   C     C_R   0.278857 0.744742 0.457924 0.036746
C82   C     C_R   0.280995 0.256946 0.461270 0.035743
C83   C     C_R   0.778834 0.244769 0.457911 0.036745
C84   C     C_R   0.780996 0.756948 0.461270 0.035745
C85   C     C_R   0.342584 0.784085 0.483801 -0.075576
C86   C     C_R   0.343639 0.215947 0.488694 -0.078276
C87   C     C_R   0.842571 0.284094 0.483775 -0.075577
C88   C     C_R   0.843640 0.715947 0.488695 -0.078276
H1    H     H_    0.342089 0.997554 0.684787 0.161438
H2    H     H_    0.842089 0.497553 0.684787 0.161433
N1    N     N_R   0.552340 1.000000 0.237260 -0.213295
N2    N     N_R   0.052340 0.500000 0.237260 -0.213294
N3    N     N_R   0.448170 1.000000 0.762060 -0.112599
N4    N     N_R   0.948170 0.500000 0.762060 -0.112601
O1    O     O_R   0.448200 0.076800 0.373930 -0.572693
O2    O     O_R   0.448200 0.923200 0.373930 -0.598955
O3    O     O_R   0.948200 0.576800 0.373930 -0.572687
O4    O     O_R   0.948200 0.423200 0.373930 -0.598968
O5    O     O_R   0.414750 0.076790 0.542400 -0.594328
O6    O     O_R   0.414750 0.923210 0.542400 -0.596299
O7    O     O_R   0.914750 0.576790 0.542400 -0.594336
O8    O     O_R   0.914750 0.423210 0.542400 -0.596308
O9    O     O_R   0.585240 0.923200 0.457600 -0.629388
O10   O     O_R   0.585240 0.076800 0.457600 -0.651564
O11   O     O_R   0.085240 0.423200 0.457600 -0.629381
O12   O     O_R   0.085240 0.576800 0.457600 -0.651575
O13   O     O_R   0.551780 0.923190 0.626070 -0.609068
O14   O     O_R   0.551780 0.076810 0.626070 -0.603620
O15   O     O_R   0.051780 0.423190 0.626070 -0.609072
O16   O     O_R   0.051780 0.576810 0.626070 -0.603632
Zn1   Zn    Zn3+2 0.522330 1.000000 0.387520 0.982066
Zn2   Zn    Zn3+2 0.022330 0.500000 0.387520 0.982066
Zn3   Zn    Zn3+2 0.477660 1.000000 0.612480 0.966606
Zn4   Zn    Zn3+2 0.977660 0.500000 0.612480 0.966606
H3    H     H_    0.667942 0.107063 0.760021 0.173079
H4    H     H_    0.657758 0.876356 0.763328 0.160550
H5    H     H_    0.167904 0.607129 0.760053 0.173113
H6    H     H_    0.157764 0.376368 0.763327 0.160556
O17   O     O_3   0.688762 0.988213 0.938074 -0.761074
H7    H     H_    0.695597 0.990987 0.862470 0.328486
O18   O     O_3   0.188762 0.488226 0.938073 -0.761095
H8    H     H_    0.195597 0.491011 0.862470 0.328480
H9    H     H_    0.699764 0.979340 0.132877 0.237081
H10   H     H_    0.199764 0.479345 0.132877 0.237076
O19   O     O_3   0.434661 0.019938 0.151205 -0.671080
H11   H     H_    0.425268 0.003942 0.221479 0.424986
O20   O     O_3   0.934662 0.519942 0.151205 -0.671076
H12   H     H_    0.925269 0.503945 0.221478 0.424995
O21   O     O_3   0.377975 0.916773 0.024080 -0.714647
H13   H     H_    0.418739 0.889184 0.064809 0.350179
O22   O     O_3   0.877973 0.416778 0.024084 -0.714655
H14   H     H_    0.918736 0.389189 0.064815 0.350167
H15   H     H_    0.298398 0.957290 0.847270 0.182181
H16   H     H_    0.798397 0.457292 0.847271 0.182168
H17   H     H_    0.585627 0.002131 0.774915 0.190362
H18   H     H_    0.085626 0.502134 0.774915 0.190365
O23   O     O_3   0.393099 0.738657 0.772663 -0.745735
H19   H     H_    0.425449 0.782661 0.780975 0.348647
O24   O     O_3   0.387471 0.254215 0.780934 -0.680976
H20   H     H_    0.420714 0.211044 0.790530 0.342681
O25   O     O_3   0.893142 0.238569 0.772594 -0.745725
H21   H     H_    0.925499 0.282566 0.780920 0.348664
O26   O     O_3   0.887467 0.754207 0.780938 -0.680972
H22   H     H_    0.920709 0.711035 0.790532 0.342679
O27   O     O_3   0.794389 0.150786 0.827361 -0.690231
H23   H     H_    0.839065 0.126350 0.818147 0.373506
O28   O     O_3   0.781471 0.813848 0.839564 -0.678350
H24   H     H_    0.749876 0.836860 0.884393 0.341732
O29   O     O_3   0.294334 0.650895 0.827439 -0.690252
H25   H     H_    0.339021 0.626459 0.818282 0.373519
O30   O     O_3   0.281478 0.313863 0.839561 -0.678354
H26   H     H_    0.249885 0.336877 0.884390 0.341734
H27   H     H_    0.646043 0.198340 0.445953 0.166325
H28   H     H_    0.648878 0.806860 0.441434 0.167093
H29   H     H_    0.146069 0.698301 0.445923 0.166344
H30   H     H_    0.148876 0.306856 0.441437 0.167092
O31   O     O_3   0.336630 0.892710 0.231137 -0.740250
H31   H     H_    0.300842 0.889782 0.164954 0.375941
O32   O     O_3   0.356301 0.133596 0.223333 -0.706765
H32   H     H_    0.329251 0.147195 0.151966 0.357672
O33   O     O_3   0.836596 0.392773 0.231154 -0.740258
H33   H     H_    0.800805 0.389858 0.164973 0.375931
O34   O     O_3   0.856301 0.633596 0.223334 -0.706756
H34   H     H_    0.829252 0.647196 0.151967 0.357673
H35   H     H_    0.703321 0.202186 0.321197 0.164715
H36   H     H_    0.711855 0.808604 0.324129 0.179775
H37   H     H_    0.203382 0.702104 0.321199 0.164724
H38   H     H_    0.211851 0.308599 0.324129 0.179773
H39   H     H_    0.240269 0.783608 0.190658 0.165351
H40   H     H_    0.258380 0.240986 0.189518 0.158454
H41   H     H_    0.740200 0.283708 0.190672 0.165328
H42   H     H_    0.758384 0.740991 0.189518 0.158454
O35   O     O_3   0.456942 0.786229 0.595781 -0.769259
H43   H     H_    0.482993 0.754211 0.653655 0.344688
O36   O     O_3   0.455433 0.211149 0.606819 -0.757397
H44   H     H_    0.479816 0.242183 0.666990 0.347586
O37   O     O_3   0.956943 0.286208 0.595709 -0.769288
H45   H     H_    0.983004 0.254159 0.653538 0.344681
O38   O     O_3   0.955433 0.711148 0.606822 -0.757392
H46   H     H_    0.979814 0.742178 0.666998 0.347590
O39   O     O_3   0.674180 0.982788 0.320792 -0.770219
H47   H     H_    0.657694 0.005080 0.382144 0.387906
O40   O     O_3   0.174180 0.482789 0.320791 -0.770226
H48   H     H_    0.157694 0.505080 0.382144 0.387902

loop_
_geom_bond_atom_site_label_1
_geom_bond_atom_site_label_2
_ccdc_geom_bond_type
C83   C87   A    
O31   H31   S    
C4    O4    A    
C14   C18   A    
C53   C55   A    
O34   H34   S    
C72   C76   A    
C78   H38   S    
C1    O5    A    
O33   H33   S    
N4    Zn4   S    
C82   C86   A    
C32   C72   A    
O12   Zn2   S    
O35   H43   S    
C44   O22   S    
C15   C19   A    
C18   C86   A    
C48   N4    A    
C2    C29   S    
C9    C61   A    
C28   C68   A    
C23   H29   S    
C25   H3    S    
C57   O19   S    
C12   C64   A    
C55   H17   S    
C23   C67   A    
O26   H22   S    
C6    C22   A    
C49   C57   A    
C28   H6    S    
O9    Zn1   S    
C70   O32   S    
N1    Zn1   S    
C59   O39   S    
C61   O27   S    
C63   O29   S    
C56   H18   S    
C15   O25   S    
O13   Zn3   S    
O28   H24   S    
C44   C46   A    
C49   C51   A    
C4    O8    A    
C70   C74   A    
C69   O31   S    
O30   H26   S    
C69   C73   A    
C45   C49   A    
C8    C12   A    
C30   C86   A    
C57   N1    A    
O16   Zn4   S    
C29   C85   A    
C16   C20   A    
C40   O14   A    
C21   C65   A    
C18   O36   S    
C3    O7    A    
C60   O40   S    
C45   C47   A    
C26   C62   A    
C2    O6    A    
C58   O20   S    
C33   C59   A    
C41   O15   A    
C34   C60   A    
O7    Zn4   S    
C76   H42   S    
C10   C62   A    
C21   H27   S    
C80   H36   S    
C30   C70   A    
C17   O35   S    
C38   C44   A    
O27   H23   S    
C41   C68   S    
C29   C69   A    
C35   N3    A    
O2    Zn1   S    
C46   C48   A    
C71   C75   A    
C6    C84   A    
O5    Zn3   S    
C64   O30   S    
C80   C84   A    
C26   C66   A    
C84   C88   A    
C43   O21   S    
C16   O26   S    
C31   C87   A    
O3    Zn2   S    
N2    Zn2   S    
C25   C61   A    
O39   H47   S    
C51   C53   A    
C13   O23   S    
O14   Zn3   S    
C37   C43   A    
C7    C11   A    
O40   H48   S    
C5    C9    A    
O8    Zn4   S    
C40   O10   A    
C43   C45   A    
C78   C82   A    
C50   C52   A    
O32   H32   S    
C77   C81   A    
C1    O1    A    
C47   N3    A    
C50   C58   A    
C25   C65   A    
C59   N1    A    
C79   H35   S    
C39   O9    A    
C42   O12   A    
O18   H8    S    
C41   O11   A    
O15   Zn4   S    
C24   H30   S    
C35   H1    S    
C7    C81   A    
O11   Zn2   S    
C12   C14   A    
C62   O28   S    
C75   H41   S    
C42   C67   S    
C39   C66   S    
C17   C85   A    
C77   H37   S    
C73   H39   S    
O22   H14   S    
C28   C64   A    
O24   H20   S    
C47   C55   A    
O21   H13   S    
C22   H28   S    
C27   H5    S    
C36   H2    S    
C48   C56   A    
C19   O37   S    
C34   H10   S    
C3    O3    A    
C71   O33   S    
C35   C37   A    
C34   C52   A    
C54   O18   S    
O6    Zn3   S    
C76   C80   A    
C54   C56   A    
C39   O13   A    
O10   Zn1   S    
O17   H7    S    
C53   O17   S    
C5    C83   A    
C22   C66   A    
C33   C51   A    
O23   H19   S    
C46   C50   A    
C19   C87   A    
C13   C17   A    
C20   O38   S    
C40   C65   S    
O4    Zn2   S    
C2    O2    A    
C42   O16   A    
O36   H44   S    
C10   C16   A    
O25   H21   S    
C79   C83   A    
C11   C13   A    
O19   H11   S    
C58   N2    A    
C7    C23   A    
C20   C88   A    
C36   C38   A    
C1    C30   S    
C8    C24   A    
C72   O34   S    
C52   C54   A    
N3    Zn3   S    
C37   H15   S    
C38   H16   S    
C9    C15   A    
C3    C32   S    
C26   H4    S    
C74   H40   S    
C4    C31   S    
C27   C67   A    
C6    C10   A    
C24   C68   A    
O38   H46   S    
C36   N4    A    
C8    C82   A    
C5    C21   A    
C14   O24   S    
O37   H45   S    
C74   C78   A    
C33   H9    S    
C73   C77   A    
C27   C63   A    
O1    Zn1   S    
O29   H25   S    
C11   C63   A    
C75   C79   A    
C60   N2    A    
C81   C85   A    
O20   H12   S    
C31   C71   A    
C32   C88   A    
