data_mof_unit_19631.cif
_audit_creation_date              2012-12-10T20:44:02-0500
_audit_creation_method            fapswitch 2.2
_symmetry_space_group_name_H-M    P1
_symmetry_Int_Tables_number       1
_space_group_crystal_system       triclinic
_cell_length_a                    17.427395
_cell_length_b                    10.630441
_cell_length_c                    9.866159
_cell_angle_alpha                 90.231591
_cell_angle_beta                  88.752856
_cell_angle_gamma                 89.255091
_cell_volume                      1827.2089166

loop_
_atom_site_label
_atom_site_type_symbol
_atom_type_description
_atom_site_fract_x
_atom_site_fract_y
_atom_site_fract_z
_atom_type_partial_charge
C1    C     C_R   0.500644 0.260458 0.499425 0.900605
C2    C     C_R   0.884666 0.572384 0.487600 0.136845
C3    C     C_1   0.965219 0.581557 0.478520 -0.020424
C4    C     C_1   0.033392 0.578653 0.473450 0.162628
C5    C     C_R   0.149417 0.588790 0.595274 -0.317711
C6    C     C_R   0.226264 0.560014 0.612901 0.373674
C7    C     C_R   0.268369 0.500991 0.504299 -0.378605
C8    C     C_R   0.229034 0.456523 0.388726 0.289647
C9    C     C_R   0.153054 0.498764 0.367710 0.378409
C10   C     C_R   0.114105 0.562325 0.474136 -0.116911
C11   C     C_R   0.435275 0.066837 0.545293 0.190818
C12   C     C_R   0.352795 0.497937 0.501914 0.996590
C13   C     C_R   0.499331 0.128885 0.495317 -0.072886
C14   C     C_R   0.557287 0.063310 0.423391 -0.242480
C15   C     C_R   0.557017 0.933055 0.424377 -0.210861
C16   C     C_R   0.498777 0.871735 0.497169 -0.082927
C17   C     C_R   0.434855 0.938497 0.546230 0.089961
C18   C     C_3   0.392288 0.935025 0.679161 -0.432302
C19   C     C_3   0.392578 0.077886 0.677390 -0.477181
C20   C     C_R   0.500899 0.389730 0.069888 0.300455
C21   C     C_R   0.490710 0.609083 0.072749 -0.127543
C22   C     C_R   0.491386 0.609196 0.928905 -0.036166
C23   C     C_R   0.499296 0.739738 0.500007 0.880818
C24   C     C_R   0.498596 0.389514 0.927948 0.232486
C25   C     C_3   0.554772 0.283033 0.914096 -0.535885
C26   C     C_3   0.559569 0.284637 0.068418 -0.145336
C27   C     C_R   0.646651 0.503446 0.498510 0.831967
C28   C     C_R   0.851135 0.520405 0.604046 -0.155451
C29   C     C_R   0.773008 0.496515 0.607853 -0.193843
C30   C     C_R   0.728836 0.523978 0.494503 -0.020103
C31   C     C_R   0.762926 0.578695 0.379114 -0.219129
C32   C     C_R   0.840989 0.602144 0.375403 -0.129477
H1    H     H_    0.885640 0.495941 0.690390 0.145434
H2    H     H_    0.603608 0.880737 0.374943 0.149436
H3    H     H_    0.333664 0.896952 0.668693 0.243602
H4    H     H_    0.426839 0.893642 0.761675 0.218943
H5    H     H_    0.334545 0.120620 0.665716 0.241109
H6    H     H_    0.426985 0.119498 0.758939 0.206103
H7    H     H_    0.485447 0.697384 0.126995 0.160370
H8    H     H_    0.486881 0.697579 0.875837 0.153165
H9    H     H_    0.527792 0.196340 0.875943 0.181520
H10   H     H_    0.607598 0.308377 0.856323 0.219096
H11   H     H_    0.535280 0.197931 0.114249 0.162581
H12   H     H_    0.747413 0.455453 0.698140 0.146998
H13   H     H_    0.729192 0.604720 0.292589 0.154173
H14   H     H_    0.867387 0.641478 0.284841 0.155102
H15   H     H_    0.115678 0.630837 0.677562 0.205223
H16   H     H_    0.604147 0.112202 0.373561 0.137567
N1    N     N_R   0.499490 0.499140 0.142800 -0.113519
N2    N     N_R   0.499490 0.499180 0.857150 -0.104594
O1    O     O_R   0.500010 0.316790 0.614690 -0.632730
O2    O     O_R   0.500000 0.316760 0.385350 -0.603832
O3    O     O_R   0.389120 0.500020 0.614710 -0.535014
O4    O     O_R   0.389110 0.499990 0.385370 -0.554508
O5    O     O_R   0.500000 0.683240 0.614650 -0.616739
O6    O     O_R   0.499990 0.683210 0.385310 -0.636078
O7    O     O_R   0.610890 0.500010 0.614630 -0.627838
O8    O     O_R   0.610880 0.499980 0.385290 -0.636081
Zn1   Zn    Zn3+2 0.500010 0.500020 0.653130 1.002795
Zn2   Zn    Zn3+2 0.499990 0.499980 0.346870 0.992982
C33   C     C_3   0.640269 0.312396 0.122664 -0.320883
C34   C     C_3   0.677584 0.434681 0.074119 -0.818376
H17   H     H_    0.683122 0.438918 0.962236 0.240477
H18   H     H_    0.645010 0.518323 0.111518 0.259167
H19   H     H_    0.736354 0.439322 0.114832 0.240842
H20   H     H_    0.637090 0.312690 0.234928 0.222104
H21   H     H_    0.678897 0.232636 0.092562 0.201366
S1    S     S_3+6 0.262995 0.589515 0.777005 0.070003
O9    O     O_2   0.290921 0.467705 0.836411 -0.195866
O10   O     O_2   0.328707 0.679238 0.768792 -0.353518
O11   O     O_3   0.194738 0.651145 0.881721 -0.482248
H22   H     H_    0.192029 0.741655 0.858510 0.352105
S2    S     S_3+6 0.270524 0.333129 0.286051 0.087733
O12   O     O_2   0.310992 0.389136 0.164902 -0.232640
O13   O     O_2   0.327277 0.258000 0.366146 -0.346383
O14   O     O_3   0.202642 0.234349 0.233325 -0.470172
H23   H     H_    0.229728 0.175920 0.169519 0.385590
S3    S     S_3+6 0.105349 0.475700 0.211350 0.099265
O15   O     O_2   0.161425 0.459915 0.094588 -0.140525
O16   O     O_2   0.056412 0.360675 0.222813 -0.271084
O17   O     O_3   0.048586 0.600995 0.179928 -0.568949
H24   H     H_    0.018194 0.576125 0.100713 0.377046

loop_
_geom_bond_atom_site_label_1
_geom_bond_atom_site_label_2
_ccdc_geom_bond_type
O5    Zn1   S    
S2    O12   D    
C21   N1    A    
O17   H24   S    
O3    Zn1   S    
C7    C8    A    
O4    Zn2   S    
C5    H15   S    
C11   C19   S    
C20   N1    A    
N1    Zn2   S    
N2    Zn1   S    
C28   C29   A    
C26   C33   S    
C5    C6    A    
S3    O16   D    
O7    Zn1   S    
C16   C17   A    
O8    Zn2   S    
C15   C16   A    
C2    C32   A    
C18   C19   S    
C34   H18   S    
O2    Zn2   S    
C33   H20   S    
C20   C24   A    
C8    C9    A    
C19   H5    S    
C9    C10   A    
C15   H2    S    
C12   O3    A    
C22   N2    A    
C6    S1    S    
C13   C14   A    
C27   C30   S    
S2    O13   D    
C26   H11   S    
C24   N2    A    
C7    C12   S    
C23   O6    A    
O14   H23   S    
C27   O7    A    
C25   H9    S    
S3    O15   D    
S1    O9    D    
C14   H16   S    
C25   C26   S    
O6    Zn2   S    
C29   C30   A    
C19   H6    S    
C33   H21   S    
C31   C32   A    
C21   H7    S    
C22   H8    S    
C34   H17   S    
C17   C18   S    
C24   C25   S    
C1    O1    A    
C28   H1    S    
C16   C23   S    
C29   H12   S    
S2    O14   S    
O1    Zn1   S    
C4    C10   S    
C3    C4    T    
C18   H3    S    
C11   C17   A    
C34   H19   S    
C32   H14   S    
C27   O8    A    
C25   H10   S    
C23   O5    A    
C6    C7    A    
C2    C3    S    
C5    C10   A    
C11   C13   A    
S3    O17   S    
C30   C31   A    
C20   C26   S    
S1    O11   S    
C8    S2    S    
C9    S3    S    
C33   C34   S    
C1    O2    A    
O11   H22   S    
C1    C13   S    
S1    O10   D    
C31   H13   S    
C14   C15   A    
C2    C28   A    
C21   C22   A    
C18   H4    S    
C12   O4    A    
