data_mof_unit_50643.cif
_audit_creation_date              2012-12-11T16:29:28-0500
_audit_creation_method            fapswitch 2.2
_symmetry_space_group_name_H-M    P1
_symmetry_Int_Tables_number       1
_space_group_crystal_system       triclinic
_cell_length_a                    6.949147
_cell_length_b                    17.187776
_cell_length_c                    18.956534
_cell_angle_alpha                 106.07971
_cell_angle_beta                  89.953718
_cell_angle_gamma                 90.472965
_cell_volume                      2175.5182948

loop_
_atom_site_label
_atom_site_type_symbol
_atom_type_description
_atom_site_fract_x
_atom_site_fract_y
_atom_site_fract_z
_atom_type_partial_charge
O1    O     O_R   0.494360 0.415680 0.413760 -0.501209
O2    O     O_R   0.818810 0.432910 0.557230 -0.517876
O3    O     O_R   0.994290 0.584320 0.586240 -0.531492
C1    C     C_R   0.650309 0.419569 0.583549 0.798578
O4    O     O_R   0.823740 0.406440 0.412520 -0.546980
O5    O     O_R   0.999250 0.557660 0.440500 -0.516241
C2    C     C_R   0.654433 0.381585 0.386181 0.905014
O6    O     O_R   0.489400 0.442340 0.559500 -0.525819
O7    O     O_3   0.662500 0.549650 0.509350 -0.370494
V1    V     V_3+5 0.935340 0.490790 0.498270 1.536842
O8    O     O_R   0.329270 0.567090 0.442770 -0.519427
C3    C     C_R   0.161138 0.583489 0.418898 0.776604
O9    O     O_R   0.324340 0.593560 0.587480 -0.550734
C4    C     C_R   0.155566 0.617339 0.614547 0.776166
V2    V     V_3+5 0.435970 0.509210 0.501730 1.528055
O10   O     O_3   0.158940 0.450350 0.490650 -0.356258
H1    H     H_    0.867626 0.866996 0.567708 0.122517
C5    C     C_R   0.295855 0.602108 0.752954 -0.154229
C6    C     C_R   0.363636 0.591503 0.818757 -0.119740
C7    C     C_R   0.351418 0.654092 0.883102 -0.117129
C8    C     C_R   0.271147 0.727746 0.882154 -0.132900
C9    C     C_R   0.202954 0.740807 0.816009 0.076959
C10   C     C_R   0.215742 0.676685 0.749783 0.048235
C11   C     C_R   0.118953 0.815538 0.815706 -0.167591
C12   C     C_R   0.048546 0.826344 0.748765 0.015802
C13   C     C_R   0.064781 0.763163 0.681382 0.040401
C14   C     C_R   0.146420 0.687146 0.682402 -0.184985
C15   C     C_R   0.965471 0.900897 0.747761 -0.150850
C16   C     C_R   0.898606 0.913856 0.683165 -0.160588
C17   C     C_R   0.917215 0.854238 0.617471 -0.180311
C18   C     C_R   0.002150 0.779499 0.614959 0.349183
H2    H     H_    0.306477 0.550771 0.704944 0.091048
H3    H     H_    0.424853 0.534127 0.819858 0.111666
H4    H     H_    0.403003 0.645343 0.934212 0.114343
H5    H     H_    0.261745 0.773847 0.934072 0.101255
H6    H     H_    0.951824 0.950747 0.796830 0.122684
H7    H     H_    0.834761 0.971333 0.683891 0.142383
C19   C     C_1   0.112143 0.863828 0.132564 -0.218328
C20   C     C_1   0.119577 0.821179 0.176058 0.003267
C21   C     C_1   0.128808 0.770807 0.227817 0.003766
C22   C     C_1   0.136664 0.728376 0.271493 0.003704
C23   C     C_1   0.145846 0.678020 0.323260 -0.007682
C24   C     C_1   0.153202 0.635405 0.366777 -0.213627
C25   C     C_1   0.640757 0.369775 0.637518 -0.094025
C26   C     C_1   0.636049 0.327334 0.681214 0.026104
C27   C     C_1   0.632528 0.276195 0.732334 0.002430
C28   C     C_1   0.630083 0.232782 0.775216 0.004201
C29   C     C_1   0.626914 0.181135 0.825916 -0.000554
C30   C     C_1   0.623002 0.137453 0.868554 -0.219280
H8    H     H_    0.017941 0.143768 0.410416 0.180273
C31   C     C_R   0.498951 0.405935 0.248750 0.329723
C32   C     C_R   0.398626 0.414116 0.186879 -0.186672
C33   C     C_R   0.368858 0.348235 0.126633 -0.166191
C34   C     C_R   0.442627 0.273342 0.125752 -0.151779
C35   C     C_R   0.538330 0.260816 0.187582 0.029645
C36   C     C_R   0.558602 0.327287 0.252267 0.036700
C37   C     C_R   0.625513 0.185146 0.183531 -0.142901
C38   C     C_R   0.735143 0.176399 0.244016 0.045496
C39   C     C_R   0.725361 0.236487 0.312936 -0.067414
C40   C     C_R   0.642462 0.313702 0.316933 -0.185512
C41   C     C_R   0.852768 0.107589 0.238302 -0.149573
C42   C     C_R   0.969690 0.102068 0.295776 -0.201666
C43   C     C_R   0.946935 0.156373 0.363941 -0.083339
C44   C     C_R   0.806186 0.216083 0.374666 0.428441
H9    H     H_    0.348491 0.472771 0.184297 0.112867
H10   H     H_    0.295405 0.356055 0.078735 0.132165
H11   H     H_    0.427245 0.226448 0.074739 0.127287
H12   H     H_    0.860720 0.056909 0.190278 0.141986
H13   H     H_    0.065142 0.051049 0.289152 0.147563
O11   O     O_R   0.775690 0.057750 0.940570 -0.523551
O12   O     O_R   0.441200 0.093570 0.087490 -0.536310
O13   O     O_R   0.265840 0.942320 0.059480 -0.521401
C45   C     C_R   0.610974 0.116486 0.115138 0.692986
O14   O     O_R   0.446270 0.067110 0.942790 -0.527479
O15   O     O_R   0.270950 0.915660 0.913750 -0.532370
C46   C     C_R   0.614978 0.084472 0.919711 0.714606
O16   O     O_R   0.770580 0.084400 0.086300 -0.540312
O17   O     O_3   0.602640 0.950400 0.990690 -0.357796
V3    V     V_3+5 0.329740 0.009200 0.001730 1.417322
O18   O     O_R   0.940900 0.906360 0.912450 -0.536062
C47   C     C_R   0.109602 0.883400 0.884949 0.695822
O19   O     O_R   0.935830 0.932820 0.057160 -0.527845
C48   C     C_R   0.104098 0.915844 0.080534 0.705076
V4    V     V_3+5 0.829130 0.990680 0.998180 1.412674
O20   O     O_3   0.106100 0.049590 0.009310 -0.360316
O21   O     O_3   0.550312 0.474928 0.303055 -0.660875
H14   H     H_    0.500066 0.523602 0.291061 0.275661
S1    S     S_3+6 0.683161 0.227910 0.457947 -0.050726
O22   O     O_2   0.823802 0.262211 0.518813 -0.370456
O23   O     O_2   0.506836 0.279251 0.464986 -0.366943
O24   O     O_3   0.614980 0.135417 0.462808 -0.501719
H15   H     H_    0.565496 0.144003 0.513398 0.366267
O25   O     O_3   0.029955 0.723840 0.547730 -0.660906
H16   H     H_    0.977772 0.744991 0.508041 0.274694

loop_
_geom_bond_atom_site_label_1
_geom_bond_atom_site_label_2
_ccdc_geom_bond_type
C35   C36   A    
O25   H16   S    
H8    C43   S    
C19   C48   S    
C22   C23   S    
C6    C7    A    
C1    O6    A    
O12   V3    S    
C26   C27   S    
C25   C26   T    
C12   C15   A    
C13   C14   A    
C42   C43   A    
O14   C46   A    
C15   C16   A    
C31   C36   A    
C3    C24   S    
O5    C3    A    
C17   C18   A    
V2    O10   S    
C5    C6    A    
C37   C45   S    
C27   C28   T    
O8    V2    S    
O1    V2    S    
C10   C14   A    
C4    C14   S    
O11   V4    S    
O7    V1    S    
O24   H15   S    
O18   V4    S    
C7    H4    S    
C38   C41   A    
C39   C40   A    
O1    C2    A    
O9    C4    A    
H1    C17   S    
C31   O21   S    
C5    C10   A    
C11   C12   A    
C6    H3    S    
C20   C21   S    
O4    C2    A    
O17   V3    S    
O15   C47   A    
C34   H11   S    
C1    C25   S    
O16   V4    S    
C38   C39   A    
C18   O25   S    
C31   C32   A    
C42   H13   S    
O2    C1    A    
C11   C47   S    
C16   C17   A    
C28   C29   S    
S1    O24   S    
C7    C8    A    
C39   C44   A    
C30   C46   S    
V4    O20   S    
C33   H10   S    
O3    C4    A    
C21   C22   T    
S1    O23   D    
O6    V2    S    
O19   V4    S    
O14   V3    S    
C35   C37   A    
O11   C46   A    
C9    C11   A    
C5    H2    S    
C23   C24   T    
O2    V1    S    
C2    C40   S    
V3    O20   S    
C32   C33   A    
O12   C45   A    
C34   C35   A    
C29   C30   T    
O21   H14   S    
O18   C47   A    
O5    V1    S    
O8    C3    A    
C33   C34   A    
C8    H5    S    
O13   V3    S    
O9    V2    S    
C12   C13   A    
O4    V1    S    
O3    V1    S    
V1    O10   S    
C41   H12   S    
C37   C38   A    
C19   C20   T    
O7    V2    S    
C41   C42   A    
O13   C48   A    
C43   C44   A    
O17   V4    S    
C13   C18   A    
C36   C40   A    
S1    O22   D    
C15   H6    S    
O19   C48   A    
C16   H7    S    
C45   O16   A    
C9    C10   A    
C8    C9    A    
O15   V3    S    
C44   S1    S    
C32   H9    S    
