data_mof_unit_28819.cif
_audit_creation_date              2012-10-26T18:26:07-0400
_audit_creation_method            fapswitch 2.2
_symmetry_space_group_name_H-M    P1
_symmetry_Int_Tables_number       1
_space_group_crystal_system       triclinic
_cell_length_a                    13.860714
_cell_length_b                    8.68377
_cell_length_c                    7.523744
_cell_angle_alpha                 102.615155
_cell_angle_beta                  90.151339
_cell_angle_gamma                 93.233244
_cell_volume                      882.209956029

loop_
_atom_site_label
_atom_site_type_symbol
_atom_type_description
_atom_site_fract_x
_atom_site_fract_y
_atom_site_fract_z
_atom_type_partial_charge
C1    C     C_R   0.496404 0.200210 0.454344 0.541372
C2    C     C_1   0.868683 0.483745 0.436144 -0.036843
C3    C     C_2   0.492313 0.032350 0.429540 -0.156370
C4    C     C_2   0.507692 0.967649 0.570458 -0.156366
C5    C     C_3   0.048341 0.657211 0.903075 -0.303006
C6    C     C_3   0.951658 0.342968 0.096879 -0.302971
C7    C     C_3   0.340235 0.275588 0.958144 -0.240680
C8    C     C_3   0.659740 0.724456 0.041878 -0.240728
C9    C     C_R   0.503598 0.799790 0.545655 0.541375
C10   C     C_R   0.319061 0.503015 0.530129 0.536621
C11   C     C_R   0.680939 0.496985 0.469872 0.536618
C12   C     C_1   0.782783 0.490435 0.450294 -0.062052
C13   C     C_1   0.217216 0.509558 0.549706 -0.062029
C14   C     C_2   0.972247 0.475450 0.423181 0.162930
C15   C     C_2   0.027750 0.524529 0.576840 0.162952
C16   C     C_1   0.131315 0.516242 0.563863 -0.036783
Cu1   Cu    Cu3+1 0.510540 0.517220 0.682700 0.976990
Cu2   Cu    Cu3+1 0.489460 0.482780 0.317300 0.977004
H1    H     H_    0.475691 0.961754 0.294143 0.117230
H2    H     H_    0.914323 0.234435 0.125151 0.141087
H3    H     H_    0.483387 0.223325 0.963682 0.238298
H4    H     H_    0.317208 0.168692 0.853146 0.102914
H5    H     H_    0.297643 0.375123 0.937728 0.155898
H6    H     H_    0.325258 0.251223 0.094509 0.146423
H7    H     H_    0.516582 0.776675 0.036268 0.238314
H8    H     H_    0.682733 0.831465 0.146738 0.102877
H9    H     H_    0.674745 0.748641 0.905440 0.146504
H10   H     H_    0.702341 0.625005 0.062527 0.155889
H11   H     H_    0.524315 0.038245 0.705854 0.117220
H12   H     H_    0.920255 0.634041 0.751016 0.245610
H13   H     H_    0.005095 0.690601 0.028255 0.152661
H14   H     H_    0.085585 0.765763 0.874665 0.141098
H15   H     H_    0.102448 0.574569 0.928566 0.171035
H16   H     H_    0.079686 0.365738 0.249045 0.245598
H17   H     H_    0.994917 0.309590 0.971712 0.152734
H18   H     H_    0.897626 0.425754 0.071456 0.171035
N1    N     N_2   0.473570 0.456830 0.042740 -0.006972
N2    N     N_2   0.526430 0.543170 0.957260 -0.006975
N3    N     N_2   0.985200 0.581818 0.751442 -0.536138
N4    N     N_2   0.014806 0.418144 0.248590 -0.536099
N5    N     N_2   0.442144 0.312052 0.940157 -0.349898
N6    N     N_2   0.557830 0.687967 0.059831 -0.349902
O1    O     O_R   0.506850 0.286020 0.618680 -0.475963
O2    O     O_R   0.493150 0.713980 0.381320 -0.475953
O3    O     O_R   0.489050 0.256940 0.310110 -0.526313
O4    O     O_R   0.510950 0.743060 0.689890 -0.526328
O5    O     O_R   0.372320 0.516630 0.676100 -0.487285
O6    O     O_R   0.627680 0.483370 0.323900 -0.487298
O7    O     O_R   0.354510 0.487550 0.367530 -0.507655
O8    O     O_R   0.645490 0.512450 0.632470 -0.507677

loop_
_geom_bond_atom_site_label_1
_geom_bond_atom_site_label_2
_ccdc_geom_bond_type
Cu1   O8    S    
H7    N6    S    
C11   C12   S    
Cu1   O1    S    
C3    H1    S    
N1    N2    D    
Cu2   O2    S    
C7    H4    S    
C8    H8    S    
C4    H11   S    
C5    H15   S    
C5    H14   S    
C15   N3    S    
C7    N5    S    
Cu1   Cu2   S    
C2    C12   T    
C9    O4    A    
C11   O8    A    
C6    H17   S    
C1    O3    A    
C11   O6    A    
C7    H5    S    
Cu2   N1    S    
C6    H18   S    
H12   N3    S    
N2    N6    S    
C6    N4    S    
Cu1   N2    S    
C5    N3    S    
N1    N5    S    
C2    C14   S    
H3    N5    S    
C14   N4    S    
C15   C16   S    
Cu2   O3    S    
Cu1   O5    S    
C6    H2    S    
Cu1   O4    S    
C8    H10   S    
C13   C16   T    
C10   O5    A    
C8    H9    S    
C14   C15   D    
H16   N4    S    
C9    O2    A    
C5    H13   S    
C4    C9    S    
C10   O7    A    
C1    O1    A    
C3    C4    D    
C7    H6    S    
Cu2   O7    S    
C8    N6    S    
C1    C3    S    
C10   C13   S    
Cu2   O6    S    
