data_mof_unit_44389.cif
_audit_creation_date              2012-12-11T16:05:11-0500
_audit_creation_method            fapswitch 2.2
_symmetry_space_group_name_H-M    P1
_symmetry_Int_Tables_number       1
_space_group_crystal_system       triclinic
_cell_length_a                    10.659832
_cell_length_b                    10.653448
_cell_length_c                    16.904739
_cell_angle_alpha                 98.591131
_cell_angle_beta                  98.644352
_cell_angle_gamma                 61.255848
_cell_volume                      1657.49038409

loop_
_atom_site_label
_atom_site_type_symbol
_atom_type_description
_atom_site_fract_x
_atom_site_fract_y
_atom_site_fract_z
_atom_type_partial_charge
C1    C     C_R   0.354723 0.775045 0.398449 0.552464
C2    C     C_3   0.416554 0.684570 0.252941 -0.115013
C3    C     C_3   0.348790 0.808979 0.317998 0.054522
C4    C     C_R   0.371135 0.347288 0.358515 0.550454
C5    C     C_3   0.410185 0.894080 0.287098 -0.123620
C6    C     C_3   0.269263 0.964013 0.232720 -0.115227
C7    C     C_3   0.208904 0.877575 0.264734 -0.124349
C8    C     C_3   0.275076 0.754473 0.198798 -0.112722
C9    C     C_3   0.334559 0.840572 0.167022 0.056524
C10   C     C_3   0.480495 0.296685 0.797369 -0.131923
C11   C     C_3   0.412549 0.440783 0.758586 -0.171327
C12   C     C_3   0.761336 0.293023 0.248434 -0.119351
C13   C     C_3   0.379660 0.364507 0.680171 0.031584
C14   C     C_3   0.448233 0.221024 0.717918 -0.095914
C15   C     C_3   0.299425 0.260272 0.742416 -0.119795
C16   C     C_R   0.776523 0.377092 0.401721 0.550978
C17   C     C_3   0.230702 0.403861 0.703731 -0.129570
C18   C     C_3   0.263958 0.477924 0.783417 0.011214
C19   C     C_3   0.331999 0.336056 0.821458 0.074022
C20   C     C_1   0.816839 0.341955 0.709684 -0.041086
C21   C     C_1   0.843024 0.315414 0.778287 -0.044846
C22   C     C_1   0.355346 0.771074 0.713851 -0.056317
C23   C     C_3   0.830815 0.342988 0.323943 0.057118
C24   C     C_1   0.324296 0.816557 0.781416 -0.059746
C25   C     C_R   0.958011 0.284558 0.102401 0.548056
C26   C     C_R   0.320008 0.300617 0.119840 0.534744
C27   C     C_R   0.298371 0.885006 0.086353 0.542247
C28   C     C_R   0.378397 0.718813 0.631833 0.533297
C29   C     C_R   0.884214 0.299894 0.861092 0.545352
C30   C     C_R   0.310507 0.296785 0.894389 0.569993
C31   C     C_R   0.281665 0.881865 0.859462 0.553149
C32   C     C_R   0.408689 0.377099 0.601366 0.550623
C33   C     C_R   0.774063 0.379446 0.629601 0.535230
C34   C     C_3   0.981448 0.235535 0.301898 -0.149381
C35   C     C_1   0.345956 0.338012 0.274652 -0.068768
C36   C     C_1   0.333943 0.328303 0.203389 -0.064338
C37   C     C_3   0.913371 0.184510 0.224614 -0.123550
C38   C     C_2   0.158299 0.622161 0.817743 0.240718
C39   C     C_3   0.981330 0.351878 0.256812 -0.136480
C40   C     C_3   0.829335 0.459942 0.279882 -0.102161
C41   C     C_3   0.761556 0.408695 0.203594 -0.114678
C42   C     C_3   0.912972 0.301302 0.181442 0.054813
C43   C     C_3   0.476128 0.771726 0.219911 -0.128201
Cr1   Cr    Cr6+3 0.608340 0.611040 0.520430 1.021656
Cr2   Cr    Cr6+3 0.287650 0.601120 0.489350 1.019625
Cr3   Cr    Cr6+3 0.604040 0.287870 0.490280 1.015420
Cr4   Cr    Cr6+3 0.054020 0.052700 0.970850 1.054356
Cr5   Cr    Cr6+3 0.059230 0.375120 0.993390 1.063879
Cr6   Cr    Cr6+3 0.374950 0.061200 0.992340 1.031140
H1    H     H_    0.670329 0.269306 0.247110 0.129482
H2    H     H_    0.943471 0.074004 0.196671 0.133491
H3    H     H_    0.068620 0.167866 0.345350 0.115641
H4    H     H_    0.070618 0.377553 0.258219 0.116292
H5    H     H_    0.794401 0.573703 0.303524 0.133257
H6    H     H_    0.673644 0.476124 0.160424 0.122506
H7    H     H_    0.476397 0.569268 0.264271 0.110862
H8    H     H_    0.584187 0.730007 0.199169 0.115792
H9    H     H_    0.463156 0.952535 0.325308 0.131882
H10   H     H_    0.105932 0.711021 0.780195 0.118389
H11   H     H_    0.214797 0.078536 0.220557 0.107459
H12   H     H_    0.102414 0.917319 0.287057 0.122220
H13   H     H_    0.221677 0.695835 0.161191 0.135882
H14   H     H_    0.464750 0.510263 0.764789 0.095728
H15   H     H_    0.582113 0.253350 0.837223 0.133687
H16   H     H_    0.524228 0.114544 0.690288 0.147355
H17   H     H_    0.252441 0.185870 0.737161 0.122152
H18   H     H_    0.128760 0.447483 0.664148 0.134991
O1    O     O_R   0.751220 0.499230 0.435170 -0.519707
O2    O     O_R   0.412990 0.180750 0.091610 -0.507900
O3    O     O_R   0.366620 0.943130 0.065760 -0.504439
O4    O     O_R   0.477220 0.727600 0.436870 -0.496581
O5    O     O_R   0.160510 0.906330 0.879210 -0.486140
O6    O     O_R   0.930190 0.179050 0.889450 -0.495533
O7    O     O_R   0.909140 0.398170 0.896710 -0.492845
O8    O     O_R   0.186190 0.363460 0.918830 -0.457265
O9    O     O_R   0.401670 0.173200 0.913310 -0.524154
O10   O     O_R   0.356120 0.936130 0.900470 -0.493108
O11   O     O_3   0.162740 0.163010 0.985530 -0.289940
O12   O     O_R   0.297880 0.469080 0.560050 -0.510368
O13   O     O_R   0.258650 0.745120 0.411470 -0.513058
O14   O     O_R   0.297070 0.467240 0.395960 -0.490963
O15   O     O_R   0.488830 0.252610 0.387790 -0.511546
O16   O     O_R   0.724400 0.302390 0.420980 -0.501842
O17   O     O_R   0.752100 0.501210 0.612190 -0.511014
O18   O     O_R   0.478040 0.729440 0.600970 -0.484808
O19   O     O_R   0.259530 0.747110 0.588490 -0.508898
O20   O     O_2   0.129781 0.640670 0.887136 -0.478835
O21   O     O_R   0.489720 0.254590 0.564810 -0.510378
O22   O     O_R   0.725220 0.304230 0.585080 -0.513581
O23   O     O_3   0.500010 0.500010 0.500020 -0.295174
O24   O     O_R   0.171830 0.913880 0.057510 -0.507638
O25   O     O_R   0.940690 0.186050 0.054730 -0.500254
O26   O     O_R   0.920470 0.405720 0.075010 -0.513259
O27   O     O_R   0.196690 0.370460 0.084120 -0.512657

loop_
_geom_bond_atom_site_label_1
_geom_bond_atom_site_label_2
_ccdc_geom_bond_type
C26   O27   A    
C11   C18   S    
C25   O26   A    
C34   C37   S    
C41   C42   S    
C13   C32   S    
C35   C36   T    
C6    C9    S    
C7    C8    S    
Cr3   O22   S    
C15   C19   S    
C12   C23   S    
C1    O4    A    
Cr5   O27   S    
C5    H9    S    
C11   H14   S    
C5    C6    S    
C37   H2    S    
C29   O6    A    
C23   C40   S    
C32   O21   A    
C12   C37   S    
Cr6   O11   S    
Cr1   O4    S    
C18   C19   S    
Cr4   O25   S    
Cr5   O11   S    
C37   C42   S    
C41   H6    S    
C34   H3    S    
Cr3   O15   S    
C7    H12   S    
C4    O14   A    
C8    C9    S    
C27   O24   A    
C16   O1    A    
C10   C19   S    
C5    C43   S    
C4    C35   S    
Cr6   O2    S    
C13   C14   S    
Cr5   O8    S    
Cr5   O7    S    
C31   O10   A    
C39   C42   S    
Cr3   O21   S    
Cr2   O14   S    
C9    C43   S    
C17   H18   S    
Cr5   O26   S    
C34   C39   S    
C6    H11   S    
Cr4   O6    S    
C10   C14   S    
C39   C40   S    
C29   O7    A    
Cr1   O17   S    
C15   H17   S    
C21   C29   S    
C16   O16   A    
Cr3   O16   S    
C1    C3    S    
C12   C41   S    
C33   O22   A    
C30   O9    A    
C2    C43   S    
C23   C34   S    
C17   C18   S    
Cr6   O9    S    
Cr2   O12   S    
Cr2   O23   S    
C27   O3    A    
C20   C33   S    
C26   C36   S    
C31   O5    A    
C16   C23   S    
C40   H5    S    
Cr6   O3    S    
C28   O19   A    
C22   C24   T    
Cr1   O1    S    
Cr1   O18   S    
Cr1   O23   S    
C9    C27   S    
C15   C17   S    
C40   C41   S    
C25   O25   A    
Cr4   O24   S    
C2    C8    S    
C3    C5    S    
C25   C42   S    
C12   H1    S    
C6    C7    S    
Cr3   O23   S    
C3    C7    S    
C13   C17   S    
C38   O20   D    
C10   H15   S    
Cr2   O19   S    
C18   C38   S    
C24   C31   S    
C2    H7    S    
C32   O12   A    
C30   O8    A    
C11   C13   S    
C39   H4    S    
C14   H16   S    
Cr6   O10   S    
C2    C3    S    
Cr2   O13   S    
C33   O17   A    
Cr4   O5    S    
C10   C11   S    
C43   H8    S    
C38   H10   S    
C4    O15   A    
C20   C21   T    
C28   O18   A    
C26   O2    A    
C14   C15   S    
C1    O13   A    
C22   C28   S    
Cr4   O11   S    
C19   C30   S    
C8    H13   S    
