data_mof_unit_31211.cif
_audit_creation_date              2012-12-10T20:55:49-0500
_audit_creation_method            fapswitch 2.2
_symmetry_space_group_name_H-M    P1
_symmetry_Int_Tables_number       1
_space_group_crystal_system       triclinic
_cell_length_a                    15.755711
_cell_length_b                    15.067735
_cell_length_c                    10.792651
_cell_angle_alpha                 91.073533
_cell_angle_beta                  90.979858
_cell_angle_gamma                 89.213137
_cell_volume                      2561.15151561

loop_
_atom_site_label
_atom_site_type_symbol
_atom_type_description
_atom_site_fract_x
_atom_site_fract_y
_atom_site_fract_z
_atom_type_partial_charge
C1    C     C_1   0.250209 0.501698 0.508468 -0.119356
C2    C     C_R   0.425996 0.048642 0.468077 0.127848
C3    C     C_R   0.954247 0.580686 0.568160 0.290928
C4    C     C_R   0.044557 0.418967 0.521158 0.290026
C5    C     C_R   0.041817 0.583136 0.544172 0.289268
C6    C     C_R   0.957620 0.417495 0.548429 0.305796
C7    C     C_R   0.338763 0.500549 0.501887 0.865128
C8    C     C_R   0.661389 0.499440 0.500339 0.888793
C9    C     C_R   0.497346 0.498876 0.259041 0.892863
C10   C     C_R   0.495508 0.500775 0.741055 0.896320
C11   C     C_R   0.913049 0.498593 0.558360 -0.233078
C12   C     C_1   0.749655 0.498455 0.517762 -0.118154
C13   C     C_R   0.085672 0.501765 0.523471 -0.261893
C14   C     C_1   0.501847 0.806960 0.496806 0.159859
C15   C     C_1   0.501104 0.193102 0.500362 0.217614
C16   C     C_1   0.824038 0.498318 0.537204 0.251968
C17   C     C_1   0.175117 0.502174 0.514886 0.247820
C18   C     C_R   0.384833 0.629752 0.114846 -0.026161
C19   C     C_R   0.440684 0.337001 0.883659 -0.003957
C20   C     C_R   0.487268 0.668361 0.911436 0.039498
C21   C     C_R   0.551127 0.343279 0.092734 0.029294
C22   C     C_R   0.379248 0.716264 0.062323 0.283361
C23   C     C_R   0.479951 0.500751 0.873117 -0.115398
C24   C     C_R   0.471663 0.255652 0.935207 0.267549
C25   C     C_R   0.435195 0.737004 0.963826 0.276905
C26   C     C_R   0.529891 0.259288 0.038709 0.269766
C27   C     C_R   0.471207 0.580204 0.945965 -0.032680
C28   C     C_R   0.503374 0.418411 0.054597 -0.032656
C29   C     C_R   0.446180 0.569302 0.066465 -0.010405
C30   C     C_R   0.473011 0.418054 0.933857 -0.008948
C31   C     C_3   0.345644 0.101604 0.434581 -0.479028
C32   C     C_3   0.341812 0.121137 0.296403 -0.651638
C33   C     C_3   0.662680 0.902129 0.528112 -0.379756
C34   C     C_R   0.483487 0.495515 0.126744 -0.096726
C35   C     C_3   0.679244 0.861582 0.654789 -0.763681
C36   C     C_3   0.648880 0.095948 0.598448 -0.414918
C37   C     C_3   0.708646 0.137348 0.506973 -0.732911
C38   C     C_3   0.343976 0.902997 0.447910 -0.415370
C39   C     C_3   0.296514 0.892239 0.568713 -0.702727
C40   C     C_3   0.313725 0.597453 0.196775 -0.268383
C41   C     C_3   0.294197 0.498046 0.190610 -0.846851
C42   C     C_3   0.362397 0.336208 0.796972 -0.241347
C43   C     C_3   0.302872 0.417251 0.804221 -0.845119
C44   C     C_3   0.575092 0.691807 0.864300 -0.300362
C45   C     C_R   0.502441 0.905279 0.493643 -0.025016
C46   C     C_3   0.646757 0.630515 0.910413 -0.838041
C47   C     C_3   0.636857 0.355233 0.159963 -0.296044
C48   C     C_3   0.684591 0.438400 0.123392 -0.867054
C49   C     C_R   0.501165 0.095176 0.500418 0.044942
C50   C     C_R   0.425893 0.953617 0.469804 0.130405
C51   C     C_R   0.575616 0.046989 0.534727 0.134759
C52   C     C_R   0.578218 0.952421 0.520877 0.088222
H1    H     H_    0.229649 0.700112 0.489578 0.374579
H2    H     H_    0.346187 0.058651 0.240627 0.312280
H3    H     H_    0.280837 0.155192 0.273149 0.252180
H4    H     H_    0.287093 0.067636 0.461402 0.241104
H5    H     H_    0.342470 0.165487 0.487279 0.231906
H6    H     H_    0.746990 0.841055 0.663360 0.294429
H7    H     H_    0.664547 0.909422 0.731110 0.277035
H8    H     H_    0.640085 0.802017 0.663986 0.249966
H9    H     H_    0.664594 0.848792 0.455614 0.225865
H10   H     H_    0.716246 0.945807 0.506435 0.240274
H11   H     H_    0.680413 0.199587 0.470388 0.275098
H12   H     H_    0.800620 0.278488 0.695879 0.378737
H13   H     H_    0.769153 0.153973 0.555386 0.287505
H14   H     H_    0.723182 0.090464 0.429495 0.264564
H15   H     H_    0.624001 0.148618 0.662111 0.237701
H16   H     H_    0.686194 0.051245 0.659538 0.242278
H17   H     H_    0.333017 0.847510 0.631162 0.293374
H18   H     H_    0.286661 0.957302 0.616625 0.267173
H19   H     H_    0.233571 0.862542 0.548645 0.287615
H20   H     H_    0.302393 0.935263 0.377756 0.255189
H21   H     H_    0.357104 0.836126 0.408148 0.256945
H22   H     H_    0.295937 0.472749 0.094192 0.261301
H23   H     H_    0.759960 0.672721 0.655151 0.358691
H24   H     H_    0.338413 0.458657 0.248570 0.252857
H25   H     H_    0.229507 0.487145 0.226239 0.290760
H26   H     H_    0.325570 0.619388 0.293691 0.261635
H27   H     H_    0.253344 0.628055 0.163535 0.283436
H28   H     H_    0.284063 0.430549 0.900814 0.261913
H29   H     H_    0.331094 0.477180 0.765522 0.236011
H30   H     H_    0.244237 0.403284 0.749111 0.273751
H31   H     H_    0.381241 0.323993 0.699658 0.263348
H32   H     H_    0.321163 0.280903 0.823839 0.264289
H33   H     H_    0.643188 0.622858 0.012300 0.263055
H34   H     H_    0.223218 0.295428 0.390294 0.373681
H35   H     H_    0.643825 0.564494 0.863548 0.256015
H36   H     H_    0.708952 0.660019 0.889895 0.298680
H37   H     H_    0.575231 0.694081 0.762243 0.247563
H38   H     H_    0.592960 0.758897 0.899038 0.254820
H39   H     H_    0.686924 0.442893 0.020903 0.278442
H40   H     H_    0.654748 0.499345 0.162761 0.240784
H41   H     H_    0.750701 0.434812 0.160567 0.272862
H42   H     H_    0.630343 0.353849 0.261852 0.254790
H43   H     H_    0.680294 0.299680 0.134073 0.248289
H44   H     H_    0.670465 0.163732 0.249775 0.375565
H45   H     H_    0.500117 0.911224 0.753239 0.400777
H46   H     H_    0.362981 0.104100 0.714193 0.389535
H47   H     H_    0.210842 0.813638 0.262004 0.414587
H48   H     H_    0.394609 0.165244 0.271898 0.269321
N1    N     N_1   0.500000 0.270550 0.500000 -0.102098
N2    N     N_1   0.500000 0.729450 0.500000 -0.095849
O1    O     O_R   0.378020 0.573650 0.500040 -0.619308
O2    O     O_2   0.126577 0.713827 0.662027 -0.261047
O3    O     O_3   0.180791 0.676841 0.440645 -0.559072
O4    O     O_2   0.869057 0.279573 0.456681 -0.280749
O5    O     O_2   0.961162 0.250109 0.637748 -0.189854
O6    O     O_3   0.821346 0.337617 0.672922 -0.563240
O7    O     O_2   0.947484 0.738448 0.695370 -0.149855
O8    O     O_2   0.864164 0.725435 0.502194 -0.286556
O9    O     O_3   0.810414 0.647984 0.699035 -0.574451
O10   O     O_2   0.141288 0.280425 0.592321 -0.283057
O11   O     O_2   0.044943 0.252830 0.415429 -0.162298
O12   O     O_R   0.621980 0.426350 0.499960 -0.598766
O13   O     O_3   0.179299 0.342166 0.377400 -0.579886
O14   O     O_2   0.508087 0.089204 0.114509 -0.158472
O15   O     O_2   0.645134 0.126862 0.028034 -0.265329
O16   O     O_3   0.609558 0.180615 0.251399 -0.620690
O17   O     O_2   0.353944 0.886725 0.883595 -0.176454
O18   O     O_2   0.489484 0.903715 0.995868 -0.186353
O19   O     O_3   0.490449 0.847572 0.768346 -0.638599
O20   O     O_2   0.515940 0.089169 0.856406 -0.219954
O21   O     O_2   0.376841 0.110048 0.951644 -0.211197
O22   O     O_3   0.396257 0.158975 0.726278 -0.649757
O23   O     O_R   0.621980 0.573650 0.499960 -0.616651
O24   O     O_2   0.347724 0.885454 0.140792 -0.232225
O25   O     O_2   0.235394 0.809033 0.023015 -0.203259
O26   O     O_3   0.259273 0.771538 0.252917 -0.608464
O27   O     O_R   0.378020 0.426350 0.500040 -0.615540
O28   O     O_R   0.499990 0.573670 0.316780 -0.609828
O29   O     O_R   0.500010 0.426330 0.683220 -0.613750
O30   O     O_R   0.500010 0.573670 0.683220 -0.616523
O31   O     O_R   0.499990 0.426330 0.316780 -0.621799
O32   O     O_2   0.039863 0.757940 0.482495 -0.161901
S1    S     S_3+6 0.096680 0.686289 0.534099 0.092675
S2    S     S_3+6 0.902965 0.317002 0.577421 0.081439
S3    S     S_3+6 0.894607 0.677097 0.615595 0.093029
S4    S     S_3+6 0.102028 0.319823 0.477546 0.088803
S5    S     S_3+6 0.573191 0.160572 0.106594 0.063037
S6    S     S_3+6 0.440804 0.846878 0.904281 0.085447
S7    S     S_3+6 0.440529 0.150636 0.868172 0.058658
S8    S     S_3+6 0.304664 0.798071 0.119246 0.055662
Zn1   Zn    Zn3+2 0.500000 0.598370 0.500000 0.978645
Zn2   Zn    Zn3+2 0.500000 0.401630 0.500000 0.981607

loop_
_geom_bond_atom_site_label_1
_geom_bond_atom_site_label_2
_ccdc_geom_bond_type
C21   C26   A    
O2    S1    D    
C27   C29   A    
C36   H15   S    
O27   Zn2   S    
C9    O28   A    
C33   C52   S    
H46   O22   S    
C35   H6    S    
O17   S6    D    
O19   S6    S    
C35   H7    S    
C36   C37   S    
C24   C26   A    
O6    S2    S    
C41   H25   S    
C38   C39   S    
N1    Zn2   S    
C14   N2    T    
C20   C25   A    
C22   C25   A    
O7    S3    D    
C4    C13   A    
C18   C40   S    
C10   O29   A    
H45   O19   S    
C2    C50   A    
C37   H11   S    
C41   H22   S    
C47   H42   S    
C31   C32   S    
C33   H10   S    
C49   C51   A    
C48   H39   S    
C37   H13   S    
C6    S2    S    
C3    S3    S    
C23   C27   A    
C31   H4    S    
C32   H3    S    
C5    C13   A    
C19   C42   S    
C8    O12   A    
O3    S1    S    
O14   S5    D    
O30   Zn1   S    
O4    S2    D    
C28   C34   A    
C7    O1    A    
C22   S8    S    
O15   S5    D    
C12   C16   T    
C32   H2    S    
C20   C44   S    
C44   C46   S    
H12   O6    S    
C14   C45   S    
C46   H36   S    
C38   H20   S    
C48   H41   S    
C51   C52   A    
C23   C30   A    
O10   S4    D    
C25   S6    S    
C42   H32   S    
C4    C6    A    
C26   S5    S    
C6    C11   A    
C45   C52   A    
C43   H28   S    
C29   C34   A    
O24   S8    D    
C32   H48   S    
H34   O13   S    
O25   S8    D    
O12   Zn2   S    
O5    S2    D    
C2    C49   A    
C11   C16   S    
C47   C48   S    
O13   S4    S    
C24   S7    S    
C8    C12   S    
C37   H14   S    
O21   S7    D    
C39   H17   S    
C40   H27   S    
C18   C29   A    
C15   N1    T    
O28   Zn1   S    
H47   O26   S    
C36   C51   S    
O18   S6    D    
C40   C41   S    
C21   C28   A    
C48   H40   S    
C9    C34   S    
C43   H29   S    
C40   H26   S    
O22   S7    S    
C42   C43   S    
O16   S5    S    
C35   H8    S    
C44   H38   S    
O9    S3    S    
C46   H35   S    
H44   O16   S    
C5    S1    S    
O31   Zn2   S    
C39   H19   S    
C1    C7    S    
H23   O9    S    
O8    S3    D    
C42   H31   S    
C3    C5    A    
O1    Zn1   S    
C36   H16   S    
O32   S1    D    
C38   C50   S    
C20   C27   A    
C10   C23   S    
C1    C17   T    
C13   C17   S    
C46   H33   S    
C18   C22   A    
C19   C24   A    
C41   H24   S    
C31   H5    S    
C45   C50   A    
O23   Zn1   S    
C28   C30   A    
C33   C35   S    
C39   H18   S    
C15   C49   S    
C10   O30   A    
C7    O27   A    
C3    C11   A    
O29   Zn2   S    
C4    S4    S    
H1    O3    S    
C8    O23   A    
C33   H9    S    
N2    Zn1   S    
C43   H30   S    
C47   H43   S    
O11   S4    D    
C2    C31   S    
O20   S7    D    
C19   C30   A    
O26   S8    S    
C44   H37   S    
C21   C47   S    
C38   H21   S    
C9    O31   A    
