data_mof_unit_31507.cif
_audit_creation_date              2013-03-05T16:16:19-0500
_audit_creation_method            fapswitch 2.2
_symmetry_space_group_name_H-M    P1
_symmetry_Int_Tables_number       1
_space_group_crystal_system       triclinic
_cell_length_a                    8.744733
_cell_length_b                    18.767854
_cell_length_c                    26.988665
_cell_angle_alpha                 98.629869
_cell_angle_beta                  92.65638
_cell_angle_gamma                 86.421338
_cell_volume                      4367.61847009

loop_
_atom_site_label
_atom_site_type_symbol
_atom_site_description
_atom_site_fract_x
_atom_site_fract_y
_atom_site_fract_z
_atom_type_partial_charge
P1    P     P_3+3 0.084800 0.558370 0.611580 0.600560
O1    O     O_2   0.914730 0.537460 0.618690 -0.306827
O2    O     O_3   0.146720 0.537410 0.558510 -0.355614
O3    O     O_3   0.666360 0.409390 0.586570 -0.369159
O4    O     O_2   0.772372 0.458216 0.674648 -0.335590
O5    O     O_3   0.100957 0.646880 0.646196 -0.559142
O6    O     O_3   0.667444 0.331850 0.669819 -0.544034
H1    H     H_    0.815980 0.300378 0.611417 0.170903
C1    C     C_3   0.777271 0.210077 0.648820 -0.408869
H2    H     H_    0.873727 0.184699 0.626222 0.222899
H3    H     H_    0.816476 0.222826 0.688653 0.225170
P2    P     P_3+3 0.628800 0.338360 0.458800 0.462517
P3    P     P_3+3 0.114922 0.279798 0.551424 0.443381
O7    O     O_2   0.806150 0.327840 0.473120 -0.361437
O8    O     O_3   0.073640 0.373350 0.561550 -0.344350
O9    O     O_2   0.975583 0.249915 0.519711 -0.406647
O10   O     O_3   0.628162 0.306454 0.394261 -0.616819
O11   O     O_3   0.093274 0.239642 0.605757 -0.565150
C2    C     C_3   0.188736 0.261536 0.648924 0.662792
C3    C     C_3   0.181181 0.202269 0.684267 0.069423
H4    H     H_    0.061188 0.202439 0.695094 0.142428
C4    C     C_3   0.136046 0.303162 0.403054 0.656229
H5    H     H_    0.122788 0.331353 0.442036 0.090801
C5    C     C_3   0.030679 0.238973 0.394718 -0.638334
H6    H     H_    0.052840 0.206403 0.425681 0.147261
H7    H     H_    0.909726 0.259671 0.395971 0.208723
Ba1   Ba    Ba6+2 0.852670 0.466460 0.522850 1.600577
C6    C     C_3   0.054388 0.710867 0.626811 0.323107
C7    C     C_3   0.072541 0.775250 0.669920 -0.699347
H8    H     H_    0.039155 0.827078 0.655888 0.147171
H9    H     H_    0.194938 0.777401 0.682976 0.220654
C8    C     C_3   0.641484 0.359967 0.363890 0.190042
H10   H     H_    0.760902 0.377606 0.366808 0.089968
H11   H     H_    0.560471 0.407076 0.374860 0.146116
C9    C     C_3   0.601250 0.325138 0.309492 -0.260616
H12   H     H_    0.481791 0.308085 0.308397 0.166936
P4    P     P_3+3 0.104900 0.441570 0.388420 0.483111
O12   O     O_2   0.274960 0.462520 0.381280 -0.363700
O13   O     O_3   0.042980 0.462530 0.441480 -0.389343
O14   O     O_3   0.523340 0.590550 0.413420 -0.404009
O15   O     O_3   0.097793 0.348318 0.367171 -0.568980
P5    P     P_3+3 0.073072 0.721399 0.442453 0.385340
O16   O     O_3   0.635780 0.584660 0.526290 -0.291681
O17   O     O_3   0.116060 0.626590 0.438450 -0.387723
O18   O     O_2   0.192725 0.755301 0.481473 -0.364048
O19   O     O_3   0.118570 0.760046 0.388928 -0.570757
Ba2   Ba    Ba6+2 0.337150 0.533490 0.477140 1.586336
P6    P     P_3+3 0.635497 0.416906 0.650179 0.498166
C10   C     C_3   0.719389 0.280390 0.629490 0.463626
H13   H     H_    0.628521 0.269900 0.599862 0.054612
O20   O     O_3   0.553920 0.415280 0.473710 -0.376248
C11   C     C_3   0.574781 0.658577 0.639196 0.370299
H14   H     H_    0.683166 0.625275 0.633749 0.161070
C12   C     C_3   0.577632 0.700756 0.693026 -0.770379
H15   H     H_    0.486416 0.745044 0.695627 0.192833
H16   H     H_    0.688665 0.726175 0.700692 0.219055
P7    P     P_3+3 0.559253 0.675132 0.542267 0.570516
O21   O     O_2   0.383540 0.672140 0.526840 -0.331853
O22   O     O_3   0.557751 0.710393 0.606522 -0.565502
C13   C     C_3   0.048119 0.738660 0.340463 0.511799
C14   C     C_3   0.012692 0.811440 0.316593 -0.054991
P8    P     P_3+3 0.549053 0.579923 0.348948 0.455605
C15   C     C_3   0.550549 0.722403 0.366369 0.657268
H17   H     H_    0.660772 0.714336 0.386589 0.033739
O23   O     O_2   0.405917 0.541504 0.325306 -0.348210
O24   O     O_3   0.523532 0.664238 0.327655 -0.498283
H18   H     H_    0.641777 0.787295 0.314845 0.266828
C16   C     C_3   0.552485 0.791493 0.342705 -0.923895
H19   H     H_    0.570441 0.838970 0.371882 0.222864
H20   H     H_    0.443082 0.800887 0.322378 0.258682
C17   C     C_R   0.110440 0.515365 0.192749 0.543431
O25   O     O_2   0.210624 0.515818 0.225825 -0.558568
N1    N     N_R   0.955999 0.519779 0.204725 -0.156569
C18   C     C_R   0.846374 0.527930 0.166212 0.552940
C19   C     C_2   0.772970 0.541855 0.274406 -0.084397
C20   C     C_3   0.723811 0.525493 0.324296 0.123332
C21   C     C_1   0.984533 0.484480 0.341642 0.286389
C22   C     C_2   0.010246 0.472254 0.291771 0.126004
C23   C     C_2   0.910539 0.513548 0.256302 0.054262
C24   C     C_R   0.043623 0.525389 0.105277 -0.061600
C25   C     C_R   0.153991 0.510126 0.142215 -0.082024
C26   C     C_R   0.305074 0.490073 0.127668 -0.042186
C27   C     C_R   0.890026 0.538864 0.118232 -0.033219
C28   C     C_2   0.861316 0.522736 0.359584 -0.483700
H21   H     H_    0.393368 0.478025 0.155172 0.192913
C29   C     C_2   0.311105 0.461047 0.641196 -0.400872
C30   C     C_R   0.264905 0.488274 0.987439 0.038007
C31   C     C_R   0.029408 0.560669 0.971823 0.064800
C32   C     C_R   0.165596 0.522943 0.954171 0.088866
C33   C     C_R   0.388814 0.443353 0.966939 -0.213435
C34   C     C_R   0.411574 0.432371 0.915247 -0.084923
C35   C     C_R   0.319909 0.470652 0.882731 -0.047052
C36   C     C_R   0.201900 0.519277 0.902854 -0.073539
C37   C     C_R   0.121183 0.564299 0.871870 -0.081235
C38   C     C_R   0.177316 0.565117 0.823207 0.506679
N2    N     N_R   0.269557 0.507723 0.800201 -0.168780
C39   C     C_R   0.340755 0.460209 0.830317 0.527174
C40   C     C_2   0.434737 0.478619 0.727584 -0.111925
C41   C     C_3   0.458994 0.471752 0.672226 0.188843
C42   C     C_1   0.191442 0.503831 0.656976 0.329080
C43   C     C_2   0.164604 0.511111 0.706845 -0.322678
C44   C     C_2   0.294016 0.498830 0.745560 -0.001651
O26   O     O_2   0.421228 0.408447 0.811738 -0.599814
C45   C     C_R   0.233564 0.498248 0.039620 0.031103
C46   C     C_R   0.086194 0.525991 0.055010 0.089646
C47   C     C_R   0.980110 0.553303 0.020285 0.046076
C48   C     C_R   0.342708 0.481350 0.077026 -0.208589
H22   H     H_    0.533975 0.473617 0.752713 0.203830
H23   H     H_    0.504151 0.394987 0.900934 0.166044
H24   H     H_    0.464161 0.412894 0.989919 0.135231
H25   H     H_    0.459636 0.464025 0.068068 0.138161
O27   O     O_2   0.710396 0.523351 0.172691 -0.620029
C49   C     C_R   0.782126 0.560104 0.082210 -0.088408
H26   H     H_    0.695725 0.575737 0.254360 0.238879
H27   H     H_    0.662456 0.570845 0.090981 0.164120
C50   C     C_R   0.947199 0.604307 0.940483 -0.290747
C51   C     C_R   0.992756 0.608233 0.891748 -0.040060
O28   O     O_2   0.149699 0.617999 0.802307 -0.522084
C52   C     C_R   0.827364 0.569972 0.034804 -0.204578
H28   H     H_    0.847850 0.637489 0.954041 0.124017
H29   H     H_    0.738940 0.586600 0.008951 0.134142
H30   H     H_    0.858799 0.550936 0.397746 0.171205
H31   H     H_    0.314911 0.435939 0.602452 0.164244
N3    N     N_R   0.513946 0.958593 0.517087 -0.065374
N4    N     N_R   0.463128 0.027205 0.518666 -0.075126
C53   C     C_2   0.410410 0.300193 0.516429 -0.457151
C54   C     C_3   0.282661 0.248798 0.511602 0.202467
C55   C     C_2   0.343131 0.172162 0.514066 -0.259584
C56   C     C_2   0.492273 0.152615 0.504491 0.015239
C57   C     C_2   0.595537 0.209591 0.494519 -0.295227
C58   C     C_1   0.539379 0.276890 0.494090 0.357811
N5    N     N_R   0.693928 0.053967 0.487419 -0.072701
N6    N     N_R   0.744736 0.985090 0.485704 -0.077093
C59   C     C_R   0.655590 0.935863 0.500491 0.159827
C60   C     C_R   0.551607 0.076391 0.503718 0.148475
C61   C     C_R   0.616521 0.809978 0.515728 -0.297700
C62   C     C_R   0.659015 0.736332 0.509705 0.287486
C63   C     C_R   0.887258 0.757042 0.468035 0.209659
C64   C     C_R   0.847064 0.831504 0.475045 -0.243633
C65   C     C_R   0.707588 0.858347 0.496963 0.023827
C66   C     C_R   0.789652 0.709709 0.483481 -0.423921
H32   H     H_    0.263306 0.132721 0.520454 0.162256
H33   H     H_    0.715047 0.195375 0.486823 0.179588
H34   H     H_    0.513517 0.829153 0.535519 0.192442
H35   H     H_    0.924482 0.868171 0.463726 0.163014
H36   H     H_    0.387927 0.356901 0.530433 0.161595
H37   H     H_    0.821668 0.652506 0.478353 0.178016
C67   C     C_2   0.048590 0.189172 0.345789 0.628049
H38   H     H_    0.029255 0.132192 0.344135 0.014072
O29   O     O_2   0.077083 0.212236 0.307391 -0.526364
C68   C     C_2   0.895427 0.709527 0.607130 0.318712
H39   H     H_    0.813198 0.754265 0.617653 0.040712
O30   O     O_2   0.862429 0.659519 0.575372 -0.589986
C69   C     C_2   0.148469 0.721080 0.584289 0.531695
H40   H     H_    0.134538 0.683882 0.549840 0.107160
O31   O     O_2   0.230187 0.772136 0.586390 -0.563840
C70   C     C_2   0.979163 0.771453 0.714608 0.687621
H41   H     H_    0.885396 0.811170 0.723790 -0.052879
O32   O     O_2   0.009074 0.724991 0.741242 -0.454433
C71   C     C_2   0.703018 0.257802 0.294510 0.703455
H42   H     H_    0.702212 0.213218 0.315857 -0.005811
O33   O     O_2   0.784981 0.251806 0.258490 -0.551150
C72   C     C_3   0.604287 0.377578 0.271398 -0.862183
H43   H     H_    0.565161 0.350997 0.233762 0.273583
H44   H     H_    0.524638 0.424959 0.281934 0.271510
H45   H     H_    0.722364 0.394434 0.268663 0.255909
C73   C     C_3   0.660320 0.152807 0.645212 -0.957899
H46   H     H_    0.570310 0.170165 0.672355 0.282583
H47   H     H_    0.610799 0.141210 0.606503 0.263512
H48   H     H_    0.717455 0.102030 0.655099 0.269354
C74   C     C_2   0.445723 0.610370 0.631330 0.475281
H49   H     H_    0.360172 0.615291 0.659145 -0.013265
O34   O     O_2   0.439393 0.564174 0.594528 -0.552291
C75   C     C_2   0.553919 0.656186 0.733601 0.595060
H50   H     H_    0.459170 0.670393 0.758457 0.055202
O35   O     O_2   0.639480 0.603950 0.738846 -0.517118
C76   C     C_3   0.272991 0.215553 0.734777 -0.945988
H51   H     H_    0.239771 0.268768 0.756431 0.246573
H52   H     H_    0.247515 0.174208 0.758234 0.263792
H53   H     H_    0.398159 0.211723 0.730030 0.273089
C77   C     C_3   0.161377 0.686093 0.309026 -0.829053
H54   H     H_    0.188149 0.637689 0.327592 0.264416
H55   H     H_    0.112964 0.666788 0.270998 0.271484
H56   H     H_    0.268933 0.711360 0.304406 0.246855
C78   C     C_2   0.907421 0.696219 0.340631 0.399269
H57   H     H_    0.887777 0.666738 0.370736 0.004741
O36   O     O_2   0.824411 0.685701 0.303118 -0.605156
C79   C     C_2   0.159870 0.844480 0.305557 0.594625
H58   H     H_    0.223040 0.821152 0.272748 0.018517
O37   O     O_2   0.208911 0.897510 0.331985 -0.574750
C80   C     C_2   0.920530 0.801097 0.266966 0.525000
H59   H     H_    0.809929 0.829734 0.263063 0.054870
O38   O     O_2   0.970099 0.761907 0.230244 -0.581353
C81   C     C_3   0.921993 0.867202 0.354171 -0.935858
H60   H     H_    0.996104 0.888361 0.386879 0.303098
H61   H     H_    0.875491 0.914235 0.336468 0.241988
H62   H     H_    0.827043 0.842229 0.369230 0.223688
C82   C     C_3   0.427439 0.732115 0.404896 -0.657894
H63   H     H_    0.472707 0.719047 0.440847 0.194272
H64   H     H_    0.376636 0.788274 0.412144 0.253682
H65   H     H_    0.342374 0.691776 0.393310 0.295352
C83   C     C_2   0.129246 0.332910 0.676702 0.383154
H66   H     H_    0.191974 0.358220 0.709552 0.022549
O39   O     O_2   0.012626 0.363729 0.662616 -0.548897
C84   C     C_3   0.085455 0.400647 0.269156 -0.719248
H67   H     H_    0.079443 0.393013 0.227621 0.214253
H68   H     H_    0.207849 0.396595 0.281875 0.261698
H69   H     H_    0.023857 0.355664 0.279768 0.272278
C85   C     C_3   0.353852 0.269027 0.635885 -1.023467
H70   H     H_    0.396399 0.219719 0.611874 0.264220
H71   H     H_    0.363854 0.315590 0.615923 0.217138
H72   H     H_    0.425848 0.279177 0.670534 0.270956
C86   C     C_2   0.892684 0.654962 0.862729 0.667494
H73   H     H_    0.840958 0.705223 0.881637 -0.045897
O40   O     O_2   0.857919 0.635825 0.818715 -0.494173
C87   C     C_2   0.009242 0.526694 0.725506 0.955304
H74   H     H_    0.967086 0.494249 0.751478 -0.059380
O41   O     O_2   0.932150 0.579381 0.715618 -0.451628
C88   C     C_3   0.219594 0.125323 0.657314 -0.812567
H75   H     H_    0.340576 0.118112 0.646392 0.251341
H76   H     H_    0.199919 0.085126 0.682328 0.238426
H77   H     H_    0.144751 0.112820 0.623143 0.247356
C89   C     C_3   0.300729 0.276586 0.395286 -0.932078
H78   H     H_    0.320981 0.256119 0.355319 0.270066
H79   H     H_    0.365783 0.324720 0.406341 0.256478
H80   H     H_    0.336608 0.232687 0.417102 0.204291

loop_
_geom_bond_atom_site_label_1
_geom_bond_atom_site_label_2
_geom_bond_distance
_ccdc_geom_bond_type
O14   Ba2   2.790181 S    
C81   H61   1.112012 S    
C74   H49   1.074424 S    
C43   C44   1.534814 S    
P2    C58   1.833286 S    
N2    C44   1.482968 S    
C47   C52   1.412489 A    
P5    C63   1.842315 S    
N1    C18   1.399933 Am   
C27   C49   1.406650 A    
C38   N2    1.390571 Am   
C18   C27   1.414217 A    
C61   C65   1.407242 A    
C55   C56   1.358448 D    
C20   C28   1.502153 S    
C25   C26   1.408173 A    
C53   H36   1.083631 S    
C89   H80   1.104586 S    
O14   P8    1.744853 S    
C73   H47   1.108118 S    
C21   C22   1.357839 D    
C74   O34   1.218077 D    
C36   C37   1.412196 A    
C83   O39   1.214706 D    
P3    O11   1.768962 S    
C13   C14   1.602962 S    
P4    O15   1.762053 S    
C84   H69   1.108404 S    
C6    C7    1.556859 S    
C72   H44   1.105391 S    
P4    O12   1.589205 D    
C87   O41   1.217693 D    
O11   C2    1.425480 S    
N5    C60   1.359907 A    
C18   O27   1.220012 D    
C75   H50   1.085305 S    
C37   C51   1.427036 A    
P7    O22   1.761259 S    
C4    O15   1.396011 S    
Ba2   O21   2.787269 S    
C43   C87   1.467850 S    
C28   H30   1.085553 S    
C85   H72   1.101842 S    
C40   H22   1.084537 S    
C50   C51   1.405501 A    
C11   C74   1.478157 S    
C79   O37   1.222730 D    
P1    O1    1.588885 D    
P5    O19   1.781847 S    
C4    C89   1.507839 S    
O2    Ba2   2.806495 S    
C10   H13   1.105865 S    
C9    C71   1.513980 S    
C35   C36   1.406534 A    
O3    Ba1   2.790940 S    
C85   H71   1.103080 S    
C56   C60   1.488477 S    
C70   H41   1.084657 S    
O5    C6    1.410488 S    
C72   H43   1.111153 S    
C30   C45   1.429583 A    
Ba1   O13   2.805812 S    
N5    N6    1.335223 A    
C76   H52   1.111126 S    
P2    O10   1.754712 S    
C68   H39   1.083836 S    
O1    Ba1   2.772433 S    
C84   H67   1.107762 S    
O7    Ba1   2.787258 S    
P4    Ba2   3.403123 S    
C29   C42   1.324729 D    
C1    H2    1.104825 S    
C69   O31   1.223716 D    
O17   Ba2   2.796419 S    
N4    C60   1.357723 A    
C52   H29   1.080430 S    
C81   H60   1.109439 S    
C15   O24   1.416394 S    
C70   O32   1.219697 D    
C49   C52   1.398178 A    
C6    C69   1.484530 S    
P8    C20   1.875368 S    
P5    O17   1.783727 S    
C24   C27   1.401735 A    
P1    C42   1.889376 S    
C45   C46   1.416105 A    
C11   C12   1.546584 S    
C35   C39   1.417376 A    
C14   C80   1.523986 S    
C73   H48   1.110636 S    
C84   H68   1.110309 S    
C38   O28   1.219406 D    
O4    P6    1.535844 D    
C12   H16   1.105770 S    
C83   H66   1.083338 S    
P8    O24   1.760961 S    
P2    Ba1   3.409890 S    
P3    C54   1.870060 S    
C80   H59   1.085373 S    
C8    C9    1.548969 S    
C1    C73   1.518980 S    
C72   H45   1.107497 S    
C1    C10   1.538999 S    
C5    H6    1.110395 S    
O6    C10   1.413979 S    
C89   H78   1.107826 S    
C5    C67   1.507452 S    
C77   H55   1.109558 S    
C73   H46   1.100958 S    
C17   N1    1.397768 Am   
C66   H37   1.082406 S    
C22   C23   1.529093 S    
C16   H19   1.110917 S    
Ba2   O20   2.820184 S    
C13   C78   1.507390 S    
C21   C28   1.326058 D    
C77   H54   1.109212 S    
P4    C21   1.851061 S    
C24   C46   1.425170 A    
C2    C83   1.508235 S    
C9    C72   1.528325 S    
C50   H28   1.081693 S    
C79   H58   1.086143 S    
P1    O2    1.541298 S    
C9    H12   1.109332 S    
C71   O33   1.221920 D    
C31   C50   1.407484 A    
C19   C20   1.512044 S    
C80   O38   1.221618 D    
C7    H8    1.113411 S    
C57   H33   1.084068 S    
C11   O22   1.404501 S    
C88   H76   1.110999 S    
C31   C47   1.424634 A    
O8    Ba1   2.795989 S    
C86   H73   1.085584 S    
C76   H53   1.104558 S    
N2    C39   1.394549 Am   
C3    H4    1.101886 S    
C82   H65   1.096343 S    
C85   H70   1.101874 S    
N1    C23   1.488389 S    
P7    C62   1.830749 S    
C19   H26   1.081232 S    
C39   O26   1.221296 D    
C26   C48   1.403901 A    
C87   H74   1.085390 S    
C51   C86   1.481603 S    
C29   C41   1.515180 S    
C1    H3    1.108773 S    
C69   H40   1.082568 S    
O12   Ba2   2.772905 S    
C82   H63   1.087193 S    
C16   H20   1.098474 S    
H18   C16   1.100125 S    
C29   H31   1.081618 S    
P2    O7    1.588297 D    
C76   H51   1.108046 S    
O16   Ba2   3.018470 S    
C30   C32   1.419922 A    
N6    C59   1.360138 A    
C3    C88   1.540875 S    
C4    C5    1.545614 S    
P3    O9    1.541557 D    
C33   H24   1.080314 S    
C33   C34   1.400949 A    
C54   C55   1.511035 S    
C34   C35   1.407478 A    
P2    O20   1.551397 S    
C11   H14   1.105415 S    
O13   Ba2   3.021729 S    
C56   C57   1.503564 S    
O3    P6    1.733597 S    
C77   H56   1.099701 S    
Ba1   Ba2   4.761222 S    
C13   C77   1.542345 S    
C88   H75   1.106133 S    
P6    C41   1.870542 S    
C62   C66   1.397560 A    
C12   H15   1.112194 S    
C64   H35   1.079641 S    
P8    O23   1.547356 D    
O19   C13   1.431831 S    
C2    C85   1.521754 S    
C48   H25   1.080515 S    
C61   H34   1.082860 S    
C5    H7    1.104026 S    
C67   O29   1.222863 D    
C24   C25   1.403342 A    
C63   C66   1.389315 A    
C7    C70   1.500271 S    
C64   C65   1.411406 A    
C89   H79   1.093739 S    
C3    C76   1.544850 S    
C26   H21   1.083381 S    
C46   C47   1.416284 A    
C15   C16   1.530285 S    
C78   H57   1.074943 S    
C15   C82   1.515168 S    
N3    C59   1.358285 A    
C8    H10   1.110855 S    
C34   H23   1.083336 S    
C2    C3    1.576343 S    
P3    O8    1.753220 S    
C57   C58   1.327804 D    
C86   O40   1.218435 D    
C17   O25   1.220907 D    
P4    O13   1.541055 S    
C40   C44   1.354762 D    
O6    P6    1.758343 S    
C88   H77   1.110039 S    
C59   C65   1.487326 S    
C12   C75   1.503143 S    
P7    O21   1.575429 D    
C19   C23   1.365653 D    
C53   C58   1.322498 D    
C53   C54   1.509530 S    
H1    C10   1.106688 S    
O2    Ba1   3.020737 S    
C42   C43   1.362090 D    
Ba1   O20   3.019340 S    
C67   H38   1.087068 S    
C68   O30   1.211702 D    
C32   C36   1.425881 A    
C37   C38   1.425782 A    
C71   H42   1.085310 S    
C75   O35   1.217059 D    
C22   C84   1.513903 S    
C78   O36   1.216840 D    
C63   C64   1.406352 A    
O16   P7    1.783830 S    
C14   C79   1.523240 S    
C15   H17   1.098908 S    
C81   H62   1.100585 S    
Ba1   O16   2.820686 S    
C31   C32   1.411630 A    
C6    C68   1.465253 S    
C7    H9    1.112462 S    
C40   C41   1.503970 S    
C30   C33   1.411559 A    
P1    O5    1.789830 S    
P1    Ba1   3.402577 S    
O10   C8    1.401671 S    
C4    H5    1.112138 S    
C61   C62   1.396072 A    
C82   H64   1.110968 S    
C17   C25   1.420581 A    
C55   H32   1.085755 S    
C14   C81   1.550900 S    
P5    O18   1.545490 D    
C45   C48   1.414105 A    
C8    H11   1.110814 S    
N3    N4    1.330909 A    
C49   H27   1.083565 S    
