data_mof_unit_19206.cif
_audit_creation_date              2012-12-11T15:54:42-0500
_audit_creation_method            fapswitch 2.2
_symmetry_space_group_name_H-M    P1
_symmetry_Int_Tables_number       1
_space_group_crystal_system       triclinic
_cell_length_a                    6.923752
_cell_length_b                    14.543399
_cell_length_c                    16.076694
_cell_angle_alpha                 90.026152
_cell_angle_beta                  90.240486
_cell_angle_gamma                 89.799715
_cell_volume                      1618.81659218

loop_
_atom_site_label
_atom_site_type_symbol
_atom_type_description
_atom_site_fract_x
_atom_site_fract_y
_atom_site_fract_z
_atom_type_partial_charge
O1    O     O_R   0.638180 0.333920 0.163320 -0.541592
O2    O     O_R   0.361820 0.666080 0.836680 -0.541592
O3    O     O_R   0.308470 0.344960 0.336080 -0.541525
O4    O     O_R   0.691530 0.655040 0.663920 -0.541525
O5    O     O_R   0.138140 0.166110 0.336680 -0.534003
O6    O     O_R   0.861860 0.833890 0.663320 -0.534003
C1    C     C_R   0.477589 0.367238 0.365039 0.682124
C2    C     C_R   0.522410 0.632762 0.634961 0.682124
O7    O     O_R   0.308460 0.344950 0.163930 -0.542022
O8    O     O_R   0.691540 0.655050 0.836070 -0.542022
O9    O     O_R   0.138140 0.166100 0.163310 -0.541922
O10   O     O_R   0.861860 0.833900 0.836690 -0.541923
C3    C     C_R   0.476453 0.368765 0.136291 0.689594
C4    C     C_R   0.523547 0.631235 0.863709 0.689594
O11   O     O_R   0.638180 0.333930 0.336700 -0.544892
O12   O     O_R   0.361820 0.666070 0.663300 -0.544892
O13   O     O_3   0.471670 0.191340 0.250000 -0.363181
O14   O     O_3   0.528330 0.808660 0.750000 -0.363180
V1    V     V_3+5 0.196830 0.260900 0.250000 1.392685
V2    V     V_3+5 0.803170 0.739100 0.750000 1.392685
O15   O     O_R   0.808420 0.155070 0.163920 -0.542995
O16   O     O_R   0.191580 0.844930 0.836080 -0.542995
C5    C     C_R   0.977449 0.132744 0.135016 0.676214
C6    C     C_R   0.022551 0.867256 0.864984 0.676215
O17   O     O_R   0.808420 0.155080 0.336070 -0.536088
O18   O     O_R   0.191580 0.844920 0.663930 -0.536088
C7    C     C_R   0.977692 0.133066 0.364640 0.701986
C8    C     C_R   0.022308 0.866934 0.635360 0.701986
V3    V     V_3+5 0.696830 0.239130 0.250000 1.398997
V4    V     V_3+5 0.303170 0.760870 0.750000 1.398997
O19   O     O_3   0.971850 0.308690 0.250010 -0.375796
O20   O     O_3   0.028150 0.691310 0.749990 -0.375796
H1    H     H_    0.274347 0.845881 0.266161 0.112920
H2    H     H_    0.725653 0.154119 0.733839 0.112920
C9    C     C_R   0.835105 0.175681 0.529383 -0.140746
C10   C     C_R   0.164895 0.824319 0.470617 -0.140746
C11   C     C_R   0.766057 0.198663 0.607981 -0.125104
C12   C     C_R   0.233943 0.801337 0.392018 -0.125104
C13   C     C_R   0.778052 0.135611 0.672702 -0.118339
C14   C     C_R   0.221948 0.864389 0.327298 -0.118339
C15   C     C_R   0.858614 0.048950 0.659264 -0.131868
C16   C     C_R   0.141386 0.951050 0.340735 -0.131868
C17   C     C_R   0.927908 0.023082 0.579846 0.069373
C18   C     C_R   0.072092 0.976917 0.420154 0.069373
C19   C     C_R   0.916153 0.087874 0.513492 0.069756
C20   C     C_R   0.083847 0.912126 0.486508 0.069756
C21   C     C_R   0.011617 0.935125 0.566399 -0.187163
C22   C     C_R   0.988383 0.064875 0.433601 -0.187163
H3    H     H_    0.825231 0.227886 0.481656 0.107214
H4    H     H_    0.174769 0.772114 0.518344 0.107214
H5    H     H_    0.703896 0.266003 0.618796 0.117631
H6    H     H_    0.296104 0.733997 0.381204 0.117631
H7    H     H_    0.867189 0.003016 0.712053 0.104774
H8    H     H_    0.132811 0.996984 0.287947 0.104774
C23   C     C_R   0.179864 0.973570 0.968551 -0.158779
C24   C     C_R   0.820136 0.026430 0.031449 -0.158779
H9    H     H_    0.320911 0.954161 0.945458 0.116212
H10   H     H_    0.679089 0.045839 0.054542 0.116212
C25   C     C_R   0.168665 0.037051 0.033866 -0.157484
C26   C     C_R   0.831335 0.962949 0.966134 -0.157484
H11   H     H_    0.301667 0.064780 0.058926 0.118867
H12   H     H_    0.698333 0.935220 0.941074 0.118867
C27   C     C_R   0.988643 0.064369 0.066231 -0.045767
C28   C     C_R   0.011357 0.935631 0.933769 -0.045766
C29   C     C_R   0.321024 0.478102 0.464675 -0.159367
C30   C     C_R   0.678976 0.521898 0.535325 -0.159367
H13   H     H_    0.180696 0.462411 0.438391 0.119317
H14   H     H_    0.819304 0.537589 0.561609 0.119317
C31   C     C_R   0.332051 0.541700 0.529902 -0.163921
C32   C     C_R   0.667949 0.458300 0.470098 -0.163921
H15   H     H_    0.199706 0.573249 0.551713 0.115827
H16   H     H_    0.800294 0.426751 0.448287 0.115827
C33   C     C_R   0.511182 0.564446 0.566153 -0.042595
C34   C     C_R   0.488818 0.435554 0.433847 -0.042595
C35   C     C_R   0.341805 0.507323 0.055587 0.083566
C36   C     C_R   0.658195 0.492677 0.944413 0.083566
C37   C     C_R   0.359482 0.567287 0.987527 -0.211738
C38   C     C_R   0.640518 0.432713 0.012473 -0.211738
H17   H     H_    0.251787 0.620738 0.978794 0.120456
H18   H     H_    0.748213 0.379261 0.021206 0.120456
C39   C     C_R   0.515274 0.562021 0.931966 -0.086828
C40   C     C_R   0.484725 0.437979 0.068034 -0.086828
C41   C     C_3   0.171353 0.522134 0.113531 -0.351317
C42   C     C_3   0.235986 0.559181 0.198714 -0.287492
C43   C     C_3   0.064812 0.569512 0.257574 -0.753932
H19   H     H_    0.957005 0.618406 0.231393 0.222128
H20   H     H_    0.994947 0.501874 0.267932 0.237739
H21   H     H_    0.115723 0.596313 0.318468 0.207631
H22   H     H_    0.343642 0.512601 0.228042 0.183858
H23   H     H_    0.305012 0.627465 0.190417 0.183426
H24   H     H_    0.068358 0.572842 0.086295 0.159044
H25   H     H_    0.086166 0.458121 0.119707 0.195114
C44   C     C_3   0.828647 0.477866 0.886468 -0.351318
C45   C     C_3   0.764013 0.440819 0.801285 -0.287492
C46   C     C_3   0.935188 0.430487 0.742426 -0.753932
H26   H     H_    0.005057 0.498124 0.732070 0.237738
H27   H     H_    0.042991 0.381591 0.768606 0.222128
H28   H     H_    0.884276 0.403688 0.681531 0.207631
H29   H     H_    0.694985 0.372536 0.809582 0.183426
H30   H     H_    0.656360 0.487400 0.771958 0.183859
H31   H     H_    0.913834 0.541879 0.880293 0.195113
H32   H     H_    0.931641 0.427158 0.913705 0.159045

loop_
_geom_bond_atom_site_label_1
_geom_bond_atom_site_label_2
_ccdc_geom_bond_type
C7    C22   S    
C30   H14   S    
C8    C21   S    
C44   C45   S    
C23   C25   A    
O13   V3    S    
C46   H26   S    
O4    C2    A    
V1    O19   S    
C46   H28   S    
C13   C15   A    
C43   H19   S    
C41   H25   S    
O9    V1    S    
C16   C18   A    
C45   H29   S    
C9    C11   A    
C36   C38   A    
O3    C1    A    
C11   H5    S    
C38   H18   S    
C19   C22   A    
C12   H6    S    
O12   V4    S    
C26   H12   S    
C31   H15   S    
O7    C3    A    
O5    C7    A    
O7    V1    S    
O6    C8    A    
O8    V2    S    
C29   H13   S    
C9    H3    S    
C31   C33   A    
O14   V4    S    
C37   C39   A    
V4    O20   S    
C5    C27   S    
C6    C28   S    
C15   C17   A    
C42   H23   S    
C18   C20   A    
O11   V3    S    
C1    C34   S    
C43   H20   S    
O17   V3    S    
C11   C13   A    
C25   H11   S    
H1    C14   S    
H2    C13   S    
C37   H17   S    
C42   C43   S    
O8    C4    A    
C44   H31   S    
C1    O11   A    
C30   C33   A    
O15   V3    S    
C3    C40   S    
C29   C34   A    
C24   C26   A    
C36   C39   A    
C32   C34   A    
C36   C44   S    
C17   C19   A    
C38   C40   A    
C41   C42   S    
C45   H30   S    
C23   C28   A    
O10   V2    S    
O1    V3    S    
C24   C27   A    
O3    V1    S    
C35   C37   A    
C15   H7    S    
O18   V4    S    
C23   H9    S    
O16   C6    A    
O1    C3    A    
C42   H22   S    
C10   C12   A    
C9    C19   A    
C10   H4    S    
V2    O20   S    
C43   H21   S    
C20   C21   A    
O16   V4    S    
O18   C8    A    
C14   C16   A    
C44   H32   S    
C46   H27   S    
C35   C40   A    
O5    V1    S    
O17   C7    A    
C41   H24   S    
O10   C6    A    
C25   C27   A    
O2    V4    S    
C26   C28   A    
O15   C5    A    
V3    O19   S    
C16   H8    S    
C12   C14   A    
C10   C20   A    
C35   C41   S    
C30   C32   A    
O6    V2    S    
C29   C31   A    
O9    C5    A    
C2    C33   S    
O13   V1    S    
C24   H10   S    
O14   V2    S    
C45   C46   S    
O2    C4    A    
O4    V2    S    
C2    O12   A    
C32   H16   S    
C4    C39   S    
C17   C21   A    
C18   C22   A    
