data_mof_unit_17146.cif
_audit_creation_date              2012-12-10T16:50:08-0500
_audit_creation_method            fapswitch 2.2
_symmetry_space_group_name_H-M    P1
_symmetry_Int_Tables_number       1
_space_group_crystal_system       triclinic
_cell_length_a                    7.773696
_cell_length_b                    8.640852
_cell_length_c                    10.606172
_cell_angle_alpha                 91.477844
_cell_angle_beta                  85.655538
_cell_angle_gamma                 93.440116
_cell_volume                      708.942280198

loop_
_atom_site_label
_atom_site_type_symbol
_atom_type_description
_atom_site_fract_x
_atom_site_fract_y
_atom_site_fract_z
_atom_type_partial_charge
C1    C     C_R   0.544873 0.794054 0.496383 0.944178
C2    C     C_R   0.451712 0.648587 0.940180 0.101137
C3    C     C_R   0.507999 0.516566 0.871509 -0.073434
C4    C     C_R   0.565104 0.388701 0.929389 -0.206319
C5    C     C_R   0.560893 0.386835 0.058235 -0.133620
C6    C     C_R   0.498417 0.512278 0.128598 -0.058979
C7    C     C_2   0.565346 0.953982 0.475935 -0.105583
C8    C     C_2   0.435224 0.044879 0.518858 -0.102638
C9    C     C_R   0.502651 0.505605 0.739331 0.851451
C10   C     C_R   0.455197 0.205867 0.501344 0.947181
C11   C     C_R   0.498865 0.502483 0.260637 0.890126
C12   C     C_R   0.405427 0.783194 0.880747 -0.253157
C13   C     C_R   0.352803 0.911914 0.952621 -0.186550
C14   C     C_R   0.346414 0.909191 0.084145 0.441603
C15   C     C_R   0.393932 0.778030 0.143927 -0.227043
C16   C     C_R   0.446237 0.646153 0.072402 0.025684
H1    H     H_    0.608847 0.288793 0.874667 0.151456
H2    H     H_    0.986363 0.618266 0.594457 0.199353
H3    H     H_    0.412028 0.790982 0.778923 0.167249
H4    H     H_    0.318119 0.014297 0.906023 0.162756
H5    H     H_    0.391106 0.781680 0.245930 0.175726
H6    H     H_    0.603779 0.286324 0.103560 0.172438
H7    H     H_    0.013648 0.381726 0.405548 0.211938
N1    N     N_2   0.950330 0.457950 0.466250 -0.171211
N2    N     N_2   0.049670 0.542050 0.533750 -0.165559
O1    O     O_R   0.389250 0.738570 0.508280 -0.608311
O2    O     O_R   0.678390 0.711630 0.486650 -0.614923
O3    O     O_R   0.355400 0.513470 0.694050 -0.614536
O4    O     O_R   0.644540 0.486530 0.672420 -0.626925
O5    O     O_R   0.321610 0.288370 0.513350 -0.615910
O6    O     O_R   0.610750 0.261430 0.491720 -0.643903
O7    O     O_R   0.355460 0.513470 0.327580 -0.610843
O8    O     O_R   0.644600 0.486530 0.305950 -0.614230
Zn1   Zn    Zn3+2 0.306930 0.517990 0.514440 0.971465
Zn2   Zn    Zn3+2 0.693070 0.482010 0.485560 0.955428
Cl1   Cl    Cl    0.279796 0.070688 0.174793 -0.694910
N3    N     N_3   0.714059 0.004510 0.394293 -0.435924
H8    H     H_    0.805073 0.066634 0.446395 0.224335
H9    H     H_    0.676497 0.069237 0.320092 0.220436
N4    N     N_3   0.284339 0.987172 0.594898 -0.435928
H10   H     H_    0.174677 0.009283 0.548461 0.221350
H11   H     H_    0.278485 0.048311 0.681318 0.165145

loop_
_geom_bond_atom_site_label_1
_geom_bond_atom_site_label_2
_ccdc_geom_bond_type
H7    N1    S    
N3    H8    S    
C3    C9    S    
C11   O8    A    
C2    C16   A    
O4    Zn2   S    
C9    O4    A    
N2    Zn1   S    
C2    C12   A    
N4    H11   S    
C2    C3    A    
C7    N3    S    
O3    Zn1   S    
C7    C8    D    
N3    H9    S    
C13   C14   A    
N1    N2    D    
C5    C6    A    
H2    N2    S    
C4    H1    S    
C12   H3    S    
N4    H10   S    
O8    Zn2   S    
C11   O7    A    
C14   Cl1   S    
C1    O1    A    
O6    Zn2   S    
N1    Zn2   S    
O5    Zn1   S    
C6    C16   A    
C3    C4    A    
C15   H5    S    
C12   C13   A    
C8    C10   S    
C6    C11   S    
C1    O2    A    
C10   O5    A    
C14   C15   A    
C8    N4    S    
C13   H4    S    
O2    Zn2   S    
C1    C7    S    
C10   O6    A    
O1    Zn1   S    
C5    H6    S    
C15   C16   A    
C9    O3    A    
C4    C5    A    
O7    Zn1   S    
