data_mof_unit_46680.cif
_audit_creation_date              2012-12-10T17:15:56-0500
_audit_creation_method            fapswitch 2.2
_symmetry_space_group_name_H-M    P1
_symmetry_Int_Tables_number       1
_space_group_crystal_system       triclinic
_cell_length_a                    10.086996
_cell_length_b                    10.763196
_cell_length_c                    10.626368
_cell_angle_alpha                 90.308193
_cell_angle_beta                  95.083916
_cell_angle_gamma                 80.866983
_cell_volume                      1134.53565802

loop_
_atom_site_label
_atom_site_type_symbol
_atom_type_description
_atom_site_fract_x
_atom_site_fract_y
_atom_site_fract_z
_atom_type_partial_charge
C1    C     C_R   0.444171 0.502721 0.265779 0.845141
C2    C     C_2   0.488381 0.418765 0.929370 -0.184450
C3    C     C_2   0.073620 0.488983 0.489580 -0.095900
C4    C     C_R   0.498754 0.259076 0.493147 0.915079
C5    C     C_2   0.930172 0.499064 0.519684 -0.140304
C6    C     C_R   0.555766 0.485559 0.734019 0.939282
C7    C     C_R   0.504085 0.738467 0.514678 0.906573
C8    C     C_R   0.735007 0.069373 0.420051 -0.165577
C9    C     C_R   0.859162 0.986319 0.429080 0.065222
C10   C     C_R   0.871972 0.878390 0.504579 -0.196877
C11   C     C_R   0.759031 0.843974 0.551747 -0.140237
C12   C     C_R   0.622280 0.039525 0.478725 0.010187
C13   C     C_R   0.630934 0.917087 0.524245 0.099211
C14   C     C_R   0.974726 0.009688 0.359344 0.087149
C15   C     C_R   0.059528 0.908857 0.307855 -0.152535
C16   C     C_R   0.168204 0.930984 0.242777 -0.125479
C17   C     C_R   0.192801 0.053730 0.226954 -0.101665
C18   C     C_R   0.109189 0.154404 0.276810 -0.069127
C19   C     C_R   0.001651 0.132315 0.343581 -0.153262
C20   C     C_R   0.500085 0.124161 0.492250 -0.196314
C21   C     C_R   0.383576 0.078456 0.525724 0.453417
C22   C     C_R   0.388814 0.950505 0.539818 -0.311593
C23   C     C_R   0.510123 0.869860 0.534154 -0.184816
C24   C     C_2   0.413433 0.487675 0.130227 0.191515
C25   C     C_2   0.502957 0.411311 0.066249 0.405398
C26   C     C_2   0.585634 0.455081 0.867195 -0.400630
H1    H     H_    0.898461 0.549916 0.603002 0.155611
H2    H     H_    0.683764 0.463700 0.914481 0.167134
H3    H     H_    0.196476 0.110967 0.569308 0.331618
H4    H     H_    0.249548 0.610205 0.127948 0.332765
H5    H     H_    0.041201 0.812984 0.316658 0.135382
H6    H     H_    0.233061 0.852895 0.204197 0.137412
H7    H     H_    0.276957 0.070798 0.176615 0.130134
H8    H     H_    0.129050 0.249380 0.265390 0.127723
H9    H     H_    0.941374 0.210018 0.385992 0.128487
H10   H     H_    0.662854 0.284009 0.065083 0.337896
H11   H     H_    0.109338 0.426273 0.415316 0.170788
H12   H     H_    0.873357 0.412748 0.364366 0.169364
H13   H     H_    0.120483 0.609030 0.622067 0.161848
H14   H     H_    0.724826 0.151540 0.359934 0.183080
H15   H     H_    0.968111 0.817586 0.522722 0.128753
H16   H     H_    0.771924 0.758742 0.607882 0.143410
H17   H     H_    0.296737 0.914096 0.553037 0.174714
H18   H     H_    0.389941 0.410963 0.882048 0.208053
N1    N     N_2   0.157290 0.551390 0.551110 -0.195946
N2    N     N_2   0.842740 0.448550 0.448960 -0.191117
O1    O     O_R   0.568950 0.489660 0.307530 -0.553242
O2    O     O_3   0.299187 0.555476 0.066599 -0.804113
O3    O     O_3   0.612349 0.334896 0.128623 -0.796217
O4    O     O_R   0.348880 0.522640 0.340350 -0.636458
O5    O     O_R   0.610060 0.300270 0.483590 -0.625517
O6    O     O_R   0.389990 0.333260 0.516410 -0.542498
O7    O     O_R   0.651120 0.477360 0.659650 -0.619578
O8    O     O_R   0.431050 0.510340 0.692470 -0.596145
O9    O     O_R   0.610010 0.666740 0.483590 -0.618078
O10   O     O_R   0.389940 0.699730 0.516410 -0.617378
O11   O     O_3   0.264713 0.158980 0.540806 -0.750436
Zn1   Zn    Zn3+2 0.646940 0.477980 0.478090 0.960878
Zn2   Zn    Zn3+2 0.353060 0.522020 0.521910 0.962265

loop_
_geom_bond_atom_site_label_1
_geom_bond_atom_site_label_2
_ccdc_geom_bond_type
O7    Zn1   S    
C24   C25   D    
C15   H5    S    
O6    Zn2   S    
C7    O9    A    
C16   H6    S    
C11   C13   A    
C9    C10   A    
C26   H2    S    
C22   H17   S    
C1    C24   S    
O10   Zn2   S    
C8    C12   A    
H13   N1    S    
C12   C20   A    
C17   C18   A    
C2    C26   D    
O5    Zn1   S    
C19   H9    S    
C21   C22   A    
N2    Zn1   S    
O1    Zn1   S    
C21   O11   S    
C18   H8    S    
C13   C23   A    
C6    C26   S    
C5    N2    D    
C17   H7    S    
C7    O10   A    
C4    O6    A    
C7    C23   S    
O4    Zn2   S    
H4    O2    S    
C6    O8    A    
C2    C25   S    
O8    Zn2   S    
C22   C23   A    
C25   O3    S    
C6    O7    A    
H12   N2    S    
C16   C17   A    
C10   C11   A    
C4    O5    A    
C15   C16   A    
C24   O2    S    
C12   C13   A    
C3    H11   S    
C11   H16   S    
C18   C19   A    
C1    O4    A    
O9    Zn1   S    
C2    H18   S    
C9    C14   S    
C14   C15   A    
C1    O1    A    
C8    H14   S    
C3    C5    S    
C20   C21   A    
C5    H1    S    
C14   C19   A    
C3    N1    D    
N1    Zn2   S    
H10   O3    S    
H3    O11   S    
C8    C9    A    
C10   H15   S    
C4    C20   S    
