data_mof_unit_31838.cif
_audit_creation_date              2013-03-05T16:23:34-0500
_audit_creation_method            fapswitch 2.2
_symmetry_space_group_name_H-M    P1
_symmetry_Int_Tables_number       1
_space_group_crystal_system       triclinic
_cell_length_a                    15.897048
_cell_length_b                    15.111856
_cell_length_c                    13.933039
_cell_angle_alpha                 91.900187
_cell_angle_beta                  87.230356
_cell_angle_gamma                 90.470514
_cell_volume                      3341.36669199

loop_
_atom_site_label
_atom_site_type_symbol
_atom_site_description
_atom_site_fract_x
_atom_site_fract_y
_atom_site_fract_z
_atom_type_partial_charge
O1    O     O_R   0.500010 0.371450 0.581430 -0.577417
O2    O     O_R   0.499990 0.628550 0.418570 -0.590097
O3    O     O_R   0.500010 0.371460 0.418560 -0.566985
O4    O     O_R   0.499990 0.628540 0.581440 -0.580728
C1    C     C_R   0.499397 0.330069 0.497765 0.790017
C2    C     C_R   0.495003 0.670384 0.501750 0.789877
O5    O     O_R   0.379080 0.499990 0.581420 -0.580956
O6    O     O_R   0.620920 0.500010 0.418580 -0.561031
O7    O     O_R   0.379080 0.500000 0.418550 -0.597892
O8    O     O_R   0.620920 0.500000 0.581450 -0.593584
C3    C     C_R   0.339845 0.500233 0.502387 0.825934
C4    C     C_R   0.660080 0.498668 0.497926 0.836498
Cu1   Cu    Cu3+1 0.500000 0.499990 0.596430 0.939253
Cu2   Cu    Cu3+1 0.500000 0.500010 0.403570 0.946490
C5    C     C_3   0.965177 0.459336 0.591463 -0.041592
C6    C     C_3   0.032605 0.537798 0.433359 -0.036632
C7    C     C_3   0.028371 0.415513 0.515443 -0.035561
C8    C     C_3   0.970287 0.581887 0.509957 -0.029833
C9    C     C_1   0.250225 0.500901 0.509222 -0.196695
C10   C     C_1   0.749564 0.495765 0.494197 -0.206079
C11   C     C_3   0.021025 0.544570 0.591542 -0.029838
C12   C     C_3   0.977827 0.452290 0.432882 -0.024100
C13   C     C_3   0.082773 0.500940 0.515508 0.035504
C14   C     C_3   0.915424 0.496454 0.508656 0.040838
C15   C     C_1   0.174675 0.501244 0.514762 -0.090760
C16   C     C_1   0.824773 0.494656 0.497571 -0.086988
C17   C     C_R   0.417440 0.101041 0.532069 -0.164293
C18   C     C_R   0.465108 0.898155 0.410130 -0.178069
C19   C     C_R   0.427327 0.192057 0.539238 -0.211832
C20   C     C_R   0.470145 0.807292 0.415929 -0.212520
C21   C     C_R   0.494109 0.233580 0.490109 -0.077272
C22   C     C_R   0.483295 0.767634 0.503694 -0.098355
C23   C     C_R   0.546829 0.183515 0.424355 -0.061683
C24   C     C_R   0.482953 0.821808 0.589165 -0.057307
C25   C     C_R   0.542320 0.090276 0.424143 -0.032989
C26   C     C_R   0.481590 0.915290 0.582150 -0.024536
C27   C     C_R   0.477777 0.049211 0.480440 0.044610
C28   C     C_R   0.475332 0.952677 0.491245 0.055674
C29   C     C_R   0.578217 0.503326 0.105189 -0.315262
C30   C     C_R   0.462702 0.433830 0.893375 -0.303768
C31   C     C_R   0.573278 0.518506 0.205261 0.195892
C32   C     C_R   0.452760 0.440866 0.794559 0.181766
N1    N     N_R   0.500000 0.500020 0.258690 -0.189457
N2    N     N_R   0.500000 0.499980 0.741310 -0.198133
C33   C     C_R   0.428981 0.479272 0.210902 -0.007953
C34   C     C_R   0.553556 0.556086 0.787782 0.034279
C35   C     C_R   0.427990 0.481234 0.109259 -0.078584
C36   C     C_R   0.559138 0.557408 0.889666 -0.073584
C37   C     C_R   0.505160 0.492594 0.053999 0.057882
C38   C     C_R   0.510451 0.495215 0.944689 0.055297
C39   C     C_R   0.066283 0.323358 0.511545 0.119093
C40   C     C_R   0.030840 0.254615 0.566239 -0.191953
C41   C     C_R   0.067613 0.170747 0.562483 -0.155875
C42   C     C_R   0.139260 0.154034 0.502940 -0.115557
C43   C     C_R   0.172965 0.220553 0.445216 -0.138093
C44   C     C_R   0.135972 0.304246 0.448315 -0.106074
H1    H     H_    0.973608 0.264265 0.609907 0.143791
H2    H     H_    0.040151 0.118477 0.605349 0.125976
H3    H     H_    0.167811 0.089165 0.500354 0.116907
H4    H     H_    0.227513 0.207145 0.397581 0.124958
H5    H     H_    0.161909 0.353934 0.401098 0.118795
C45   C     C_R   0.945222 0.678654 0.517409 0.100861
C46   C     C_R   0.008296 0.744179 0.508904 -0.126095
C47   C     C_R   0.987867 0.833902 0.518409 -0.135362
C48   C     C_R   0.904391 0.859315 0.537749 -0.126413
C49   C     C_R   0.841343 0.795000 0.548049 -0.151774
C50   C     C_R   0.861595 0.705138 0.538832 -0.154687
H6    H     H_    0.073487 0.725695 0.494704 0.131068
H7    H     H_    0.036868 0.883732 0.511201 0.121766
H8    H     H_    0.888687 0.928813 0.545613 0.114090
H9    H     H_    0.776732 0.814761 0.564056 0.129052
H10   H     H_    0.811713 0.657594 0.550379 0.140402
H11   H     H_    0.370814 0.466082 0.251255 0.136478
H12   H     H_    0.590689 0.602400 0.745553 0.138393
C51   C     C_R   0.344867 0.476147 0.065006 0.085215
C52   C     C_R   0.319177 0.543868 0.006304 -0.154726
C53   C     C_R   0.240175 0.539780 0.966297 -0.156966
C54   C     C_R   0.186124 0.468315 0.984560 -0.081193
C55   C     C_R   0.210803 0.401004 0.043357 -0.121200
C56   C     C_R   0.289696 0.404885 0.083734 -0.184617
H13   H     H_    0.360065 0.599976 0.992296 0.121992
H14   H     H_    0.220746 0.592065 0.921237 0.128225
H15   H     H_    0.125070 0.465226 0.953328 0.123607
H16   H     H_    0.168709 0.345861 0.057798 0.123667
H17   H     H_    0.307984 0.352191 0.129098 0.119741
C57   C     C_R   0.616439 0.623992 0.933907 0.105290
C58   C     C_R   0.589277 0.678220 0.013414 -0.149887
C59   C     C_R   0.643910 0.740426 0.053765 -0.159098
C60   C     C_R   0.726008 0.749738 0.015137 -0.102680
C61   C     C_R   0.753537 0.696958 0.935802 -0.130519
C62   C     C_R   0.699328 0.634281 0.895444 -0.174007
H18   H     H_    0.525746 0.672700 0.044194 0.119868
H19   H     H_    0.622273 0.781754 0.114714 0.124593
H20   H     H_    0.768139 0.798091 0.046442 0.114975
H21   H     H_    0.816885 0.704696 0.905363 0.121064
H22   H     H_    0.722334 0.593328 0.834623 0.119114
C63   C     C_R   0.930344 0.420456 0.684896 0.089327
C64   C     C_R   0.986490 0.387544 0.749527 -0.150800
C65   C     C_R   0.957827 0.356952 0.838916 -0.147268
C66   C     C_R   0.872124 0.359351 0.865477 -0.113633
C67   C     C_R   0.815242 0.392163 0.802461 -0.145874
C68   C     C_R   0.843959 0.422636 0.712894 -0.175025
H23   H     H_    0.052440 0.384750 0.730001 0.122232
H24   H     H_    0.002177 0.331679 0.887661 0.117891
H25   H     H_    0.849855 0.336158 0.934940 0.113340
H26   H     H_    0.748807 0.394986 0.823433 0.131037
H27   H     H_    0.798144 0.449949 0.668370 0.148174
C69   C     C_R   0.070156 0.582136 0.344810 0.092060
C70   C     C_R   0.025899 0.648932 0.300956 -0.176367
C71   C     C_R   0.060169 0.689549 0.219158 -0.148082
C72   C     C_R   0.138863 0.663715 0.179751 -0.109562
C73   C     C_R   0.182348 0.595953 0.221009 -0.119301
C74   C     C_R   0.147390 0.553772 0.301336 -0.145500
H28   H     H_    0.964423 0.669272 0.328917 0.132629
H29   H     H_    0.025625 0.741080 0.186364 0.123640
H30   H     H_    0.165767 0.695531 0.116792 0.117766
H31   H     H_    0.243162 0.575780 0.190723 0.144621
H32   H     H_    0.180782 0.498672 0.328241 0.131007
C75   C     C_R   0.952624 0.391571 0.349898 0.113873
C76   C     C_R   0.966552 0.414313 0.253280 -0.166865
C77   C     C_R   0.948849 0.353687 0.178816 -0.165489
C78   C     C_R   0.917617 0.269546 0.199738 -0.119045
C79   C     C_R   0.902279 0.246528 0.295221 -0.125522
C80   C     C_R   0.917979 0.307764 0.369763 -0.146951
H33   H     H_    0.990556 0.478338 0.233998 0.148543
H34   H     H_    0.959838 0.371857 0.104716 0.125660
H35   H     H_    0.904284 0.222625 0.141981 0.122128
H36   H     H_    0.876598 0.181873 0.311516 0.138538
H37   H     H_    0.903477 0.289434 0.443130 0.130217
C81   C     C_R   0.044328 0.600511 0.679107 0.118500
C82   C     C_R   0.986121 0.612964 0.757645 -0.119516
C83   C     C_R   0.007658 0.663785 0.838607 -0.140061
C84   C     C_R   0.085802 0.706325 0.840309 -0.121051
C85   C     C_R   0.142196 0.698707 0.760673 -0.164554
C86   C     C_R   0.121811 0.646192 0.680599 -0.157802
H38   H     H_    0.923762 0.584200 0.756597 0.135355
H39   H     H_    0.963474 0.670975 0.899788 0.118306
H40   H     H_    0.102057 0.746414 0.902623 0.114855
H41   H     H_    0.201388 0.734403 0.760439 0.120776
H42   H     H_    0.165935 0.643990 0.619327 0.130501
H43   H     H_    0.364583 0.070508 0.570571 0.135540
H44   H     H_    0.453863 0.926153 0.341477 0.130698
H45   H     H_    0.380468 0.230912 0.579301 0.164405
H46   H     H_    0.462482 0.768049 0.350667 0.150466
C87   C     C_R   0.599365 0.227193 0.348855 0.136429
C88   C     C_R   0.576645 0.218264 0.252705 -0.110778
C89   C     C_R   0.625194 0.258050 0.179854 -0.133751
C90   C     C_R   0.695271 0.309066 0.202793 -0.125831
C91   C     C_R   0.715440 0.322224 0.298911 -0.103970
C92   C     C_R   0.668822 0.280044 0.371825 -0.129076
H47   H     H_    0.521273 0.180359 0.234283 0.105575
H48   H     H_    0.608184 0.249786 0.105765 0.121310
H49   H     H_    0.733203 0.339154 0.145962 0.115521
H50   H     H_    0.767248 0.365248 0.316961 0.152231
H51   H     H_    0.686022 0.289397 0.445779 0.098244
C93   C     C_R   0.475158 0.784037 0.686099 0.135001
C94   C     C_R   0.400147 0.740571 0.715396 -0.106562
C95   C     C_R   0.383404 0.723291 0.812341 -0.162556
C96   C     C_R   0.439386 0.752716 0.880778 -0.120857
C97   C     C_R   0.514891 0.794104 0.851764 -0.114684
C98   C     C_R   0.534394 0.806422 0.754542 -0.148360
H52   H     H_    0.353326 0.723417 0.663813 0.106228
H53   H     H_    0.325579 0.690334 0.834989 0.111233
H54   H     H_    0.423846 0.744129 0.956282 0.107403
H55   H     H_    0.557700 0.818655 0.904518 0.146974
H56   H     H_    0.592419 0.840150 0.733432 0.123484
C99   C     C_R   0.609050 0.037421 0.371163 0.131278
C100  C     C_R   0.684786 0.020826 0.414925 -0.143237
C101  C     C_R   0.749571 0.974825 0.363981 -0.153196
C102  C     C_R   0.739416 0.945718 0.268960 -0.126043
C103  C     C_R   0.664302 0.962266 0.224845 -0.142417
C104  C     C_R   0.599288 0.007945 0.275629 -0.149657
H57   H     H_    0.693992 0.044358 0.487913 0.107738
H58   H     H_    0.807917 0.962306 0.397842 0.127036
H59   H     H_    0.789666 0.910228 0.229583 0.119701
H60   H     H_    0.656656 0.940246 0.151076 0.118583
H61   H     H_    0.541725 0.020956 0.240278 0.101473
C105  C     C_R   0.484309 0.974428 0.669599 0.112257
C106  C     C_R   0.556405 0.025818 0.686614 -0.136149
C107  C     C_R   0.558020 0.083196 0.767315 -0.133465
C108  C     C_R   0.487854 0.089512 0.831539 -0.128093
C109  C     C_R   0.415885 0.038559 0.815092 -0.142076
C110  C     C_R   0.413942 0.981197 0.734410 -0.140137
H62   H     H_    0.611066 0.021394 0.637377 0.110228
H63   H     H_    0.613631 0.122860 0.780010 0.122876
H64   H     H_    0.489143 0.134130 0.893865 0.115735
H65   H     H_    0.361466 0.043800 0.864652 0.121181
H66   H     H_    0.357584 0.942607 0.721876 0.118577
H67   H     H_    0.638476 0.510565 0.066533 0.156861
H68   H     H_    0.427114 0.383520 0.931701 0.159056
C111  C     C_R   0.641955 0.573414 0.244525 0.161283
C112  C     C_R   0.625280 0.661030 0.275224 -0.086504
C113  C     C_R   0.689085 0.715500 0.310151 -0.171252
C114  C     C_R   0.771532 0.684439 0.309578 -0.132367
C115  C     C_R   0.790121 0.599330 0.272798 -0.123276
C116  C     C_R   0.725929 0.544665 0.238908 -0.155017
H69   H     H_    0.563191 0.687877 0.268997 0.116098
H70   H     H_    0.674686 0.782176 0.336038 0.157477
H71   H     H_    0.821098 0.727124 0.335373 0.136627
H72   H     H_    0.854214 0.575733 0.269632 0.131425
H73   H     H_    0.742205 0.480994 0.207098 0.112798
C117  C     C_R   0.378047 0.396106 0.758165 0.161962
C118  C     C_R   0.305421 0.446412 0.748939 -0.068983
C119  C     C_R   0.229407 0.405169 0.729014 -0.149846
C120  C     C_R   0.223633 0.312771 0.724454 -0.116131
C121  C     C_R   0.294318 0.261907 0.740372 -0.163935
C122  C     C_R   0.371568 0.303378 0.756921 -0.195589
H74   H     H_    0.307822 0.517992 0.756871 0.122870
H75   H     H_    0.175543 0.445935 0.718288 0.136290
H76   H     H_    0.164457 0.280439 0.710005 0.141541
H77   H     H_    0.289573 0.190372 0.738894 0.136812
H78   H     H_    0.425830 0.263542 0.770260 0.142930

loop_
_geom_bond_atom_site_label_1
_geom_bond_atom_site_label_2
_geom_bond_distance
_ccdc_geom_bond_type
C104  H61   1.082390 S    
C2    C22   1.482083 S    
C118  C119  1.390802 A    
C115  H72   1.080667 S    
C67   C68   1.399080 A    
C17   C19   1.383949 A    
C8    C11   1.548979 S    
C101  C102  1.397562 A    
C72   C73   1.394983 A    
C34   H12   1.082336 S    
C103  C104  1.397863 A    
C86   H42   1.078224 S    
C7    C39   1.520275 S    
C87   C88   1.406175 A    
C61   C62   1.397871 A    
C91   C92   1.396424 A    
C61   H21   1.080623 S    
C29   C31   1.404056 A    
C41   C42   1.395996 A    
C76   C77   1.398560 A    
C48   C49   1.396108 A    
O5    C3    1.291620 A    
C3    C9    1.423380 S    
C66   H25   1.082681 S    
C7    C13   1.547964 S    
C45   C50   1.406805 A    
O1    C1    1.304867 A    
C53   H14   1.081434 S    
C93   C94   1.406379 A    
C25   C27   1.413221 A    
C27   C28   1.471508 S    
C14   C16   1.456675 S    
C39   C44   1.407462 A    
C57   C62   1.407691 A    
C96   C97   1.397463 A    
C55   H16   1.082407 S    
C29   H67   1.082610 S    
C43   C44   1.397665 A    
C102  C103  1.397209 A    
C48   H8    1.082309 S    
C19   H45   1.075418 S    
C108  C109  1.397681 A    
O4    Cu1   1.960698 S    
C20   H46   1.080326 S    
C69   C70   1.407600 A    
C33   H11   1.079380 S    
C50   H10   1.075586 S    
C78   H35   1.082345 S    
C37   C38   1.523096 S    
C109  C110  1.397987 A    
C23   C25   1.410165 A    
C62   H22   1.083449 S    
C111  C116  1.405024 A    
C121  H77   1.082609 S    
C94   C95   1.396802 A    
C89   C90   1.393371 A    
C83   C84   1.394893 A    
C119  H75   1.078054 S    
C25   C99   1.485700 S    
C101  H58   1.081566 S    
C21   C23   1.415771 A    
C72   H30   1.082558 S    
C8    C14   1.552193 S    
C51   C56   1.406427 A    
C24   C26   1.419711 A    
C63   C68   1.409697 A    
C106  H62   1.081880 S    
C102  H59   1.082563 S    
C74   H32   1.078336 S    
C30   C32   1.401029 A    
C65   H24   1.082651 S    
C84   H40   1.082510 S    
C91   H50   1.079193 S    
C75   C80   1.407461 A    
Cu1   Cu2   2.687135 S    
C100  H57   1.082405 S    
C31   N1    1.383425 A    
O2    C2    1.300950 A    
C32   N2    1.375336 A    
C5    C63   1.523887 S    
O2    Cu2   1.946785 S    
C54   H15   1.082722 S    
C73   C74   1.396118 A    
N2    C34   1.366750 A    
C113  H70   1.081413 S    
C63   C64   1.403423 A    
C42   H3    1.082440 S    
C33   C35   1.418334 A    
C12   C75   1.519107 S    
C34   C36   1.426059 A    
C117  C118  1.400935 A    
C31   C111  1.480691 S    
C39   C40   1.406685 A    
C105  C106  1.404394 A    
C79   C80   1.398165 A    
C108  H64   1.082496 S    
C26   C105  1.489069 S    
C52   C53   1.398552 A    
C35   C37   1.428733 A    
C82   H38   1.079717 S    
C40   H1    1.077970 S    
C85   H41   1.080709 S    
O7    Cu2   1.923517 S    
C59   H19   1.081495 S    
C121  C122  1.399699 A    
C8    C45   1.517714 S    
O6    Cu2   1.943633 S    
C83   H39   1.081227 S    
C53   C54   1.396869 A    
C111  C112  1.401276 A    
C88   H47   1.082881 S    
C22   C24   1.422399 A    
C69   C74   1.406299 A    
C105  C110  1.405473 A    
C51   C52   1.406307 A    
C49   H9    1.082755 S    
C56   H17   1.083074 S    
C119  C120  1.398108 A    
N1    C33   1.367204 A    
C65   C66   1.394874 A    
C96   H54   1.080732 S    
C18   C28   1.391548 A    
O6    C4    1.295515 A    
C4    C10   1.421961 S    
C45   C46   1.407101 A    
C68   H27   1.072960 S    
C71   C72   1.395099 A    
C112  H69   1.078664 S    
C90   C91   1.399521 A    
C75   C76   1.407120 A    
C36   C38   1.431290 A    
O7    C3    1.297250 A    
C77   C78   1.395882 A    
C99   C104  1.404910 A    
O3    Cu2   1.960701 S    
O8    C4    1.292625 A    
C95   H53   1.080505 S    
C70   H28   1.077748 S    
C114  C115  1.397146 A    
O4    C2    1.301865 A    
C100  C101  1.398625 A    
C29   C37   1.397539 A    
C81   C86   1.407735 A    
C93   C98   1.403834 A    
C64   C65   1.397282 A    
C6    C13   1.547303 S    
C92   H51   1.083227 S    
C11   C13   1.544149 S    
C95   C96   1.395119 A    
C84   C85   1.394705 A    
C12   C14   1.551479 S    
C55   C56   1.399169 A    
C32   C117  1.465467 S    
O1    Cu1   1.946788 S    
C90   H49   1.081937 S    
C82   C83   1.398258 A    
C99   C100  1.403672 A    
C58   H18   1.081672 S    
C40   C41   1.398435 A    
C88   C89   1.394480 A    
C118  H74   1.084241 S    
C67   H26   1.082906 S    
C5    C7    1.559248 S    
C120  C121  1.397230 A    
C42   C43   1.395541 A    
C5    C14   1.552326 S    
C6    C12   1.552290 S    
C57   C58   1.408753 A    
C87   C92   1.400792 A    
C46   C47   1.397346 A    
O3    C1    1.286013 A    
O8    Cu1   1.923516 S    
C52   H13   1.081287 S    
C60   H20   1.082501 S    
C18   H44   1.081917 S    
C41   H2    1.082430 S    
C85   C86   1.396984 A    
C24   C93   1.482909 S    
C106  C107  1.398067 A    
C47   H7    1.082463 S    
C103  H60   1.081979 S    
C46   H6    1.082805 S    
C7    C12   1.554599 S    
C73   H31   1.078212 S    
C117  C122  1.403824 A    
C112  C113  1.396649 A    
C97   H55   1.080356 S    
C81   C82   1.407271 A    
C116  H73   1.074204 S    
C35   C51   1.485316 S    
C77   H34   1.082788 S    
C19   C21   1.391642 A    
C64   H23   1.071144 S    
C110  H66   1.083081 S    
C47   C48   1.395729 A    
C26   C28   1.412057 A    
C20   C22   1.404821 A    
C54   C55   1.397350 A    
C79   H36   1.082613 S    
C122  H78   1.082805 S    
C5    C11   1.558360 S    
C10   C16   1.199064 T    
C120  H76   1.080947 S    
C17   C27   1.399736 A    
C30   C38   1.394560 A    
C71   H29   1.082423 S    
C18   C20   1.381358 A    
C66   C67   1.395486 A    
C17   H43   1.083154 S    
C80   H37   1.081561 S    
C89   H48   1.082681 S    
C36   C57   1.490056 S    
C109  H65   1.082251 S    
C13   C15   1.460474 S    
C76   H33   1.074792 S    
C9    C15   1.199811 T    
C97   C98   1.393149 A    
C11   C81   1.520043 S    
C107  H63   1.082344 S    
C6    C69   1.518062 S    
C98   H56   1.083127 S    
C115  C116  1.397706 A    
C114  H71   1.081560 S    
O5    Cu1   1.943634 S    
C30   H68   1.083468 S    
C59   C60   1.395314 A    
C58   C59   1.397432 A    
C6    C8    1.557519 S    
C113  C114  1.395383 A    
C70   C71   1.397623 A    
C49   C50   1.398537 A    
C78   C79   1.395795 A    
C44   H5    1.080789 S    
C60   C61   1.396462 A    
C43   H4    1.082515 S    
C94   H52   1.083473 S    
Cu1   N2    2.018624 S    
C107  C108  1.397737 A    
C23   C87   1.480499 S    
Cu2   N1    2.018624 S    
C1    C21   1.460518 S    
