data_mof_unit_33214.cif
_audit_creation_date              2012-12-11T15:35:01-0500
_audit_creation_method            fapswitch 2.2
_symmetry_space_group_name_H-M    P1
_symmetry_Int_Tables_number       1
_space_group_crystal_system       triclinic
_cell_length_a                    29.820633
_cell_length_b                    7.326835
_cell_length_c                    26.69568
_cell_angle_alpha                 89.929983
_cell_angle_beta                  111.994549
_cell_angle_gamma                 90.260102
_cell_volume                      5408.19417431

loop_
_atom_site_label
_atom_site_type_symbol
_atom_type_description
_atom_site_fract_x
_atom_site_fract_y
_atom_site_fract_z
_atom_type_partial_charge
O1    O     O_R   0.295360 0.592990 0.320420 -0.542300
O2    O     O_R   0.704640 0.407010 0.679580 -0.532526
O3    O     O_R   0.204640 0.092990 0.179580 -0.541967
O4    O     O_R   0.795360 0.907010 0.820420 -0.532453
O5    O     O_R   0.294060 0.265620 0.213230 -0.510508
O6    O     O_R   0.705940 0.734380 0.786770 -0.528686
O7    O     O_R   0.205940 0.765620 0.286770 -0.509721
O8    O     O_R   0.794060 0.234380 0.713230 -0.528499
C1    C     C_R   0.304349 0.431748 0.200098 0.825366
C2    C     C_R   0.696799 0.567921 0.801261 0.842380
C3    C     C_R   0.196498 0.931171 0.300956 0.808941
C4    C     C_R   0.803540 0.068090 0.699070 0.844346
O9    O     O_R   0.300850 0.263360 0.322080 -0.535283
O10   O     O_R   0.699150 0.736640 0.677920 -0.548047
O11   O     O_R   0.199150 0.763360 0.177920 -0.542058
O12   O     O_R   0.800850 0.236640 0.822080 -0.549978
O13   O     O_R   0.211480 0.091820 0.289210 -0.524585
O14   O     O_R   0.788520 0.908180 0.710790 -0.525733
O15   O     O_R   0.288520 0.591820 0.210790 -0.525534
O16   O     O_R   0.711480 0.408180 0.789210 -0.526340
C5    C     C_R   0.312555 0.432059 0.342950 0.865657
C6    C     C_R   0.687621 0.568446 0.656783 0.859389
C7    C     C_R   0.187344 0.931668 0.157075 0.853925
C8    C     C_R   0.811978 0.068989 0.843271 0.868740
O17   O     O_3   0.220670 0.426670 0.239090 -0.391688
O18   O     O_3   0.779330 0.573330 0.760910 -0.391529
O19   O     O_3   0.279330 0.926670 0.260910 -0.388565
O20   O     O_3   0.720670 0.073330 0.739090 -0.392004
V1    V     V_3+5 0.255440 0.152290 0.252020 1.541647
V2    V     V_3+5 0.744560 0.847710 0.747980 1.519060
V3    V     V_3+5 0.244560 0.652290 0.247980 1.530080
V4    V     V_3+5 0.755440 0.347710 0.752020 1.517113
C9    C     C_R   0.847977 0.059617 0.899156 -0.317756
C10   C     C_R   0.151914 0.940165 0.100803 -0.301878
C11   C     C_R   0.651044 0.555838 0.600967 -0.314181
C12   C     C_R   0.347535 0.443015 0.399406 -0.304717
C13   C     C_R   0.867431 0.035741 0.995347 0.463506
C14   C     C_R   0.135191 0.946675 0.004532 0.452062
C15   C     C_R   0.631495 0.487022 0.506358 0.452991
C16   C     C_R   0.363032 0.479485 0.494934 0.449328
C17   C     C_R   0.833403 0.062318 0.943018 0.219605
C18   C     C_R   0.168150 0.952657 0.058251 0.203310
C19   C     C_R   0.665382 0.536716 0.557160 0.226368
C20   C     C_R   0.330804 0.476005 0.440895 0.201277
C21   C     C_R   0.897385 0.051575 0.908310 0.439052
C22   C     C_R   0.102161 0.950242 0.090206 0.426052
C23   C     C_R   0.601517 0.554095 0.591928 0.434867
C24   C     C_R   0.397522 0.434806 0.410952 0.429764
C25   C     C_R   0.932108 0.996175 0.959785 -0.104422
C26   C     C_R   0.067143 0.936062 0.036075 -0.098456
C27   C     C_R   0.566631 0.483630 0.542393 -0.101348
C28   C     C_R   0.431620 0.434748 0.465803 -0.100687
C29   C     C_R   0.915681 0.983863 0.003504 -0.286400
C30   C     C_R   0.084337 0.939800 0.992742 -0.249759
C31   C     C_R   0.583226 0.441374 0.500125 -0.274101
C32   C     C_R   0.413883 0.464027 0.508043 -0.252433
C33   C     C_R   0.982447 0.958310 0.969963 -0.139767
C34   C     C_R   0.015631 0.930175 0.023763 -0.143885
C35   C     C_R   0.515919 0.457612 0.532532 -0.141605
C36   C     C_R   0.482970 0.414701 0.479723 -0.148446
C37   C     C_R   0.995589 0.877673 0.062065 0.493155
C38   C     C_R   0.000468 0.929525 0.928465 0.471001
C39   C     C_R   0.502710 0.326967 0.445516 0.488419
C40   C     C_R   0.497154 0.452077 0.573924 0.473756
C41   C     C_R   0.947263 0.913968 0.053510 0.329526
C42   C     C_R   0.050026 0.934117 0.938967 0.347474
C43   C     C_R   0.551595 0.349154 0.453724 0.332940
C44   C     C_R   0.447616 0.470629 0.562229 0.343503
C45   C     C_R   0.091211 0.976535 0.480063 0.659652
C46   C     C_R   0.897853 0.014222 0.508168 0.659402
C47   C     C_R   0.410758 0.472921 0.022313 0.658896
C48   C     C_R   0.603622 0.517425 0.993201 0.661200
N1    N     N_R   0.074411 0.996792 0.424915 -0.535073
N2    N     N_R   0.915368 0.049662 0.562700 -0.532480
N3    N     N_R   0.427608 0.496215 0.077373 -0.532747
N4    N     N_R   0.585885 0.551228 0.938580 -0.533028
C49   C     C_R   0.026340 0.035485 0.396590 0.688740
C50   C     C_R   0.963833 0.086981 0.589570 0.688962
C51   C     C_R   0.475687 0.537278 0.105431 0.692349
C52   C     C_R   0.537427 0.587606 0.911927 0.688634
C53   C     C_R   0.992516 0.029908 0.422378 -0.146500
C54   C     C_R   0.997268 0.059672 0.564162 -0.135138
C55   C     C_R   0.509402 0.531958 0.079511 -0.143644
C56   C     C_R   0.504156 0.558982 0.937531 -0.135520
C57   C     C_R   0.010667 0.026458 0.479366 -0.068468
C58   C     C_R   0.978855 0.037859 0.507545 -0.068574
C59   C     C_R   0.491099 0.526469 0.022543 -0.069181
C60   C     C_R   0.522757 0.538530 0.994175 -0.068963
C61   C     C_R   0.060621 0.008982 0.508376 -0.112682
C62   C     C_R   0.928659 0.024989 0.479053 -0.115281
C63   C     C_R   0.441152 0.506204 0.993744 -0.112455
C64   C     C_R   0.572985 0.527880 0.022506 -0.116151
C65   C     C_R   0.941596 0.026613 0.393943 0.419534
C66   C     C_R   0.048075 0.051307 0.592812 0.422340
C67   C     C_R   0.560351 0.531023 0.107784 0.421289
C68   C     C_R   0.453348 0.547969 0.909055 0.421730
C69   C     C_R   0.910557 0.017591 0.422412 -0.154758
C70   C     C_R   0.078782 0.019638 0.564940 -0.156081
C71   C     C_R   0.591261 0.522289 0.079168 -0.152512
C72   C     C_R   0.422814 0.515073 0.937149 -0.156139
O21   O     O_2   0.137060 0.922241 0.507573 -0.486036
O22   O     O_2   0.851245 0.964881 0.482184 -0.482074
O23   O     O_2   0.365079 0.414691 0.995149 -0.486946
O24   O     O_2   0.650292 0.470224 0.019104 -0.480460
O25   O     O_2   0.011678 0.082012 0.344045 -0.452320
O26   O     O_2   0.979330 0.152146 0.640464 -0.472332
O27   O     O_2   0.490470 0.585717 0.157846 -0.459514
O28   O     O_2   0.521789 0.653340 0.861105 -0.472014
H1    H     H_    0.871931 0.008272 0.399838 0.209631
H2    H     H_    0.117262 0.007083 0.587828 0.208594
H3    H     H_    0.629914 0.514701 0.101626 0.210152
H4    H     H_    0.384332 0.500359 0.914419 0.208523
C73   C     C_R   0.898743 0.939443 0.642165 0.358680
C74   C     C_R   0.094363 0.850062 0.351655 0.372082
C75   C     C_R   0.601830 0.441035 0.858767 0.361409
C76   C     C_R   0.408229 0.354429 0.151860 0.359646
C77   C     C_R   0.875372 0.963533 0.678932 0.260300
C78   C     C_R   0.124288 0.832390 0.321746 0.262758
C79   C     C_R   0.625048 0.465775 0.821943 0.263878
C80   C     C_R   0.378772 0.340060 0.182979 0.258350
C81   C     C_R   0.831488 0.059147 0.663196 -0.335717
C82   C     C_R   0.166851 0.937346 0.335012 -0.333351
C83   C     C_R   0.669373 0.559208 0.837633 -0.336665
C84   C     C_R   0.335167 0.438647 0.167406 -0.328784
C85   C     C_R   0.812692 0.137944 0.611315 0.278562
C86   C     C_R   0.181443 0.048284 0.381500 0.304388
C87   C     C_R   0.688270 0.640651 0.889212 0.281605
C88   C     C_R   0.320016 0.542477 0.119609 0.298816
C89   C     C_R   0.840175 0.140518 0.578201 0.367948
C90   C     C_R   0.151455 0.069446 0.411149 0.370606
C91   C     C_R   0.660891 0.643167 0.922457 0.372636
C92   C     C_R   0.350298 0.565665 0.090466 0.368359
C93   C     C_R   0.883984 0.040931 0.593533 0.027798
C94   C     C_R   0.106887 0.972715 0.395927 0.031523
C95   C     C_R   0.617069 0.542135 0.907536 0.022717
C96   C     C_R   0.395228 0.473060 0.106612 0.037565
Cl1   Cl    Cl    0.927133 0.845407 0.105335 -0.517143
Cl2   Cl    Cl    0.065404 0.929516 0.880916 -0.544254
Cl3   Cl    Cl    0.572288 0.237489 0.407692 -0.558315
Cl4   Cl    Cl    0.431530 0.500499 0.619228 -0.537981
O29   O     O_3   0.767974 0.220779 0.593438 -0.506188
C97   C     C_3   0.732501 0.088640 0.566884 -0.005164
H5    H     H_    0.730368 0.981702 0.595529 0.104739
H6    H     H_    0.739116 0.025550 0.532348 0.177411
H7    H     H_    0.696739 0.156246 0.550314 0.155855
O30   O     O_3   0.224851 0.142411 0.397777 -0.508859
C98   C     C_3   0.262333 0.023308 0.427848 -0.054491
H8    H     H_    0.266574 0.909913 0.402439 0.135183
H9    H     H_    0.256470 0.968796 0.463885 0.169684
H10   H     H_    0.296937 0.100189 0.442371 0.119424
O31   O     O_3   0.732222 0.730664 0.905986 -0.506231
C99   C     C_3   0.769034 0.604732 0.932778 -0.020375
H11   H     H_    0.772262 0.499862 0.904268 0.108447
H12   H     H_    0.763125 0.538833 0.967440 0.175256
H13   H     H_    0.804045 0.678809 0.949222 0.145497
O32   O     O_3   0.275482 0.627306 0.101460 -0.506350
C100  C     C_3   0.239811 0.499278 0.072252 -0.063425
H14   H     H_    0.204007 0.566607 0.058349 0.119812
H15   H     H_    0.237898 0.382483 0.097955 0.134728
H16   H     H_    0.245983 0.449718 0.035966 0.170182
O33   O     O_3   0.821516 0.228635 0.528921 -0.493335
C101  C     C_3   0.840707 0.406526 0.535020 -0.031894
H17   H     H_    0.880498 0.403415 0.545861 0.068327
H18   H     H_    0.831192 0.485458 0.565215 0.149418
H19   H     H_    0.824654 0.478489 0.495774 0.190137
O34   O     O_3   0.168713 0.172708 0.457904 -0.504612
C102  C     C_3   0.149140 0.348935 0.446709 -0.077033
H20   H     H_    0.109808 0.344738 0.438405 0.081203
H21   H     H_    0.156685 0.413785 0.412908 0.155374
H22   H     H_    0.166439 0.435256 0.483030 0.187010
O35   O     O_3   0.679282 0.735290 0.971138 -0.493399
C103  C     C_3   0.659604 0.911943 0.963807 -0.031415
H23   H     H_    0.619841 0.906441 0.953113 0.068007
H24   H     H_    0.668745 0.989099 0.932934 0.150504
H25   H     H_    0.675556 0.987448 0.002497 0.191949
O36   O     O_3   0.332862 0.665373 0.043083 -0.503023
C104  C     C_3   0.351857 0.843264 0.053324 -0.073197
H26   H     H_    0.391343 0.841744 0.062453 0.079985
H27   H     H_    0.343463 0.909893 0.086245 0.152532
H28   H     H_    0.334791 0.926210 0.016292 0.188511
O37   O     O_3   0.089037 0.991458 0.133272 -0.544622
C105  C     C_3   0.081482 0.180942 0.133550 -0.246111
H29   H     H_    0.051194 0.224057 0.096281 0.124300
H30   H     H_    0.114860 0.259376 0.138185 0.135649
H31   H     H_    0.071508 0.214265 0.168541 0.167796
O38   O     O_3   0.910436 0.107955 0.866530 -0.528166
C106  C     C_3   0.925095 0.291237 0.875220 -0.246808
H32   H     H_    0.956954 0.309212 0.913593 0.129354
H33   H     H_    0.894752 0.380019 0.874774 0.123509
H34   H     H_    0.936009 0.334671 0.841656 0.156754
O39   O     O_3   0.412019 0.437320 0.367437 -0.539700
C107  C     C_3   0.423215 0.618154 0.358315 -0.231302
H35   H     H_    0.457317 0.663411 0.390787 0.134830
H36   H     H_    0.393012 0.713202 0.354250 0.121196
H37   H     H_    0.429072 0.623428 0.319741 0.163228
O40   O     O_3   0.588516 0.626373 0.632007 -0.529986
C108  C     C_3   0.575764 0.809988 0.619606 -0.236533
H38   H     H_    0.543908 0.823663 0.581066 0.126639
H39   H     H_    0.606809 0.891674 0.618092 0.126805
H40   H     H_    0.565639 0.865913 0.652384 0.153125
Cl5   Cl    Cl    0.230006 0.996300 0.071966 -0.634677
Cl6   Cl    Cl    0.772842 0.111473 0.933507 -0.627467
Cl7   Cl    Cl    0.268942 0.524348 0.425348 -0.636580
Cl8   Cl    Cl    0.725363 0.588474 0.564465 -0.626741
O41   O     O_3   0.852528 0.058889 0.038090 -0.487973
C109  C     C_3   0.863979 0.239022 0.057516 0.046090
H41   H     H_    0.851707 0.259069 0.091538 0.197396
H42   H     H_    0.844977 0.341100 0.025806 0.089310
H43   H     H_    0.903717 0.264143 0.073188 0.103505
O42   O     O_3   0.153128 0.961992 0.963810 -0.498104
C110  C     C_3   0.170334 0.790090 0.955050 0.026185
H44   H     H_    0.145594 0.675556 0.955136 0.090517
H45   H     H_    0.207220 0.764636 0.985060 0.166841
H46   H     H_    0.172968 0.791494 0.914694 0.196625
O43   O     O_3   0.646539 0.481022 0.463318 -0.493924
C111  C     C_3   0.634252 0.647986 0.435154 0.049901
H47   H     H_    0.652546 0.765399 0.461430 0.115335
H48   H     H_    0.594396 0.668867 0.418060 0.111669
H49   H     H_    0.646710 0.644703 0.400887 0.192038
O44   O     O_3   0.344282 0.508015 0.534462 -0.499525
C112  C     C_3   0.327351 0.339816 0.546799 0.021734
H50   H     H_    0.354139 0.227840 0.553295 0.101830
H51   H     H_    0.292288 0.300528 0.514998 0.160512
H52   H     H_    0.321003 0.356220 0.584912 0.195129
O45   O     O_3   0.021227 0.770411 0.105811 -0.516129
C113  C     C_3   0.017806 0.587252 0.088751 -0.221836
H53   H     H_    0.042081 0.562282 0.066447 0.117787
H54   H     H_    0.980030 0.545330 0.063694 0.131026
H55   H     H_    0.029583 0.500362 0.125271 0.157153
O46   O     O_3   0.970476 0.879637 0.877090 -0.515359
C114  C     C_3   0.957745 0.695201 0.877330 -0.198597
H56   H     H_    0.937924 0.670540 0.904690 0.106222
H57   H     H_    0.990264 0.606570 0.888555 0.138106
H58   H     H_    0.933101 0.658274 0.835840 0.179182
O47   O     O_3   0.475701 0.203472 0.406793 -0.514993
C115  C     C_3   0.469577 0.041897 0.432383 -0.204269
H59   H     H_    0.459921 0.066069 0.468283 0.107677
H60   H     H_    0.502700 0.956856 0.444012 0.144257
H61   H     H_    0.438991 0.965326 0.403160 0.147393
O48   O     O_3   0.525817 0.406324 0.626221 -0.516902
C116  C     C_3   0.536053 0.218591 0.628468 -0.187942
H62   H     H_    0.558709 0.185691 0.604815 0.108513
H63   H     H_    0.502297 0.135044 0.614315 0.134476
H64   H     H_    0.557050 0.181567 0.671125 0.183902
Cl9   Cl    Cl    0.913941 0.016382 0.322891 -0.460911
Cl10  Cl    Cl    0.075760 0.061402 0.663880 -0.467526
Cl11  Cl    Cl    0.588196 0.523437 0.178845 -0.474509
Cl12  Cl    Cl    0.425526 0.555739 0.837978 -0.468150
O49   O     O_3   0.940047 0.833523 0.657749 -0.509891
C117  C     C_3   0.928269 0.664002 0.631339 -0.124013
H65   H     H_    0.916145 0.680797 0.586834 0.103029
H66   H     H_    0.900515 0.590881 0.642437 0.118455
H67   H     H_    0.961208 0.578168 0.644602 0.199505
O50   O     O_3   0.050137 0.760969 0.333539 -0.505390
C118  C     C_3   0.054751 0.595284 0.361488 -0.102651
H68   H     H_    0.068326 0.617325 0.405945 0.091067
H69   H     H_    0.078136 0.499557 0.350091 0.136470
H70   H     H_    0.018466 0.531095 0.349405 0.197651
O51   O     O_3   0.559742 0.338201 0.842540 -0.506213
C119  C     C_3   0.570112 0.167730 0.868496 -0.117297
H71   H     H_    0.536512 0.084475 0.854835 0.199981
H72   H     H_    0.582211 0.183258 0.913047 0.100740
H73   H     H_    0.597380 0.092555 0.857346 0.114519
O52   O     O_3   0.451685 0.261920 0.168024 -0.514920
C120  C     C_3   0.444558 0.095314 0.140089 -0.152058
H74   H     H_    0.430787 0.117311 0.095642 0.109852
H75   H     H_    0.420146 0.004535 0.151808 0.132214
H76   H     H_    0.479915 0.025364 0.151675 0.200618
O53   O     O_3   0.895282 0.891535 0.730443 -0.553981
C121  C     C_3   0.940470 0.976422 0.759114 0.015939
H77   H     H_    0.955283 0.065250 0.734962 0.151284
H78   H     H_    0.967663 0.869285 0.778232 0.220813
H79   H     H_    0.936824 0.064834 0.790656 0.189977
O54   O     O_3   0.112998 0.704612 0.280857 -0.551908
C122  C     C_3   0.080074 0.781715 0.233028 -0.028709
H80   H     H_    0.088805 0.926309 0.227287 0.127915
H81   H     H_    0.042571 0.771392 0.232001 0.214510
H82   H     H_    0.082158 0.701996 0.198821 0.184253
O55   O     O_3   0.602907 0.405913 0.769308 -0.554175
C123  C     C_3   0.560696 0.510797 0.743062 0.011763
H83   H     H_    0.550206 0.607157 0.769127 0.136744
H84   H     H_    0.529644 0.417065 0.724172 0.226031
H85   H     H_    0.566172 0.595278 0.711610 0.189718
O56   O     O_3   0.389199 0.217472 0.225561 -0.555431
C124  C     C_3   0.435517 0.249047 0.265449 -0.023178
H86   H     H_    0.447953 0.393466 0.267492 0.136854
H87   H     H_    0.462296 0.155948 0.259415 0.192251
H88   H     H_    0.434076 0.213594 0.305044 0.212590

loop_
_geom_bond_atom_site_label_1
_geom_bond_atom_site_label_2
_ccdc_geom_bond_type
O17   V3    S    
C52   O28   S    
C47   N3    A    
O35   C103  S    
C118  H69   S    
O1    C5    A    
C100  H14   S    
C70   H2    S    
C59   C63   A    
O12   V4    S    
O19   V1    S    
O13   V1    S    
O3    C7    A    
C122  H80   S    
C10   C18   A    
C111  H49   S    
C48   N4    A    
C11   C23   A    
O33   C101  S    
C86   O30   S    
C73   O49   S    
C33   C38   A    
C102  H21   S    
C5    C12   S    
C46   C62   A    
O37   C105  S    
O7    C3    A    
C6    C11   S    
C91   O35   S    
O49   C117  S    
C124  H86   S    
C36   C39   A    
C54   C66   A    
C40   C44   A    
C22   O37   S    
O9    V1    S    
O32   C100  S    
C98   H9    S    
C111  H48   S    
C76   C96   A    
C14   C18   A    
C112  H52   S    
C91   C95   A    
C79   O55   S    
O4    C8    A    
C106  H33   S    
C67   C71   A    
C21   O38   S    
C86   C90   A    
C117  H66   S    
C101  H19   S    
N2    C93   S    
C118  H68   S    
O1    V3    S    
C1    C84   S    
C9    C21   A    
C115  H59   S    
O2    V4    S    
C116  H62   S    
C78   C82   A    
O3    V1    S    
C77   C81   A    
C105  H29   S    
C106  H34   S    
C77   O53   S    
C28   C36   A    
C98   H8    S    
C67   Cl11  S    
C81   C85   A    
C80   C84   A    
C1    O15   A    
C15   C31   A    
C4    C81   S    
C60   C64   A    
C85   O29   S    
O52   C120  S    
C16   C32   A    
C42   Cl2   S    
O2    C6    A    
C20   Cl7   S    
O47   C115  S    
C123  H85   S    
C45   N1    A    
C71   H3    S    
C10   C22   A    
C21   C25   A    
C63   C72   A    
C11   C19   A    
C120  H74   S    
C62   C69   A    
C101  H18   S    
C103  H25   S    
O8    C4    A    
C84   C88   A    
C87   O31   S    
C7    C10   S    
C117  H67   S    
O11   C7    A    
O31   C99   S    
O15   V3    S    
C35   C36   A    
O12   C8    A    
C73   C93   A    
O53   C121  S    
C16   O44   S    
C13   C29   A    
C121  H79   S    
C90   C94   A    
O10   V2    S    
C119  H73   S    
C45   C61   A    
C88   C92   A    
O44   C112  S    
N4    C95   S    
C103  H24   S    
C53   C57   A    
C102  H22   S    
O5    V1    S    
C15   C19   A    
C74   O50   S    
C39   C43   A    
C72   H4    S    
C97   H7    S    
C113  H53   S    
C38   C42   A    
C89   O33   S    
C52   C56   A    
C26   C34   A    
C107  H37   S    
C56   C60   A    
C23   O40   S    
C98   H10   S    
O7    V3    S    
C111  H47   S    
C119  H72   S    
C2    C83   S    
C58   C62   A    
C2    O16   A    
C102  H20   S    
C57   C61   A    
C109  H41   S    
O40   C108  S    
C23   C27   A    
C48   O24   S    
C27   C31   A    
C104  H27   S    
C117  H65   S    
O41   C109  S    
C101  H17   S    
C37   O45   S    
O39   C107  S    
C116  H63   S    
C105  H31   S    
O8    V4    S    
C82   C86   A    
C108  H40   S    
O43   C111  S    
C46   N2    A    
O50   C118  S    
C76   O52   S    
C37   C41   A    
C43   Cl3   S    
C112  H50   S    
C53   C65   A    
C50   C54   A    
C65   C69   A    
C83   C87   A    
C110  H44   S    
C14   C30   A    
C99   H13   S    
C49   C53   A    
O55   C123  S    
C104  H28   S    
C55   C67   A    
C122  H82   S    
C46   O22   S    
O45   C113  S    
C74   C94   A    
C51   O27   S    
C90   O34   S    
C114  H57   S    
C26   C30   A    
C14   O42   S    
C19   Cl8   S    
C120  H75   S    
C57   C58   A    
C74   C78   A    
C65   Cl9   S    
C66   Cl10  S    
C73   C77   A    
O36   C104  S    
C110  H45   S    
C99   H12   S    
C89   C93   A    
C100  H16   S    
C75   C79   A    
C85   C89   A    
C92   O36   S    
O34   C102  S    
C121  H78   S    
C118  H70   S    
C12   C20   A    
C3    C82   S    
C27   C35   A    
C100  H15   S    
O51   C119  S    
C88   O32   S    
C56   C68   A    
C78   O54   S    
C29   C41   A    
C103  H23   S    
C99   H11   S    
O30   C98   S    
O16   V4    S    
C75   O51   S    
C92   C96   A    
O46   C114  S    
C47   O23   S    
O54   C122  S    
O56   C124  S    
C54   C58   A    
O6    V2    S    
N3    C96   S    
C13   O41   S    
C3    O13   A    
N4    C52   A    
C123  H84   S    
C119  H71   S    
C38   O46   S    
C55   C59   A    
O6    C2    A    
C25   C33   A    
C31   C43   A    
C24   O39   S    
O11   V3    S    
C30   C42   A    
C79   C83   A    
C124  H88   S    
C113  H55   S    
C22   C26   A    
C113  H54   S    
C8    C9    S    
C115  H61   S    
C15   O43   S    
C61   C70   A    
C50   O26   S    
C116  H64   S    
C9    C17   A    
C107  H35   S    
O10   C6    A    
C87   C91   A    
C108  H39   S    
C69   H1    S    
C17   Cl6   S    
C80   O56   S    
C41   Cl1   S    
C123  H83   S    
C35   C40   A    
C32   C44   A    
O29   C97   S    
O9    C5    A    
C51   C55   A    
C109  H43   S    
C33   C34   A    
C75   C95   A    
C34   C37   A    
C48   C64   A    
C122  H81   S    
C68   C72   A    
O20   V2    S    
O48   C116  S    
C115  H60   S    
C12   C24   A    
C114  H58   S    
C97   H6    S    
C66   C70   A    
O42   C110  S    
C13   C17   A    
C108  H38   S    
C49   O25   S    
C120  H76   S    
C105  H30   S    
C40   O48   S    
C25   C29   A    
C44   Cl4   S    
C124  H87   S    
O14   V2    S    
C39   O47   S    
C76   C80   A    
C16   C20   A    
C110  H46   S    
C47   C63   A    
N1    C94   S    
C59   C60   A    
C112  H51   S    
C104  H26   S    
N2    C50   A    
C4    O14   A    
C114  H56   S    
C97   H5    S    
N1    C49   A    
C121  H77   S    
C18   Cl5   S    
C106  H32   S    
O5    C1    A    
O38   C106  S    
C24   C28   A    
C109  H42   S    
N3    C51   A    
C68   Cl12  S    
O18   V4    S    
O4    V2    S    
C28   C32   A    
C64   C71   A    
C107  H36   S    
C45   O21   S    
