data_mof_unit_61375.cif
_audit_creation_date              2012-12-10T17:52:39-0500
_audit_creation_method            fapswitch 2.2
_symmetry_space_group_name_H-M    P1
_symmetry_Int_Tables_number       1
_space_group_crystal_system       triclinic
_cell_length_a                    18.82505
_cell_length_b                    18.894339
_cell_length_c                    18.582802
_cell_angle_alpha                 109.597151
_cell_angle_beta                  109.317551
_cell_angle_gamma                 110.132057
_cell_volume                      5047.77439278

loop_
_atom_site_label
_atom_site_type_symbol
_atom_type_description
_atom_site_fract_x
_atom_site_fract_y
_atom_site_fract_z
_atom_type_partial_charge
C1    C     C_R   0.120405 0.120151 0.500167 0.874274
C2    C     C_R   0.318493 0.323281 0.576303 -0.244444
C3    C     C_R   0.254418 0.261520 0.578098 -0.179509
C4    C     C_R   0.120069 0.001147 0.620836 0.894812
C5    C     C_R   0.185695 0.185736 0.498959 -0.094003
C6    C     C_R   0.741815 0.919838 0.239699 -0.177104
C7    C     C_R   0.676889 0.920118 0.177124 -0.121573
C8    C     C_R   0.686848 0.999902 0.185891 0.016360
C9    C     C_R   0.760819 0.079355 0.256935 -0.170683
C10   C     C_R   0.824337 0.079118 0.320919 -0.164723
C11   C     C_R   0.814707 0.999383 0.311882 -0.015435
C12   C     C_R   0.270037 0.030646 0.691733 0.046275
C13   C     C_R   0.821378 0.742600 0.499636 -0.172793
C14   C     C_R   0.758121 0.679353 0.501054 -0.174743
C15   C     C_R   0.686618 0.686648 0.500567 -0.008796
C16   C     C_R   0.879818 0.879818 0.500132 0.855060
C17   C     C_R   0.678485 0.757301 0.500207 -0.167770
C18   C     C_R   0.743097 0.821901 0.501500 -0.173723
C19   C     C_R   0.813830 0.813840 0.500445 -0.014696
C20   C     C_R   0.504481 0.880088 0.884368 1.019876
C21   C     C_R   0.379529 0.996617 0.876051 0.971915
C22   C     C_R   0.499228 0.120088 0.119520 0.829566
C23   C     C_R   0.189753 0.007675 0.688879 -0.136121
C24   C     C_R   0.620377 0.000329 0.120510 0.875641
C25   C     C_R   0.500747 0.620247 0.620876 0.881454
C26   C     C_R   0.379562 0.377487 0.497359 0.947814
C27   C     C_R   0.500088 0.380433 0.379201 0.910528
C28   C     C_R   0.879966 0.999611 0.379120 0.860132
C29   C     C_R   0.620294 0.620364 0.500228 0.844173
C30   C     C_R   0.586807 0.823072 0.826220 0.413803
C31   C     C_R   0.583516 0.758213 0.759463 -0.238218
C32   C     C_R   0.502781 0.686316 0.688715 -0.097401
C33   C     C_R   0.424374 0.676276 0.683997 -0.169014
C34   C     C_R   0.173183 0.985181 0.747760 -0.299799
C35   C     C_R   0.426570 0.739062 0.750828 -0.132651
C36   C     C_R   0.506955 0.813548 0.820511 -0.182728
C37   C     C_R   0.488819 0.251026 0.170842 -0.192079
C38   C     C_R   0.487606 0.314483 0.234183 -0.198234
C39   C     C_R   0.498615 0.313529 0.311956 -0.019654
C40   C     C_R   0.293990 0.071614 0.645678 -0.140547
C41   C     C_R   0.508633 0.248389 0.325823 -0.131957
C42   C     C_R   0.506915 0.183435 0.261285 -0.193625
C43   C     C_R   0.498210 0.185792 0.184751 -0.000767
C44   C     C_R   0.371612 0.088660 0.645039 -0.211964
C45   C     C_R   0.236579 0.983614 0.810187 0.470284
C46   C     C_R   0.420293 0.055964 0.680945 -0.180831
C47   C     C_R   0.394230 0.010497 0.722192 0.492926
C48   C     C_R   0.326984 0.011216 0.741164 -0.088581
C49   C     C_3   0.251822 0.051903 0.945339 0.078397
C50   C     C_3   0.242155 0.039454 0.019008 -0.706382
C51   C     C_R   0.312429 0.993069 0.805475 -0.205790
C52   C     C_R   0.179537 0.171432 0.417987 -0.244661
C53   C     C_R   0.242419 0.233480 0.414783 0.454817
C54   C     C_R   0.312578 0.309887 0.495307 -0.157259
H1    H     H_    0.111680 0.970683 0.746564 0.171532
H2    H     H_    0.737348 0.877120 0.501794 0.150707
H3    H     H_    0.253840 0.092132 0.611627 0.135615
H4    H     H_    0.643492 0.763690 0.761617 0.205537
H5    H     H_    0.361936 0.619421 0.629474 0.160544
H6    H     H_    0.365195 0.730506 0.746908 0.198137
H7    H     H_    0.481454 0.251991 0.110873 0.136995
H8    H     H_    0.479993 0.365040 0.223557 0.152492
H9    H     H_    0.516344 0.247156 0.385748 0.166618
H10   H     H_    0.514135 0.132582 0.271608 0.146639
H11   H     H_    0.390221 0.120972 0.610491 0.173476
H12   H     H_    0.259095 0.271995 0.640913 0.157814
H13   H     H_    0.473206 0.058347 0.668614 0.183940
H14   H     H_    0.125120 0.111953 0.357523 0.199403
H15   H     H_    0.372103 0.382163 0.637923 0.166144
H16   H     H_    0.825154 0.941095 0.966874 0.398277
H17   H     H_    0.537083 0.923166 0.735217 0.382652
H18   H     H_    0.211956 0.080502 0.923724 0.148706
H19   H     H_    0.322270 0.098778 0.972836 0.107760
H20   H     H_    0.280748 0.010465 0.041714 0.264191
H21   H     H_    0.266507 0.103622 0.075811 0.207621
H22   H     H_    0.172180 0.995370 0.994813 0.261325
H23   H     H_    0.734423 0.858145 0.233105 0.146529
H24   H     H_    0.314244 0.197742 0.253572 0.380293
H25   H     H_    0.619773 0.858576 0.121501 0.149244
H26   H     H_    0.768346 0.141106 0.263591 0.146873
H27   H     H_    0.881162 0.140702 0.376831 0.150372
H28   H     H_    0.876599 0.736847 0.499262 0.152744
H29   H     H_    0.763974 0.624243 0.500985 0.148868
H30   H     H_    0.623100 0.762893 0.500256 0.154411
O1    O     O_R   0.091590 0.143330 0.551700 -0.623516
O2    O     O_R   0.551730 0.591680 0.643420 -0.620604
O3    O     O_R   0.356670 0.408480 0.448390 -0.565284
O4    O     O_R   0.091620 0.039900 0.448280 -0.616302
O5    O     O_R   0.460120 0.408460 0.551810 -0.630082
O6    O     O_R   0.448270 0.408490 0.356760 -0.594530
O7    O     O_R   0.551720 0.408480 0.460170 -0.633532
O8    O     O_R   0.539880 0.591710 0.448370 -0.627970
O9    O     O_R   0.643330 0.591700 0.551790 -0.619689
O10   O     O_R   0.091610 0.051730 0.643330 -0.628457
O11   O     O_R   0.091640 0.948310 0.539920 -0.604342
O12   O     O_R   0.551760 0.960180 0.908450 -0.506556
O13   O     O_R   0.908380 0.960100 0.551720 -0.617495
O14   O     O_R   0.908410 0.856670 0.448300 -0.622301
O15   O     O_R   0.908360 0.051690 0.460080 -0.623704
O16   O     O_R   0.908390 0.948270 0.356670 -0.611894
O17   O     O_R   0.448330 0.856720 0.908450 -0.646052
O18   O     O_2   0.708774 0.992400 0.910111 -0.260709
O19   O     O_2   0.692737 0.926979 0.001811 -0.334515
O20   O     O_3   0.769766 0.888998 0.914667 -0.553836
O21   O     O_2   0.371846 0.868158 0.736948 -0.359067
O22   O     O_2   0.384686 0.871013 0.611650 -0.297672
O23   O     O_R   0.356660 0.948290 0.908410 -0.560240
O24   O     O_3   0.526477 0.969701 0.764544 -0.538762
O25   O     O_3   0.222729 0.970203 0.874328 -0.583383
O26   O     O_2   0.159092 0.119192 0.239835 -0.301700
O27   O     O_2   0.216370 0.274104 0.286606 -0.269193
O28   O     O_3   0.326945 0.220076 0.315478 -0.595916
O29   O     O_R   0.460090 0.051750 0.908420 -0.631923
O30   O     O_R   0.448250 0.039900 0.091630 -0.631049
O31   O     O_R   0.551680 0.143360 0.091630 -0.631051
O32   O     O_R   0.539910 0.948330 0.091670 -0.647493
O33   O     O_R   0.643340 0.051790 0.091670 -0.585279
O34   O     O_R   0.448280 0.591700 0.540000 -0.614535
S1    S     S_3+6 0.691077 0.911446 0.916389 0.027426
S2    S     S_3+6 0.417368 0.925740 0.708372 0.006459
S3    S     S_3+6 0.233225 0.210637 0.310368 0.022709
Zn1   Zn    Zn3+2 0.999980 0.069060 0.569050 0.972375
Zn2   Zn    Zn3+2 0.000020 0.930940 0.430950 1.001688
Zn3   Zn    Zn3+2 0.430940 0.930960 0.000040 1.003998
Zn4   Zn    Zn3+2 0.569060 0.069120 0.000040 1.086569
Zn5   Zn    Zn3+2 0.430920 0.500100 0.431040 1.045510
Zn6   Zn    Zn3+2 0.569080 0.500080 0.569140 0.986591

loop_
_geom_bond_atom_site_label_1
_geom_bond_atom_site_label_2
_ccdc_geom_bond_type
C37   C43   A    
O27   S3    D    
C41   C42   A    
O24   S2    S    
C35   C36   A    
C12   C48   A    
O28   S3    S    
C25   O34   A    
C7    C8    A    
C39   C41   A    
C53   C54   A    
C26   O5    A    
C12   C23   A    
C24   O33   A    
C37   C38   A    
O7    Zn6   S    
C1    C5    S    
O23   Zn3   S    
C31   H4    S    
C7    H25   S    
C50   H20   S    
O26   S3    D    
C30   C31   A    
C45   O25   S    
C16   O13   A    
O29   Zn4   S    
C30   S1    S    
C45   C51   A    
C27   O6    A    
C18   C19   A    
C8    C24   S    
C48   C51   A    
C22   C43   S    
C27   C39   S    
C8    C9    A    
C49   H18   S    
C5    C52   A    
C27   O7    A    
C2    H15   S    
C9    C10   A    
C52   H14   S    
C18   H2    S    
O20   S1    S    
O30   Zn3   S    
C28   O16   A    
C1    O4    A    
C20   O12   A    
C34   H1    S    
C33   H5    S    
C13   C14   A    
C44   H11   S    
C14   H29   S    
O4    Zn2   S    
C26   C54   S    
C44   C46   A    
C15   C29   S    
C1    O1    A    
O14   Zn2   S    
O17   Zn3   S    
C13   C19   A    
C21   O29   A    
C2    C54   A    
C6    C11   A    
C4    C23   S    
C26   O3    A    
C6    H23   S    
C20   O17   A    
C13   H28   S    
C35   H6    S    
C9    H26   S    
C12   C40   A    
O9    Zn6   S    
O13   Zn1   S    
C50   H22   S    
C4    O11   A    
C47   C48   A    
C22   O30   A    
C23   C34   A    
C17   C18   A    
O6    Zn5   S    
O1    Zn1   S    
O21   S2    D    
C34   C45   A    
C21   O23   A    
O15   Zn1   S    
C4    O10   A    
O10   Zn1   S    
C28   O15   A    
C47   S2    S    
C24   O32   A    
C49   H19   S    
C3    H12   S    
C42   C43   A    
C41   H9    S    
C42   H10   S    
C21   C51   S    
C52   C53   A    
C49   O25   S    
O5    Zn6   S    
O11   Zn2   S    
C15   C17   A    
C46   C47   A    
C22   O31   A    
C40   H3    S    
O32   Zn3   S    
O22   S2    D    
O2    Zn6   S    
C31   C32   A    
O19   S1    D    
C3    C5    A    
O8    Zn5   S    
C37   H7    S    
C6    C7    A    
C10   H27   S    
O31   Zn4   S    
C30   C36   A    
C17   H30   S    
C32   C33   A    
O16   Zn2   S    
C2    C3    A    
C46   H13   S    
C53   S3    S    
C50   H21   S    
C29   O9    A    
C16   O14   A    
C38   C39   A    
C11   C28   S    
C25   C32   S    
C16   C19   S    
C25   O2    A    
C33   C35   A    
O12   Zn4   S    
H16   O20   S    
C29   O8    A    
C10   C11   A    
C20   C36   S    
C40   C44   A    
C49   C50   S    
C14   C15   A    
H24   O28   S    
O34   Zn5   S    
H17   O24   S    
O33   Zn4   S    
O3    Zn5   S    
O18   S1    D    
C38   H8    S    
