data_mof_unit_22235.cif
_audit_creation_date              2012-12-10T18:54:04-0500
_audit_creation_method            fapswitch 2.2
_symmetry_space_group_name_H-M    P1
_symmetry_Int_Tables_number       1
_space_group_crystal_system       triclinic
_cell_length_a                    19.429209
_cell_length_b                    19.397162
_cell_length_c                    19.414811
_cell_angle_alpha                 84.580992
_cell_angle_beta                  95.387061
_cell_angle_gamma                 90.10823
_cell_volume                      7251.83521472

loop_
_atom_site_label
_atom_site_type_symbol
_atom_type_description
_atom_site_fract_x
_atom_site_fract_y
_atom_site_fract_z
_atom_type_partial_charge
C1    C     C_R   0.311505 0.492419 0.492020 0.501351
C2    C     C_2   0.480037 0.984422 0.474739 0.267656
C3    C     C_2   0.512584 0.017312 0.526207 -0.130306
C4    C     C_R   0.688411 0.507203 0.508177 0.515353
C5    C     C_R   0.511023 0.236862 0.513724 0.046004
C6    C     C_R   0.764454 0.504162 0.515874 -0.003796
C7    C     C_R   0.797083 0.454174 0.482313 -0.202975
C8    C     C_R   0.868111 0.446511 0.490463 -0.145357
C9    C     C_R   0.908794 0.489791 0.530962 0.025843
C10   C     C_R   0.877075 0.537444 0.568643 0.277924
C11   C     C_R   0.804934 0.547314 0.558189 0.261139
C12   C     C_R   0.482026 0.907995 0.479726 0.021085
C13   C     C_R   0.124805 0.531519 0.432584 -0.119717
C14   C     C_R   0.196538 0.534074 0.437523 -0.138002
C15   C     C_R   0.202507 0.441705 0.531481 -0.127871
C16   C     C_R   0.508555 0.492060 0.688855 0.545242
C17   C     C_R   0.130658 0.439249 0.526492 -0.159043
C18   C     C_R   0.091589 0.484369 0.477159 0.024965
C19   C     C_2   0.984442 0.486637 0.531619 -0.071962
C20   C     C_2   0.015516 0.483778 0.472838 0.243693
C21   C     C_R   0.235929 0.489346 0.487160 0.038457
C22   C     C_R   0.485051 0.509262 0.235868 0.054494
C23   C     C_R   0.421808 0.870254 0.462116 0.278278
C24   C     C_R   0.486815 0.447390 0.203688 0.241081
C25   C     C_R   0.481059 0.450782 0.131172 -0.070035
C26   C     C_R   0.479824 0.515060 0.091410 0.001221
C27   C     C_R   0.476258 0.576153 0.123764 -0.154012
C28   C     C_R   0.490893 0.507411 0.311256 0.534722
C29   C     C_R   0.478238 0.573260 0.195769 -0.176821
C30   C     C_R   0.523412 0.546661 0.870304 -0.155512
C31   C     C_R   0.519182 0.550473 0.798073 0.212164
C32   C     C_R   0.507182 0.424457 0.803855 0.199822
C33   C     C_R   0.513105 0.421692 0.876324 -0.113471
C34   C     C_R   0.425791 0.798307 0.463762 -0.115486
C35   C     C_R   0.519635 0.482561 0.909340 -0.046807
C36   C     C_2   0.482415 0.519453 0.015929 -0.115477
C37   C     C_2   0.523743 0.478408 0.985249 0.256816
C38   C     C_R   0.511645 0.488996 0.764539 0.049360
C39   C     C_R   0.508662 0.312035 0.509175 0.540477
C40   C     C_R   0.491390 0.688245 0.491550 0.492344
C41   C     C_R   0.487859 0.763523 0.487409 -0.008507
C42   C     C_R   0.546847 0.800956 0.506977 -0.154018
C43   C     C_R   0.544400 0.872698 0.501822 -0.205707
C44   C     C_3   0.993803 0.440897 0.366517 0.002240
C45   C     C_R   0.448741 0.128964 0.516140 -0.090491
C46   C     C_3   0.937155 0.438343 0.306652 -0.256140
C47   C     C_3   0.952439 0.382912 0.259311 -0.491020
C48   C     C_3   0.933356 0.543955 0.676964 0.003930
C49   C     C_3   0.880169 0.560126 0.726806 -0.240209
C50   C     C_3   0.903134 0.531276 0.801256 -0.496902
C51   C     C_3   0.776477 0.661293 0.552551 0.035605
C52   C     C_3   0.742699 0.716037 0.590213 -0.248251
C53   C     C_3   0.745705 0.787740 0.550815 -0.503140
C54   C     C_3   0.549200 0.348223 0.237653 0.018954
C55   C     C_3   0.552838 0.282850 0.288381 -0.248753
C56   C     C_R   0.448511 0.200751 0.511315 -0.188041
C57   C     C_3   0.619768 0.242581 0.285692 -0.508252
C58   C     C_3   0.462871 0.644161 0.739177 0.014496
C59   C     C_3   0.473461 0.713306 0.696801 -0.241024
C60   C     C_3   0.404968 0.745602 0.664477 -0.493214
C61   C     C_3   0.439728 0.332808 0.776154 0.020030
C62   C     C_3   0.433723 0.273117 0.729927 -0.236090
C63   C     C_3   0.363208 0.238500 0.730972 -0.495136
C64   C     C_3   0.630407 0.455420 0.043598 0.010452
C65   C     C_3   0.681306 0.444842 0.989741 -0.259157
C66   C     C_3   0.753818 0.468441 0.013871 -0.488728
C67   C     C_R   0.574514 0.200767 0.522576 0.251907
C68   C     C_3   0.673598 0.234860 0.475173 0.013724
C69   C     C_3   0.746717 0.260706 0.493477 -0.246772
C70   C     C_3   0.788088 0.267432 0.430137 -0.499629
C71   C     C_3   0.326981 0.919214 0.500208 0.029955
C72   C     C_3   0.278258 0.860879 0.522770 -0.280503
C73   C     C_3   0.240605 0.878618 0.584380 -0.487363
C74   C     C_3   0.465263 0.013251 0.356361 0.042312
C75   C     C_3   0.527425 0.060380 0.344584 -0.283003
C76   C     C_3   0.551235 0.055627 0.272481 -0.491418
C77   C     C_R   0.574156 0.128282 0.529700 -0.117675
C78   C     C_R   0.511590 0.092688 0.524277 0.012712
H1    H     H_    0.595231 0.774701 0.524622 0.137368
H2    H     H_    0.400004 0.101659 0.513695 0.148652
H3    H     H_    0.221054 0.571251 0.402630 0.136357
H4    H     H_    0.231761 0.406487 0.569955 0.128272
H5    H     H_    0.997931 0.388727 0.396358 0.116710
H6    H     H_    0.043627 0.453565 0.344512 0.142921
H7    H     H_    0.886771 0.426898 0.327946 0.164631
H8    H     H_    0.932976 0.489604 0.275641 0.173695
H9    H     H_    0.002168 0.393796 0.236606 0.148920
H10   H     H_    0.910496 0.382658 0.216345 0.142537
H11   H     H_    0.955250 0.330976 0.288969 0.144696
H12   H     H_    0.622619 0.099827 0.538614 0.105426
H13   H     H_    0.984703 0.562746 0.697186 0.148034
H14   H     H_    0.938726 0.486706 0.676226 0.099389
H15   H     H_    0.872991 0.617127 0.725115 0.186379
H16   H     H_    0.829791 0.536613 0.710588 0.199838
H17   H     H_    0.909961 0.474190 0.804207 0.145915
H18   H     H_    0.863201 0.543153 0.835829 0.151182
H19   H     H_    0.952614 0.555180 0.819820 0.144396
H20   H     H_    0.747638 0.659100 0.500363 0.120415
H21   H     H_    0.830915 0.676823 0.546017 0.165258
H22   H     H_    0.687845 0.702030 0.595684 0.189068
H23   H     H_    0.767702 0.420532 0.449340 0.148687
H24   H     H_    0.769828 0.717424 0.643093 0.171722
H25   H     H_    0.800289 0.803839 0.547548 0.151701
H26   H     H_    0.719221 0.825955 0.578554 0.143280
H27   H     H_    0.719505 0.787549 0.497458 0.142638
H28   H     H_    0.399497 0.228265 0.505057 0.123562
H29   H     H_    0.594869 0.381058 0.250940 0.137147
H30   H     H_    0.551148 0.332534 0.184179 0.131177
H31   H     H_    0.549825 0.297421 0.341967 0.192841
H32   H     H_    0.508144 0.249069 0.275282 0.169223
H33   H     H_    0.622184 0.224674 0.233291 0.151486
H34   H     H_    0.095141 0.566911 0.394581 0.139348
H35   H     H_    0.621828 0.196727 0.324634 0.133371
H36   H     H_    0.665237 0.275577 0.297865 0.139602
H37   H     H_    0.434706 0.653874 0.784804 0.116177
H38   H     H_    0.431121 0.610027 0.705835 0.118219
H39   H     H_    0.500373 0.749712 0.731022 0.160005
H40   H     H_    0.506613 0.705141 0.654651 0.204158
H41   H     H_    0.378426 0.711069 0.628060 0.142391
H42   H     H_    0.414865 0.795967 0.634969 0.146952
H43   H     H_    0.370865 0.754758 0.705570 0.143398
H44   H     H_    0.397281 0.370816 0.758049 0.135041
H45   H     H_    0.015551 0.489879 0.580701 0.084657
H46   H     H_    0.433818 0.311826 0.830643 0.116165
H47   H     H_    0.441284 0.293091 0.675659 0.211566
H48   H     H_    0.474773 0.234001 0.748171 0.170760
H49   H     H_    0.354826 0.217128 0.784636 0.144167
H50   H     H_    0.360774 0.195440 0.696988 0.147342
H51   H     H_    0.321475 0.276402 0.711378 0.144248
H52   H     H_    0.650175 0.426904 0.093877 0.138860
H53   H     H_    0.628005 0.511206 0.053269 0.125639
H54   H     H_    0.683140 0.389104 0.980943 0.177041
H55   H     H_    0.663738 0.474904 0.939657 0.173999
H56   H     H_    0.891469 0.406959 0.464284 0.140800
H57   H     H_    0.753289 0.524341 0.022070 0.146773
H58   H     H_    0.789311 0.460442 0.973668 0.148546
H59   H     H_    0.773497 0.438022 0.063118 0.142107
H60   H     H_    0.473597 0.626060 0.093404 0.114544
H61   H     H_    0.530869 0.593733 0.895941 0.122934
H62   H     H_    0.451263 0.559462 0.984581 0.074000
H63   H     H_    0.648193 0.269946 0.431653 0.160020
H64   H     H_    0.677601 0.181813 0.458122 0.105989
H65   H     H_    0.743984 0.311878 0.514394 0.185058
H66   H     H_    0.773698 0.223835 0.534479 0.164663
H67   H     H_    0.105496 0.402125 0.560920 0.091117
H68   H     H_    0.791360 0.216684 0.408450 0.146318
H69   H     H_    0.841278 0.284938 0.445535 0.137675
H70   H     H_    0.763392 0.306060 0.389470 0.139314
H71   H     H_    0.512443 0.372013 0.906872 0.154157
H72   H     H_    0.544072 0.988855 0.568701 0.072333
H73   H     H_    0.295936 0.967236 0.485204 0.162775
H74   H     H_    0.364317 0.930653 0.544975 0.112226
H75   H     H_    0.239636 0.851989 0.478583 0.175439
H76   H     H_    0.308178 0.812253 0.538008 0.151314
H77   H     H_    0.278376 0.886159 0.629625 0.143857
H78   H     H_    0.476610 0.621030 0.220357 0.127356
H79   H     H_    0.205666 0.835519 0.599325 0.150952
H80   H     H_    0.209190 0.926549 0.570405 0.145607
H81   H     H_    0.379834 0.769593 0.448601 0.136273
H82   H     H_    0.423077 0.028419 0.315070 0.159434
H83   H     H_    0.478463 0.958396 0.350379 0.133751
H84   H     H_    0.512996 0.114895 0.350075 0.174390
H85   H     H_    0.571036 0.044927 0.384221 0.151023
H86   H     H_    0.565105 0.001309 0.265701 0.147282
H87   H     H_    0.597521 0.088350 0.266081 0.146531
H88   H     H_    0.509662 0.074101 0.231751 0.149504
H89   H     H_    0.477467 0.403251 0.106052 0.157349
H90   H     H_    0.591531 0.900593 0.514490 0.105311
O1    O     O_3   0.500000 0.500000 0.500000 -0.448320
O2    O     O_R   0.467830 0.341070 0.546160 -0.559098
O3    O     O_R   0.450560 0.655630 0.450550 -0.549653
O4    O     O_R   0.545840 0.347670 0.467560 -0.536227
O5    O     O_R   0.535760 0.655640 0.535740 -0.559578
O6    O     O_3   0.976397 0.492504 0.408777 -0.566860
O7    O     O_3   0.916553 0.579516 0.610364 -0.572212
O8    O     O_3   0.774157 0.596686 0.592335 -0.547883
O9    O     O_3   0.486979 0.384036 0.243200 -0.564386
O10   O     O_3   0.528234 0.613912 0.761231 -0.545919
O11   O     O_3   0.505188 0.363785 0.771471 -0.549813
O12   O     O_R   0.545870 0.536170 0.656040 -0.501241
O13   O     O_3   0.565106 0.427435 0.023382 -0.589356
O14   O     O_3   0.635995 0.235818 0.533880 -0.561245
O15   O     O_3   0.359209 0.903192 0.441122 -0.546762
O16   O     O_3   0.439922 0.022045 0.420979 -0.543087
O17   O     O_R   0.450550 0.545430 0.340370 -0.550817
O18   O     O_R   0.347960 0.451240 0.536460 -0.557283
O19   O     O_R   0.655630 0.467150 0.467130 -0.562911
O20   O     O_R   0.340780 0.536140 0.450970 -0.548491
O21   O     O_R   0.655640 0.545460 0.545430 -0.497531
O22   O     O_R   0.467850 0.451260 0.656340 -0.536499
O23   O     O_R   0.535740 0.467130 0.347260 -0.525842
Zn1   Zn    Zn3+2 0.558310 0.558310 0.558290 0.956185
Zn2   Zn    Zn3+2 0.446830 0.436990 0.558720 0.928653
Zn3   Zn    Zn3+2 0.558290 0.446420 0.446420 0.937758
Zn4   Zn    Zn3+2 0.436570 0.558290 0.436570 0.925054

loop_
_geom_bond_atom_site_label_1
_geom_bond_atom_site_label_2
_ccdc_geom_bond_type
C1    C21   S    
C68   O14   S    
C22   C29   A    
C27   C29   A    
C41   C42   A    
C6    C7    A    
C5    C56   A    
O4    Zn3   S    
C19   C20   D    
C67   C77   A    
C5    C67   A    
C44   H5    S    
C2    C12   S    
C65   C66   S    
C7    C8    A    
O1    Zn4   S    
C57   H33   S    
C1    O18   A    
C25   H89   S    
C69   H66   S    
C12   C23   A    
C52   H24   S    
C26   C27   A    
C62   C63   S    
C13   C18   A    
C61   H46   S    
C14   C21   A    
C36   C37   D    
C35   C37   S    
C44   O6    S    
C39   O2    A    
C69   C70   S    
C40   O5    A    
C50   H17   S    
C74   O16   S    
C53   H26   S    
C73   H79   S    
C60   H41   S    
C75   H85   S    
O18   Zn2   S    
O22   Zn2   S    
C46   C47   S    
C12   C43   A    
C9    C19   S    
C71   H73   S    
C45   C56   A    
C8    C9    A    
C3    H72   S    
C48   H13   S    
C32   O11   S    
C68   H64   S    
C45   C78   A    
C70   H68   S    
C47   H10   S    
C32   C38   A    
C49   H16   S    
C9    C10   A    
C63   H50   S    
C77   C78   A    
C48   O7    S    
C34   H81   S    
C51   H20   S    
C59   C60   S    
C59   H39   S    
C22   C28   S    
C13   C14   A    
C55   H31   S    
C58   H38   S    
C47   H11   S    
C60   H43   S    
C34   C41   A    
O17   Zn4   S    
C42   H1    S    
C44   C46   S    
C15   H4    S    
C51   H21   S    
C20   O6    S    
C77   H12   S    
C27   H60   S    
C72   H76   S    
C74   C75   S    
C31   O10   S    
C8    H56   S    
C51   C52   S    
C71   O15   S    
C76   H87   S    
C24   C25   A    
O20   Zn4   S    
O3    Zn4   S    
O12   Zn1   S    
C6    C11   A    
C62   H48   S    
C68   C69   S    
O1    Zn2   S    
C58   C59   S    
C43   H90   S    
C19   H45   S    
C73   H80   S    
C52   H22   S    
C69   H65   S    
C61   H44   S    
C47   H9    S    
O21   Zn1   S    
C17   H67   S    
C75   C76   S    
C23   O15   S    
C39   O4    A    
C67   O14   S    
C74   H83   S    
C71   H74   S    
C64   H53   S    
C23   C34   A    
C37   O13   S    
C73   H77   S    
C17   C18   A    
C11   O8    S    
C68   H63   S    
C58   O10   S    
C55   C57   S    
C2    O16   S    
C76   H88   S    
C36   H62   S    
C56   H28   S    
O1    Zn3   S    
C16   O22   A    
C29   H78   S    
C66   H58   S    
C64   O13   S    
C54   H29   S    
C26   C36   S    
C48   C49   S    
C64   H52   S    
C61   O11   S    
C59   H40   S    
C51   O8    S    
C75   H84   S    
C55   H32   S    
C7    H23   S    
C58   H37   S    
C22   C24   A    
C76   H86   S    
C4    C6    S    
C70   H70   S    
C42   C43   A    
C28   O23   A    
C65   H54   S    
C52   C53   S    
C4    O19   A    
C1    O20   A    
C10   O7    S    
C15   C17   A    
C54   C55   S    
C40   C41   S    
C50   H19   S    
C72   H75   S    
C4    O21   A    
C72   C73   S    
C44   H6    S    
C62   H47   S    
C57   H35   S    
O2    Zn2   S    
C54   O9    S    
C57   H36   S    
C54   H30   S    
C13   H34   S    
C30   C35   A    
O5    Zn1   S    
C14   H3    S    
C31   C38   A    
C74   H82   S    
C32   C33   A    
C46   H7    S    
C5    C39   S    
C2    C3    D    
C25   C26   A    
O23   Zn3   S    
C71   C72   S    
O19   Zn3   S    
C33   H71   S    
C28   O17   A    
C64   C65   S    
C50   H18   S    
C30   C31   A    
C66   H59   S    
C53   H25   S    
C30   H61   S    
C33   C35   A    
C60   H42   S    
C45   H2    S    
C18   C20   S    
C63   H51   S    
C61   C62   S    
C63   H49   S    
C10   C11   A    
C66   H57   S    
C53   H27   S    
C15   C21   A    
C49   C50   S    
C48   H14   S    
C24   O9    S    
C70   H69   S    
O1    Zn1   S    
C49   H15   S    
C3    C78   S    
C40   O3    A    
C65   H55   S    
C16   O12   A    
C16   C38   S    
C46   H8    S    
