data_mof_unit_61979.cif
_audit_creation_date              2013-03-05T16:22:39-0500
_audit_creation_method            fapswitch 2.2
_symmetry_space_group_name_H-M    P1
_symmetry_Int_Tables_number       1
_space_group_crystal_system       triclinic
_cell_length_a                    15.119014
_cell_length_b                    14.002624
_cell_length_c                    14.321689
_cell_angle_alpha                 90.027123
_cell_angle_beta                  91.949726
_cell_angle_gamma                 90.031882
_cell_volume                      3030.22944502

loop_
_atom_site_label
_atom_site_type_symbol
_atom_site_description
_atom_site_fract_x
_atom_site_fract_y
_atom_site_fract_z
_atom_type_partial_charge
O1    O     O_R   0.371460 0.581430 0.500010 -0.514121
O2    O     O_R   0.628540 0.418570 0.499990 -0.539172
O3    O     O_R   0.628540 0.581430 0.499990 -0.514841
O4    O     O_R   0.371460 0.418570 0.500010 -0.538759
C1    C     C_R   0.330094 0.500126 0.499921 0.934725
C2    C     C_R   0.669837 0.500175 0.500194 0.937760
O5    O     O_R   0.500000 0.581450 0.376050 -0.533267
O6    O     O_R   0.500000 0.418550 0.623950 -0.529255
O7    O     O_R   0.500000 0.581450 0.623950 -0.533215
O8    O     O_R   0.500000 0.418550 0.376050 -0.529056
C3    C     C_R   0.499833 0.500002 0.331206 0.835554
C4    C     C_R   0.500176 0.500039 0.668794 0.835153
Cu1   Cu    Cu3+1 0.500000 0.596430 0.500000 1.125908
Cu2   Cu    Cu3+1 0.500000 0.403570 0.500000 1.114515
C5    C     C_R   0.512379 0.106103 0.583080 0.282967
C6    C     C_R   0.428059 0.892198 0.461343 0.285025
C7    C     C_R   0.487663 0.105835 0.417171 0.282604
C8    C     C_R   0.571819 0.892303 0.539024 0.284758
C9    C     C_R   0.523261 0.206574 0.579562 0.426675
C10   C     C_R   0.433622 0.791604 0.453807 0.440202
C11   C     C_R   0.476941 0.206328 0.420442 0.428551
C12   C     C_R   0.566331 0.791686 0.546322 0.438669
N1    N     N_R   0.500000 0.258690 0.500000 -0.294256
N2    N     N_R   0.500000 0.741310 0.500000 -0.293428
C13   C     C_1   0.499871 0.499979 0.228872 -0.034428
C14   C     C_1   0.500168 0.500076 0.771130 -0.034904
C15   C     C_1   0.499921 0.499949 0.143413 0.098559
C16   C     C_1   0.500139 0.500032 0.856589 0.098311
C17   C     C_1   0.500001 0.499945 0.042735 0.104183
C18   C     C_1   0.500071 0.499973 0.957267 0.104148
C19   C     C_R   0.499945 0.053357 0.500183 -0.077465
C20   C     C_R   0.499921 0.944822 0.500239 -0.086887
C21   C     C_R   0.097254 0.562635 0.563402 0.394608
C22   C     C_R   0.908300 0.449918 0.567151 0.380476
C23   C     C_R   0.902576 0.559524 0.434525 0.395567
C24   C     C_R   0.091287 0.446361 0.436246 0.379700
C25   C     C_R   0.189810 0.559793 0.564597 0.290040
C26   C     C_R   0.815861 0.449024 0.567735 0.294700
C27   C     C_R   0.810028 0.556791 0.433386 0.288238
C28   C     C_R   0.183717 0.445482 0.435370 0.294176
C29   C     C_R   0.233289 0.501157 0.500384 -0.329083
C30   C     C_R   0.766523 0.501317 0.500023 -0.327133
C31   C     C_R   0.048326 0.505221 0.499884 -0.125933
C32   C     C_R   0.951397 0.505372 0.500808 -0.125685
Cl1   Cl    Cl    0.512502 0.047574 0.692755 -0.351648
Cl2   Cl    Cl    0.328899 0.950577 0.425151 -0.324340
Cl3   Cl    Cl    0.487722 0.046906 0.307635 -0.352002
Cl4   Cl    Cl    0.670972 0.950816 0.575266 -0.325500
Cl5   Cl    Cl    0.577249 0.257442 0.678463 -0.363739
Cl6   Cl    Cl    0.356031 0.733675 0.378683 -0.393621
Cl7   Cl    Cl    0.424119 0.256964 0.320831 -0.363999
Cl8   Cl    Cl    0.643969 0.733819 0.621310 -0.393307
Cl9   Cl    Cl    0.042223 0.638317 0.641625 -0.332926
Cl10  Cl    Cl    0.970461 0.381260 0.649727 -0.353498
Cl11  Cl    Cl    0.957690 0.630726 0.352630 -0.334257
Cl12  Cl    Cl    0.028919 0.373503 0.357297 -0.352986
Cl13  Cl    Cl    0.250491 0.627375 0.649437 -0.422574
Cl14  Cl    Cl    0.762876 0.386573 0.657191 -0.363466
Cl15  Cl    Cl    0.749226 0.620502 0.345891 -0.426035
Cl16  Cl    Cl    0.236199 0.378595 0.348607 -0.360984

loop_
_geom_bond_atom_site_label_1
_geom_bond_atom_site_label_2
_geom_bond_distance
_ccdc_geom_bond_type
Cu2   N1    2.028699 S    
O1    Cu1   1.954606 S    
C23   C27   1.399288 A    
C31   C32   1.465980 S    
C5    C9    1.417467 A    
C22   Cl10  1.769911 S    
C17   C18   1.224090 T    
C28   Cl16  1.765684 S    
C8    C12   1.415418 A    
C6    C20   1.411130 A    
C21   Cl9   1.770209 S    
C9    Cl5   1.760570 S    
O7    Cu1   1.787622 S    
C14   C16   1.223941 T    
C19   C20   1.519774 S    
O3    Cu1   1.954835 S    
C11   Cl7   1.760612 S    
O6    C4    1.309075 A    
O3    C2    1.298103 A    
C27   Cl15  1.770510 S    
C16   C18   1.441910 S    
C6    C10   1.415429 A    
Cu1   Cu2   2.700547 S    
O5    C3    1.308579 A    
C23   C32   1.405194 A    
O2    C2    1.301793 A    
C8    C20   1.411086 A    
C25   C29   1.411742 A    
O1    C1    1.298618 A    
C28   C29   1.409839 A    
C7    C19   1.404931 A    
C21   C25   1.399463 A    
C26   C30   1.408932 A    
C27   C30   1.410550 A    
C11   N1    1.388981 A    
O4    Cu2   1.954838 S    
C25   Cl13  1.770795 S    
O2    Cu2   1.954603 S    
O7    C4    1.308662 A    
C12   N2    1.377285 A    
C13   C15   1.223940 T    
O8    C3    1.309159 A    
C5    Cl1   1.771975 S    
C23   Cl11  1.769370 S    
C21   C31   1.404967 A    
C3    C13   1.465625 S    
C10   N2    1.377256 A    
O5    Cu1   1.787425 S    
C22   C32   1.404467 A    
C15   C17   1.441911 S    
C12   Cl8   1.761784 S    
O8    Cu2   1.787622 S    
C24   Cl12  1.770222 S    
C6    Cl2   1.770139 S    
C1    C29   1.463919 S    
C9    N1    1.388673 A    
C24   C28   1.397991 A    
C10   Cl6   1.761799 S    
O6    Cu2   1.787425 S    
C22   C26   1.397947 A    
C2    C30   1.461964 S    
C5    C19   1.405054 A    
C7    C11   1.417500 A    
C26   Cl14  1.765768 S    
C7    Cl3   1.772207 S    
Cu1   N2    2.028699 S    
C4    C14   1.465621 S    
O4    C1    1.302317 A    
C24   C31   1.404285 A    
C8    Cl4   1.770125 S    
