data_mof_unit_6022.cif
_audit_creation_date              2012-12-11T15:54:05-0500
_audit_creation_method            fapswitch 2.2
_symmetry_space_group_name_H-M    P1
_symmetry_Int_Tables_number       1
_space_group_crystal_system       triclinic
_cell_length_a                    10.68528
_cell_length_b                    10.727216
_cell_length_c                    17.089505
_cell_angle_alpha                 80.426622
_cell_angle_beta                  99.387248
_cell_angle_gamma                 118.842907
_cell_volume                      1684.14868087

loop_
_atom_site_label
_atom_site_type_symbol
_atom_type_description
_atom_site_fract_x
_atom_site_fract_y
_atom_site_fract_z
_atom_type_partial_charge
C1    C     C_R   0.384164 0.283480 0.631912 0.544135
C2    C     C_1   0.333258 0.186204 0.781407 0.013692
C3    C     C_1   0.335633 0.665790 0.277919 -0.032238
C4    C     C_R   0.412721 0.620592 0.601782 0.545386
C5    C     C_1   0.322661 0.674899 0.207257 0.001015
C6    C     C_R   0.815529 0.661288 0.153138 -0.000917
C7    C     C_R   0.783740 0.534122 0.202418 -0.019239
C8    C     C_R   0.776679 0.529301 0.281554 -0.038360
C9    C     C_R   0.807708 0.770770 0.264783 -0.053551
C10   C     C_R   0.813874 0.774539 0.183092 -0.130664
C11   C     C_3   0.839540 0.426113 0.217101 0.321082
C12   C     C_R   0.510628 0.726558 0.730110 -0.159887
C13   C     C_3   0.829976 0.421105 0.305651 -0.085347
C14   C     C_R   0.798855 0.648108 0.316117 0.029892
C15   C     C_R   0.314082 0.145096 0.165333 -0.040436
C16   C     C_R   0.776605 0.618750 0.626959 0.531372
C17   C     C_R   0.206507 0.157141 0.193906 0.014287
C18   C     C_R   0.210053 0.166739 0.272785 0.000431
C19   C     C_R   0.422137 0.133835 0.301040 -0.165467
C20   C     C_R   0.417752 0.123837 0.220077 -0.170457
C21   C     C_3   0.153690 0.264194 0.166321 0.328168
C22   C     C_3   0.159544 0.278117 0.253396 0.331755
C23   C     C_R   0.490338 0.743761 0.805672 -0.141900
C24   C     C_R   0.322653 0.164496 0.326750 -0.025983
C25   C     C_R   0.891932 0.702064 0.855799 0.540003
C26   C     C_R   0.316820 0.706032 0.898859 0.540504
C27   C     C_R   0.286384 0.118225 0.858291 0.550916
C28   C     C_R   0.350923 0.226219 0.400130 0.549763
C29   C     C_R   0.884454 0.689648 0.082271 0.558134
C30   C     C_R   0.312517 0.701319 0.124108 0.546206
C31   C     C_R   0.285180 0.106285 0.085487 0.544743
C32   C     C_R   0.365293 0.654524 0.360854 0.540260
C33   C     C_R   0.768734 0.621486 0.398307 0.545689
C34   C     C_3   0.105313 0.442366 0.791395 -0.191693
C35   C     C_R   0.357671 0.654923 0.837901 -0.000092
C36   C     C_R   0.264158 0.530819 0.801583 -0.047179
C37   C     C_R   0.283169 0.514324 0.726698 0.060369
C38   C     C_3   0.974959 0.476680 0.356726 -0.289449
C39   C     C_3   0.047118 0.478697 0.641417 -0.293228
C40   C     C_3   0.820123 0.901437 0.294371 -0.328723
C41   C     C_3   0.124650 0.421272 0.708548 0.337271
C42   C     C_R   0.398990 0.620414 0.685599 -0.028378
C43   C     C_1   0.822714 0.656541 0.706090 -0.047343
C44   C     C_1   0.850664 0.684626 0.773711 -0.035659
C45   C     C_1   0.364418 0.232805 0.714240 0.008631
Cr1   Cr    Cr6+3 0.608440 0.389080 0.519680 1.010369
Cr2   Cr    Cr6+3 0.288640 0.400090 0.490760 1.044575
Cr3   Cr    Cr6+3 0.602940 0.710800 0.489510 1.017914
Cr4   Cr    Cr6+3 0.052530 0.947560 0.964210 1.073064
Cr5   Cr    Cr6+3 0.059970 0.626800 0.992920 1.099412
Cr6   Cr    Cr6+3 0.373320 0.938440 0.995370 1.037864
F1    F     F_    0.015019 0.201595 0.129569 -0.578885
F2    F     F_    0.025881 0.230168 0.278630 -0.609935
F3    F     F_    0.091071 0.281142 0.702691 -0.614058
F4    F     F_    0.979533 0.481139 0.199012 -0.578638
H1    H     H_    0.609039 0.803415 0.704308 0.159188
H2    H     H_    0.067834 0.342733 0.833010 0.178833
H3    H     H_    0.831943 0.871627 0.144540 0.181782
H4    H     H_    0.961053 0.476334 0.419597 0.119724
H5    H     H_    0.021970 0.404834 0.356141 0.228434
H6    H     H_    0.050755 0.587189 0.334008 0.163169
H7    H     H_    0.058568 0.457706 0.582443 0.168602
H8    H     H_    0.931445 0.418796 0.649613 0.164739
H9    H     H_    0.085850 0.594977 0.642620 0.091479
H10   H     H_    0.907946 0.938417 0.343334 0.176549
H11   H     H_    0.843853 0.990466 0.246122 0.222880
H12   H     H_    0.764073 0.324080 0.191321 0.126482
H13   H     H_    0.717172 0.878004 0.314848 0.171271
H14   H     H_    0.746831 0.316589 0.330646 0.111764
H15   H     H_    0.507501 0.126729 0.342138 0.139541
H16   H     H_    0.495477 0.101188 0.200504 0.148508
H17   H     H_    0.230026 0.362278 0.132140 0.055959
H18   H     H_    0.240682 0.384363 0.271640 0.084543
H19   H     H_    0.572878 0.835685 0.834462 0.155955
H20   H     H_    0.048233 0.506013 0.791149 0.120319
O1    O     O_R   0.754020 0.497590 0.609930 -0.534289
O2    O     O_R   0.406180 0.826930 0.920660 -0.518872
O3    O     O_R   0.358620 0.062870 0.901950 -0.506294
O4    O     O_R   0.481420 0.271390 0.600630 -0.494564
O5    O     O_R   0.163910 0.085460 0.050210 -0.472041
O6    O     O_R   0.935200 0.815170 0.045770 -0.508562
O7    O     O_R   0.916120 0.596690 0.069430 -0.442644
O8    O     O_R   0.192310 0.631200 0.086170 -0.433670
O9    O     O_R   0.406770 0.819480 0.096420 -0.525010
O10   O     O_R   0.359170 0.055960 0.064880 -0.508599
O11   O     O_3   0.161940 0.837600 0.984160 -0.270229
O12   O     O_R   0.295080 0.533620 0.397890 -0.511767
O13   O     O_R   0.263810 0.254550 0.589590 -0.449265
O14   O     O_R   0.300820 0.531200 0.560890 -0.512546
O15   O     O_R   0.491480 0.744020 0.564270 -0.500968
O16   O     O_R   0.726290 0.693800 0.583010 -0.506069
O17   O     O_R   0.747830 0.500190 0.434090 -0.524442
O18   O     O_R   0.475680 0.273800 0.437630 -0.498430
O19   O     O_R   0.257620 0.257160 0.413750 -0.491194
O20   O     O_R   0.485280 0.746620 0.388440 -0.518440
O21   O     O_R   0.720550 0.696220 0.420010 -0.506753
O22   O     O_3   0.500010 0.499990 0.499980 -0.296083
O23   O     O_R   0.163320 0.092900 0.874450 -0.476776
O24   O     O_R   0.934650 0.822080 0.882840 -0.492330
O25   O     O_R   0.915520 0.604140 0.893670 -0.523443
O26   O     O_R   0.191760 0.638110 0.923230 -0.505637

loop_
_geom_bond_atom_site_label_1
_geom_bond_atom_site_label_2
_ccdc_geom_bond_type
C27   O23   A    
C8    C13   S    
C31   O10   A    
Cr3   O20   S    
C19   C20   A    
C43   C44   T    
C27   O3    A    
Cr6   O10   S    
C14   C33   S    
Cr1   O1    S    
C31   O5    A    
C39   C41   S    
C7    C11   S    
C39   H9    S    
C12   C23   A    
C13   H14   S    
C18   C24   A    
C36   C37   A    
C10   H3    S    
C5    C30   S    
C26   O26   A    
Cr1   O4    S    
Cr1   O17   S    
C30   O8    A    
Cr6   O11   S    
C28   O19   A    
Cr4   O6    S    
C37   C42   A    
C12   C42   A    
Cr4   O23   S    
C25   O24   A    
C35   C36   A    
Cr3   O16   S    
C34   H2    S    
C20   H16   S    
C2    C27   S    
C9    C10   A    
C34   H20   S    
C38   H6    S    
C1    O13   A    
C16   O1    A    
Cr3   O15   S    
C21   C22   S    
C30   O9    A    
Cr2   O14   S    
C34   C41   S    
C25   C44   S    
C11   H12   S    
Cr5   O8    S    
C22   F2    S    
C4    O15   A    
C2    C45   T    
C15   C20   A    
C26   O2    A    
C21   H17   S    
C7    C8    A    
C33   O17   A    
C32   O12   A    
C9    C40   S    
C17   C21   S    
C28   O18   A    
Cr2   O12   S    
C9    C14   A    
Cr6   O2    S    
C29   O6    A    
Cr3   O22   S    
Cr4   O24   S    
C25   O25   A    
C6    C29   S    
C17   C18   A    
C16   C43   S    
C13   C38   S    
C12   H1    S    
C16   O16   A    
C38   H5    S    
Cr1   O22   S    
C23   C35   A    
C40   H10   S    
C1    O4    A    
C23   H19   S    
C33   O21   A    
C11   F4    S    
Cr5   O7    S    
C4    O14   A    
C15   C17   A    
C39   H7    S    
C8    C14   A    
Cr3   O21   S    
C18   C22   S    
Cr4   O11   S    
C24   C28   S    
C3    C5    T    
C6    C10   A    
C15   C31   S    
C6    C7    A    
C39   H8    S    
Cr5   O25   S    
Cr2   O22   S    
Cr4   O5    S    
Cr2   O13   S    
C19   C24   A    
Cr6   O3    S    
C29   O7    A    
C11   C13   S    
C1    C45   S    
Cr1   O18   S    
C4    C42   S    
Cr2   O19   S    
C34   C36   S    
C37   C41   S    
C3    C32   S    
C41   F3    S    
Cr5   O11   S    
C38   H4    S    
C26   C35   S    
C32   O20   A    
Cr5   O26   S    
C40   H13   S    
C19   H15   S    
C40   H11   S    
C22   H18   S    
Cr6   O9    S    
C21   F1    S    
