data_mof_unit_65943.cif
_audit_creation_date              2012-10-26T19:31:02-0400
_audit_creation_method            fapswitch 2.2
_symmetry_space_group_name_H-M    P1
_symmetry_Int_Tables_number       1
_space_group_crystal_system       triclinic
_cell_length_a                    14.630369
_cell_length_b                    15.883585
_cell_length_c                    17.334594
_cell_angle_alpha                 90.084902
_cell_angle_beta                  85.857942
_cell_angle_gamma                 90.226086
_cell_volume                      4017.70406373

loop_
_atom_site_label
_atom_site_type_symbol
_atom_type_description
_atom_site_fract_x
_atom_site_fract_y
_atom_site_fract_z
_atom_type_partial_charge
C1    C     C_R   0.500201 0.660463 0.499799 0.555130
C2    C     C_3   0.585408 0.028583 0.486734 0.199783
C3    C     C_3   0.500667 0.916702 0.499275 -0.052181
C4    C     C_3   0.499485 0.083297 0.500695 -0.062232
C5    C     C_1   0.500848 0.825249 0.499032 0.091148
C6    C     C_1   0.499183 0.174750 0.500948 0.081133
C7    C     C_3   0.025282 0.460491 0.564086 -0.144513
C8    C     C_3   0.974716 0.539537 0.436014 -0.120000
C9    C     C_3   0.964098 0.540365 0.563169 0.084357
C10   C     C_3   0.035909 0.459630 0.436884 0.049025
C11   C     C_3   0.968994 0.421506 0.500602 0.188458
C12   C     C_R   0.499797 0.339536 0.500200 0.555213
C13   C     C_3   0.031013 0.578456 0.499486 0.244632
C14   C     C_3   0.908212 0.500354 0.500067 -0.054156
C15   C     C_3   0.091793 0.499644 0.499998 -0.064542
C16   C     C_R   0.488027 0.496529 0.650038 0.553583
C17   C     C_R   0.511973 0.503459 0.349960 0.552583
C18   C     C_1   0.805731 0.500190 0.499981 0.249374
C19   C     C_1   0.194269 0.499816 0.500042 0.243489
C20   C     C_R   0.482281 0.489712 0.734105 0.005796
C21   C     C_R   0.517712 0.510245 0.265889 0.004663
C22   C     C_R   0.546672 0.534749 0.773473 -0.121741
C23   C     C_3   0.448932 0.027668 0.444979 0.228148
C24   C     C_R   0.453291 0.465222 0.226541 -0.120969
C25   C     C_R   0.549271 0.526728 0.852533 -0.109865
C26   C     C_R   0.450674 0.473227 0.147481 -0.109098
C27   C     C_R   0.486662 0.474159 0.894261 0.020087
C28   C     C_R   0.513290 0.525770 0.105734 0.019824
C29   C     C_R   0.421173 0.427894 0.855758 0.128263
C30   C     C_R   0.578820 0.572010 0.144213 0.126722
C31   C     C_R   0.419202 0.435096 0.774805 0.100389
C32   C     C_R   0.580814 0.564820 0.225164 0.098929
C33   C     C_2   0.492054 0.466375 0.978059 -0.102516
C34   C     C_3   0.551273 0.972329 0.555007 0.236883
C35   C     C_2   0.507870 0.533556 0.021941 -0.102591
C36   C     C_3   0.535354 0.972394 0.429911 -0.134514
C37   C     C_3   0.464834 0.027614 0.570054 -0.167011
C38   C     C_1   0.500641 0.749897 0.499302 0.083940
C39   C     C_1   0.499354 0.250103 0.500688 0.079216
C40   C     C_3   0.414806 0.971432 0.513229 0.168873
Cu1   Cu    Cu3+1 0.409780 0.500000 0.499990 1.112034
Cu2   Cu    Cu3+1 0.590220 0.500000 0.500010 1.118187
H1    H     H_    0.596131 0.575770 0.742635 0.167275
H2    H     H_    0.436053 0.050570 0.627225 0.176404
H3    H     H_    0.010711 0.807473 0.498112 0.404391
H4    H     H_    0.059538 0.260148 0.472183 0.364223
H5    H     H_    0.299713 0.010117 0.285678 0.390178
H6    H     H_    0.705610 0.988463 0.710873 0.388965
H7    H     H_    0.801295 0.984071 0.506303 0.398044
H8    H     H_    0.250903 0.049192 0.581011 0.347210
H9    H     H_    0.403820 0.424226 0.257396 0.167397
H10   H     H_    0.045316 0.427321 0.616565 0.183391
H11   H     H_    0.954690 0.572741 0.383548 0.185307
H12   H     H_    0.517184 0.595344 0.995791 0.165731
H13   H     H_    0.482738 0.404588 0.004211 0.165833
H14   H     H_    0.398262 0.439184 0.119070 0.159163
H15   H     H_    0.601662 0.560784 0.880958 0.158587
H16   H     H_    0.564116 0.949433 0.372735 0.193633
I1    I     I_    0.672660 0.642179 0.285588 -0.174503
I2    I     I_    0.327435 0.357693 0.714337 -0.200432
I3    I     I_    0.324139 0.349828 0.920955 -0.199764
I4    I     I_    0.675875 0.650022 0.078978 -0.196437
I5    I     I_    0.907454 0.603439 0.664497 -0.119911
I6    I     I_    0.092677 0.397996 0.334804 -0.180756
N1    N     N_1   0.725810 0.500000 0.500030 -0.158649
N2    N     N_1   0.274190 0.500000 0.499970 -0.158812
O1    O     O_R   0.423830 0.620920 0.499990 -0.470242
O2    O     O_2   0.134404 0.697489 0.425700 -0.220036
O3    O     O_3   0.983112 0.750436 0.497815 -0.458948
O4    O     O_2   0.855986 0.306501 0.569509 -0.187898
O5    O     O_2   0.885213 0.295262 0.428946 -0.188194
O6    O     O_3   0.013914 0.249102 0.516034 -0.429519
O7    O     O_2   0.305489 0.119746 0.406522 -0.222458
O8    O     O_2   0.441604 0.118030 0.315000 -0.244782
O9    O     O_3   0.337914 0.984355 0.324151 -0.440025
O10   O     O_2   0.556388 0.886329 0.687615 -0.235982
O11   O     O_2   0.690332 0.875159 0.594475 -0.246836
O12   O     O_R   0.576170 0.379080 0.500010 -0.469123
O13   O     O_3   0.667367 0.014669 0.672671 -0.453931
O14   O     O_2   0.702635 0.120175 0.394470 -0.181642
O15   O     O_2   0.723233 0.124493 0.533270 -0.182859
O16   O     O_3   0.773286 0.988928 0.456178 -0.434800
O17   O     O_2   0.277108 0.876405 0.465977 -0.143712
O18   O     O_2   0.295745 0.880801 0.605231 -0.217151
O19   O     O_3   0.226676 0.011904 0.541362 -0.406327
O20   O     O_R   0.576200 0.620920 0.500000 -0.487737
O21   O     O_R   0.423800 0.379080 0.500000 -0.493152
O22   O     O_R   0.414980 0.500010 0.613590 -0.475634
O23   O     O_R   0.585020 0.499990 0.386410 -0.476911
O24   O     O_R   0.567350 0.500010 0.613600 -0.502177
O25   O     O_R   0.432650 0.499990 0.386400 -0.501689
O26   O     O_2   0.124799 0.699949 0.567702 -0.200856
S1    S     S_3+6 0.072405 0.684146 0.497624 0.098780
S2    S     S_3+6 0.927361 0.315788 0.503262 0.109592
S3    S     S_3+6 0.381814 0.066172 0.370935 0.091270
S4    S     S_3+6 0.617866 0.933434 0.629250 0.071212
S5    S     S_3+6 0.698631 0.069031 0.467474 0.133689
S6    S     S_3+6 0.301191 0.931644 0.532004 0.127673

loop_
_geom_bond_atom_site_label_1
_geom_bond_atom_site_label_2
_ccdc_geom_bond_type
C33   H13   S    
C16   O24   A    
C8    C13   S    
O14   S5    D    
C27   C29   A    
C34   C37   S    
Cu1   Cu2   S    
C14   C18   S    
C2    C4    S    
C17   O25   A    
O9    S3    S    
Cu1   O1    S    
O5    S2    D    
C27   C33   S    
C18   N1    T    
C15   C19   S    
H6    O13   S    
O4    S2    D    
C34   S4    S    
C7    H10   S    
C37   C40   S    
C36   H16   S    
C10   C15   S    
C40   S6    S    
C11   C14   S    
C23   C40   S    
C19   N2    T    
C9    C13   S    
O19   S6    S    
H8    O19   S    
C1    O1    A    
C28   C35   S    
C22   C25   A    
C12   O12   A    
Cu2   N1    S    
Cu2   O20   S    
H4    O6    S    
O6    S2    S    
C2    C34   S    
C24   H9    S    
C7    C15   S    
C5    C38   T    
C35   H12   S    
C25   H15   S    
Cu1   O21   S    
C21   C32   A    
C29   I3    S    
H3    O3    S    
C17   O23   A    
C2    S5    S    
C4    C6    S    
C4    C23   S    
C3    C34   S    
O17   S6    D    
C17   C21   S    
C13   S1    S    
Cu2   O24   S    
H7    O16   S    
C7    C11   S    
C9    C14   S    
C22   H1    S    
C16   C20   S    
C1    C38   S    
C11   S2    S    
Cu1   O25   S    
C20   C22   A    
C3    C40   S    
Cu2   O12   S    
C13   C15   S    
O16   S5    S    
O7    S3    D    
O3    S1    S    
C2    C36   S    
C1    O20   A    
C7    C9    S    
Cu1   O22   S    
C8    C14   S    
C12   O21   A    
C9    I5    S    
O8    S3    D    
C10   I6    S    
C24   C26   A    
C3    C5    S    
C26   H14   S    
C8    H11   S    
Cu1   N2    S    
C25   C27   A    
O11   S4    D    
C26   C28   A    
O2    S1    D    
C32   I1    S    
Cu2   O23   S    
O18   S6    D    
C37   H2    S    
C30   I4    S    
H5    O9    S    
O13   S4    S    
C29   C31   A    
O10   S4    D    
C30   C32   A    
O15   S5    D    
C3    C36   S    
C12   C39   S    
C28   C30   A    
O26   S1    D    
C33   C35   D    
C23   S3    S    
C10   C11   S    
C4    C37   S    
C8    C10   S    
C23   C36   S    
C21   C24   A    
C16   O22   A    
C6    C39   T    
C31   I2    S    
C20   C31   A    
