data_mof_unit_24453.cif
_audit_creation_date              2012-12-11T15:42:49-0500
_audit_creation_method            fapswitch 2.2
_symmetry_space_group_name_H-M    P1
_symmetry_Int_Tables_number       1
_space_group_crystal_system       triclinic
_cell_length_a                    6.928153
_cell_length_b                    14.54469
_cell_length_c                    16.219479
_cell_angle_alpha                 90.501524
_cell_angle_beta                  89.672325
_cell_angle_gamma                 90.187507
_cell_volume                      1634.30399969

loop_
_atom_site_label
_atom_site_type_symbol
_atom_type_description
_atom_site_fract_x
_atom_site_fract_y
_atom_site_fract_z
_atom_type_partial_charge
O1    O     O_R   0.505810 0.583360 0.413880 -0.514304
O2    O     O_R   0.175870 0.595480 0.585520 -0.546798
O3    O     O_R   0.005540 0.416640 0.586120 -0.547108
C1    C     C_R   0.344758 0.617406 0.614860 0.687810
O4    O     O_R   0.176100 0.594390 0.414490 -0.551248
O5    O     O_R   0.005770 0.415540 0.413870 -0.544050
C2    C     C_R   0.345671 0.614926 0.384608 0.728610
O6    O     O_R   0.505580 0.584460 0.586130 -0.540631
O7    O     O_3   0.339190 0.441320 0.500000 -0.368286
V1    V     V_3+5 0.064350 0.510890 0.500000 1.412011
O8    O     O_R   0.676050 0.404520 0.414480 -0.541371
C3    C     C_R   0.845262 0.382315 0.385682 0.707419
O9    O     O_R   0.675830 0.405610 0.585510 -0.513181
C4    C     C_R   0.843841 0.383442 0.613479 0.746354
V2    V     V_3+5 0.564340 0.489110 0.500000 1.460238
O10   O     O_3   0.839370 0.558680 0.500000 -0.371166
C5    C     C_2   0.726229 0.212321 0.789363 -0.276825
C6    C     C_2   0.889212 0.191044 0.830414 0.243031
H1    H     H_    0.593073 0.176791 0.805175 0.124139
C7    C     C_2   0.708877 0.287888 0.728069 0.225265
C8    C     C_2   0.854893 0.310349 0.675987 -0.272350
H2    H     H_    0.989359 0.272611 0.677202 0.151787
C9    C     C_R   0.030596 0.242969 0.202503 -0.233958
H3    H     H_    0.157679 0.242014 0.163357 0.128046
C10   C     C_R   0.021159 0.307379 0.267049 -0.153040
H4    H     H_    0.142010 0.353678 0.276369 0.126497
C11   C     C_R   0.856436 0.313278 0.317806 -0.069643
C12   C     C_R   0.702604 0.252416 0.303351 -0.213235
H5    H     H_    0.575277 0.254811 0.342425 0.124627
C13   C     C_R   0.712363 0.186127 0.239897 0.208209
C14   C     C_R   0.877123 0.181602 0.187698 -0.043055
C15   C     C_R   0.187979 0.722404 0.720163 -0.159008
H6    H     H_    0.046986 0.703902 0.696694 0.115420
C16   C     C_R   0.199511 0.784629 0.786476 -0.150455
H7    H     H_    0.066720 0.812391 0.811712 0.118747
C17   C     C_R   0.379456 0.810901 0.819462 -0.045075
C18   C     C_R   0.547474 0.772789 0.784343 -0.156160
H8    H     H_    0.688462 0.791222 0.807860 0.115869
C19   C     C_R   0.535940 0.710565 0.718031 -0.148135
H9    H     H_    0.668723 0.682736 0.692843 0.117533
C20   C     C_R   0.356047 0.684643 0.684782 -0.045854
C21   C     C_R   0.209336 0.743348 0.300791 -0.234695
H10   H     H_    0.084501 0.745013 0.341272 0.139579
C22   C     C_R   0.220142 0.806516 0.236385 -0.223555
H11   H     H_    0.103377 0.855092 0.229228 0.140511
C23   C     C_R   0.380585 0.808769 0.183037 -0.069626
C24   C     C_R   0.529980 0.743857 0.194127 0.154011
C25   C     C_R   0.519047 0.679722 0.259490 0.159710
C26   C     C_R   0.358741 0.680271 0.314197 -0.067090
O11   O     O_R   0.230120 0.912300 0.917180 -0.542477
O12   O     O_R   0.559740 0.902430 0.088770 -0.510878
O13   O     O_R   0.729930 0.081310 0.089370 -0.514503
C27   C     C_R   0.390484 0.879070 0.116501 0.753169
O14   O     O_R   0.559840 0.901330 0.917750 -0.543293
O15   O     O_R   0.730030 0.080210 0.917120 -0.556150
C28   C     C_R   0.390867 0.878904 0.888795 0.682366
O16   O     O_R   0.230020 0.913400 0.089430 -0.547876
O17   O     O_3   0.396460 0.055470 0.003290 -0.369947
V3    V     V_3+5 0.671360 0.985960 0.003250 1.454824
O18   O     O_R   0.059740 0.091300 0.917690 -0.531300
C29   C     C_R   0.891707 0.115234 0.891195 0.642056
O19   O     O_R   0.059640 0.092400 0.088720 -0.552558
C30   C     C_R   0.890167 0.113830 0.118309 0.706611
V4    V     V_3+5 0.171350 0.007820 0.003190 1.423631
O20   O     O_3   0.896380 0.938200 0.003220 -0.364352
N1    N     N_3   0.690104 0.741594 0.137570 -0.659180
H12   H     H_    0.817774 0.751667 0.170456 0.229558
H13   H     H_    0.694526 0.677191 0.108579 0.218711
N2    N     N_3   0.667922 0.612238 0.269068 -0.662556
H14   H     H_    0.799843 0.645837 0.277831 0.226869
H15   H     H_    0.676154 0.571911 0.215539 0.215278
O21   O     O_3   0.059774 0.238293 0.814880 -0.579440
C31   C     C_3   0.105290 0.297813 0.881644 0.109035
H16   H     H_    0.262243 0.291013 0.893839 0.132052
H17   H     H_    0.029043 0.281312 0.940608 0.079987
C32   C     C_3   0.062862 0.397328 0.857924 -0.319202
H18   H     H_    0.135508 0.413275 0.798427 0.205003
H19   H     H_    0.904811 0.406029 0.849959 0.194315
C33   C     C_3   0.133260 0.464913 0.923735 -0.845210
H20   H     H_    0.060892 0.450982 0.983658 0.230099
H21   H     H_    0.098826 0.536203 0.904897 0.238400
H22   H     H_    0.292035 0.459164 0.931261 0.228815
N3    N     N_3   0.528625 0.335994 0.724429 -0.646634
H23   H     H_    0.419533 0.287965 0.712405 0.242535
H24   H     H_    0.501888 0.364780 0.782643 0.216857
N4    N     N_3   0.556498 0.121943 0.230548 -0.658925
H25   H     H_    0.429925 0.159081 0.220956 0.223303
H26   H     H_    0.540548 0.086171 0.285821 0.215485

loop_
_geom_bond_atom_site_label_1
_geom_bond_atom_site_label_2
_ccdc_geom_bond_type
N1    H13   S    
O15   V3    S    
O11   V4    S    
C31   H16   S    
C32   C33   S    
C25   N2    S    
C1    O6    A    
C19   C20   A    
O19   C30   A    
C4    C8    S    
C17   C18   A    
C32   H19   S    
O5    C3    A    
C13   C14   A    
N4    H26   S    
C1    C20   S    
V2    O10   S    
C5    C7    S    
C16   H7    S    
N2    H15   S    
O19   V4    S    
O8    V2    S    
C24   C25   A    
C15   C20   A    
O1    V2    S    
C13   N4    S    
O7    V1    S    
C24   N1    S    
N1    H12   S    
O9    C4    A    
C6    O21   S    
C31   H17   S    
C21   C22   A    
C10   H4    S    
C22   C23   A    
O14   V3    S    
O17   V4    S    
O14   C28   A    
C3    C11   S    
C14   C30   S    
C32   H18   S    
C2    C26   S    
C19   H9    S    
O4    C2    A    
C27   O16   A    
N4    H25   S    
O17   V3    S    
O11   C28   A    
O18   C29   A    
O12   C27   A    
C9    C14   A    
O2    C1    A    
C18   H8    S    
C17   C28   S    
O13   V3    S    
N3    H23   S    
C9    H3    S    
C5    C6    D    
O3    C4    A    
C25   C26   A    
N3    H24   S    
O6    V2    S    
O9    V2    S    
C31   C32   S    
O12   V3    S    
C21   H10   S    
O2    V1    S    
C22   H11   S    
O16   V4    S    
C33   H21   S    
C23   C24   A    
C12   H5    S    
O1    C2    A    
O21   C31   S    
O13   C30   A    
O5    V1    S    
C33   H22   S    
O8    C3    A    
C6    C29   S    
C10   C11   A    
O18   V4    S    
V4    O20   S    
C12   C13   A    
O7    V2    S    
O4    V1    S    
C18   C19   A    
O3    V1    S    
V1    O10   S    
C15   H6    S    
O15   C29   A    
C23   C27   S    
C5    H1    S    
C16   C17   A    
C9    C10   A    
N2    H14   S    
C21   C26   A    
C33   H20   S    
C7    C8    D    
C7    N3    S    
C11   C12   A    
C8    H2    S    
V3    O20   S    
C15   C16   A    
