data_mof_unit_47594.cif
_audit_creation_date              2012-12-10T17:08:47-0500
_audit_creation_method            fapswitch 2.2
_symmetry_space_group_name_H-M    P1
_symmetry_Int_Tables_number       1
_space_group_crystal_system       triclinic
_cell_length_a                    27.777514
_cell_length_b                    11.037789
_cell_length_c                    9.804381
_cell_angle_alpha                 111.31291
_cell_angle_beta                  97.873993
_cell_angle_gamma                 90.809629
_cell_volume                      2767.39416491

loop_
_atom_site_label
_atom_site_type_symbol
_atom_type_description
_atom_site_fract_x
_atom_site_fract_y
_atom_site_fract_z
_atom_type_partial_charge
C1    C     C_R   0.496483 0.253976 0.440483 0.871340
C2    C     C_R   0.503512 0.746024 0.559518 0.871455
C3    C     C_R   0.104472 0.522195 0.547528 -0.123331
C4    C     C_R   0.898986 0.520100 0.510160 -0.118520
C5    C     C_R   0.127549 0.404513 0.524041 -0.105983
C6    C     C_R   0.875021 0.636977 0.558999 -0.080066
C7    C     C_R   0.100501 0.294636 0.520578 0.460836
C8    C     C_R   0.902735 0.756997 0.620193 0.430379
C9    C     C_R   0.132526 0.635780 0.568098 -0.061437
C10   C     C_R   0.871009 0.400068 0.449357 -0.059290
C11   C     C_R   0.354778 0.502752 0.507430 -0.039092
C12   C     C_R   0.645415 0.501117 0.495337 -0.041281
C13   C     C_R   0.973793 0.403202 0.479501 -0.001478
C14   C     C_R   0.030929 0.646902 0.586901 -0.017753
C15   C     C_R   0.978957 0.644240 0.584415 0.027726
C16   C     C_R   0.025317 0.406917 0.510875 0.014469
C17   C     C_R   0.950754 0.522657 0.523910 0.002850
C18   C     C_R   0.053360 0.525770 0.548544 -0.010138
C19   C     C_R   0.944506 0.284646 0.399858 0.419319
C20   C     C_R   0.062014 0.763379 0.624335 0.452851
C21   C     C_R   0.893886 0.284394 0.394997 -0.276432
C22   C     C_R   0.110852 0.753722 0.602769 -0.235800
C23   C     C_R   0.407486 0.500472 0.501920 0.801109
C24   C     C_R   0.592537 0.499980 0.498334 0.802128
C25   C     C_R   0.049976 0.296253 0.511977 -0.247176
C26   C     C_R   0.953581 0.757859 0.638312 -0.299728
C27   C     C_2   0.494552 0.114529 0.406840 -0.347139
C28   C     C_2   0.505433 0.885471 0.593162 -0.346531
C29   C     C_2   0.500880 0.069593 0.516567 -0.146083
C30   C     C_2   0.499085 0.930407 0.483436 -0.146086
C31   C     C_2   0.504176 0.510404 0.081292 -0.075298
C32   C     C_2   0.495810 0.489631 0.918713 -0.074926
C33   C     C_R   0.177507 0.402400 0.511151 0.545580
C34   C     C_R   0.823700 0.629687 0.547679 0.560540
C35   C     C_R   0.182329 0.629676 0.556698 0.562799
C36   C     C_R   0.820212 0.397833 0.442309 0.557139
C37   C     C_R   0.271850 0.502944 0.390252 -0.103745
C38   C     C_R   0.713937 0.476532 0.359880 -0.101073
C39   C     C_R   0.321683 0.498805 0.383471 -0.210125
C40   C     C_R   0.663741 0.473978 0.361262 -0.216929
C41   C     C_R   0.337094 0.510059 0.637699 -0.209007
C42   C     C_R   0.678161 0.530524 0.627592 -0.205422
C43   C     C_R   0.287299 0.513530 0.643871 -0.118731
C44   C     C_R   0.728206 0.533533 0.625940 -0.109560
C45   C     C_R   0.254634 0.510438 0.520500 0.359092
C46   C     C_R   0.746245 0.506763 0.492341 0.350794
Cu1   Cu    Cu3+1 0.508480 0.521810 0.644910 0.947074
Cu2   Cu    Cu3+1 0.491520 0.478190 0.355090 0.946839
H1    H     H_    0.361672 0.512842 0.734771 0.155680
H2    H     H_    0.665185 0.551978 0.732594 0.161038
H3    H     H_    0.512036 0.951836 0.708289 0.152345
H4    H     H_    0.487958 0.048163 0.291712 0.152400
H5    H     H_    0.467486 0.417629 0.845720 0.158658
H6    H     H_    0.532488 0.582436 0.154290 0.160375
H7    H     H_    0.547904 0.622267 0.934433 0.193518
H8    H     H_    0.452106 0.377704 0.065559 0.193379
H9    H     H_    0.274010 0.518924 0.744599 0.127492
H10   H     H_    0.753090 0.556799 0.728574 0.135823
H11   H     H_    0.639370 0.450960 0.257717 0.158546
H12   H     H_    0.334275 0.493320 0.281764 0.159043
H13   H     H_    0.727764 0.455913 0.256275 0.137541
H14   H     H_    0.246593 0.500078 0.294447 0.130869
H15   H     H_    0.872309 0.192397 0.346427 0.192435
H16   H     H_    0.132304 0.840937 0.616102 0.180850
H17   H     H_    0.030957 0.210826 0.512948 0.201504
H18   H     H_    0.971376 0.850491 0.703137 0.211309
H19   H     H_    0.492499 0.864300 0.368119 0.180898
H20   H     H_    0.507457 0.135699 0.631885 0.180941
N1    N     N_R   0.203531 0.514004 0.527779 -0.475455
N2    N     N_R   0.797832 0.511476 0.492321 -0.477268
N3    N     N_2   0.478780 0.445430 0.137360 -0.285115
N4    N     N_2   0.521220 0.554570 0.862640 -0.284488
O1    O     O_R   0.504520 0.332330 0.577400 -0.578507
O2    O     O_R   0.495480 0.667670 0.422600 -0.578758
O3    O     O_R   0.490210 0.295500 0.332650 -0.571392
O4    O     O_R   0.509790 0.704500 0.667350 -0.571411
O5    O     O_R   0.437420 0.518430 0.622370 -0.582405
O6    O     O_R   0.562580 0.481570 0.377630 -0.582059
O7    O     O_R   0.423110 0.481600 0.377610 -0.575704
O8    O     O_R   0.576890 0.518400 0.622390 -0.576236
O9    O     O_2   0.199932 0.289960 0.480049 -0.493043
O10   O     O_2   0.799550 0.739224 0.591528 -0.484646
O11   O     O_2   0.793340 0.282909 0.387239 -0.543250
O12   O     O_2   0.209502 0.738517 0.575469 -0.538030
O13   O     O_3   0.123030 0.182876 0.518341 -0.559151
C47   C     C_3   0.124382 0.169275 0.657039 0.089949
H21   H     H_    0.131324 0.066436 0.639536 0.179133
H22   H     H_    0.089009 0.187253 0.700009 0.105685
C48   C     C_3   0.165784 0.257223 0.772588 -0.352427
H23   H     H_    0.200908 0.237314 0.729064 0.263739
H24   H     H_    0.159018 0.361229 0.795426 0.201176
C49   C     C_3   0.169809 0.234011 0.917881 -0.914624
H25   H     H_    0.134792 0.250574 0.962511 0.252425
H26   H     H_    0.198717 0.302558 0.000592 0.263597
H27   H     H_    0.179617 0.132839 0.900431 0.262375
O14   O     O_3   0.880082 0.872106 0.680415 -0.576950
C50   C     C_3   0.895132 0.971052 0.631922 0.098127
H28   H     H_    0.862073 0.001603 0.578702 0.183902
H29   H     H_    0.919986 0.939500 0.546847 0.131521
C51   C     C_3   0.918793 0.088885 0.765967 -0.369666
H30   H     H_    0.892182 0.125318 0.844185 0.229107
H31   H     H_    0.950818 0.059931 0.825203 0.205483
C52   C     C_3   0.935282 0.198672 0.719620 -0.891473
H32   H     H_    0.962063 0.164436 0.641720 0.268553
H33   H     H_    0.952859 0.281619 0.818837 0.249814
H34   H     H_    0.903484 0.233201 0.665743 0.267181
O15   O     O_3   0.966047 0.169011 0.333379 -0.630188
C53   C     C_3   0.943986 0.097415 0.185759 0.053871
H35   H     H_    0.972714 0.082614 0.114102 0.164624
H36   H     H_    0.915140 0.147593 0.140070 0.131190
C54   C     C_3   0.924014 0.963974 0.175651 -0.376624
H37   H     H_    0.954159 0.912530 0.212785 0.234432
H38   H     H_    0.896144 0.976521 0.249954 0.216909
C55   C     C_3   0.901223 0.880379 0.017925 -0.832741
H39   H     H_    0.870850 0.929624 0.978422 0.289163
H40   H     H_    0.886673 0.785040 0.014780 0.251584
H41   H     H_    0.929098 0.862471 0.943237 0.253086
O16   O     O_3   0.044531 0.886488 0.667371 -0.635676
C56   C     C_3   0.067440 0.967734 0.811768 -0.001423
H42   H     H_    0.054321 0.066662 0.833766 0.168681
H43   H     H_    0.107571 0.978722 0.819173 0.146171
C57   C     C_3   0.054741 0.922491 0.934566 -0.418023
H44   H     H_    0.014777 0.917457 0.932271 0.205680
H45   H     H_    0.067726 0.824078 0.917671 0.223902
C58   C     C_3   0.078332 0.016649 0.087337 -0.804962
H46   H     H_    0.118640 0.020888 0.095184 0.269747
H47   H     H_    0.068088 0.982913 0.173935 0.273805
H48   H     H_    0.065697 0.116006 0.108457 0.246282

loop_
_geom_bond_atom_site_label_1
_geom_bond_atom_site_label_2
_ccdc_geom_bond_type
C37   C45   A    
C27   C29   D    
C8    C26   A    
C14   C18   A    
C54   H37   S    
C8    O14   S    
C20   O16   S    
C50   H28   S    
C32   N4    D    
O13   C47   S    
Cu2   O7    S    
C19   C21   A    
Cu1   O4    S    
C28   H3    S    
C47   H22   S    
C9    C22   A    
C36   O11   S    
C53   H35   S    
C3    C18   A    
Cu2   O6    S    
O16   C56   S    
C49   H25   S    
C12   C42   A    
C24   O8    A    
Cu1   Cu2   S    
C44   H10   S    
C5    C33   A    
C58   H48   S    
O15   C53   S    
C48   H24   S    
C34   N2    A    
C30   H19   S    
C2    O2    A    
C33   N1    A    
C38   H13   S    
C1    C27   S    
C31   N3    D    
C40   H11   S    
C41   C43   A    
Cu2   O3    S    
C42   C44   A    
Cu1   O8    S    
C51   H31   S    
C50   H29   S    
C44   C46   A    
C37   H14   S    
C56   H43   S    
C10   C21   A    
C38   C46   A    
C13   C19   A    
C45   N1    S    
C1    O3    A    
C14   C20   A    
C25   H17   S    
Cu1   O1    S    
C4    C6    A    
C5    C7    A    
C47   H21   S    
C15   C26   A    
C6    C8    A    
C49   H27   S    
C6    C34   A    
C10   C36   A    
C26   H18   S    
C52   H34   S    
C12   C40   A    
C29   C30   S    
C3    C9    A    
Cu2   O2    S    
C29   H20   S    
C31   C32   S    
C56   H42   S    
H8    N3    S    
O14   C50   S    
C49   H26   S    
C54   H38   S    
C23   O5    A    
C48   C49   S    
C11   C39   A    
C43   C45   A    
C42   H2    S    
C4    C17   A    
C24   O6    A    
C36   N2    A    
C20   C22   A    
C58   H46   S    
C52   H33   S    
Cu1   O5    S    
Cu2   N3    S    
C57   H45   S    
C32   H5    S    
C50   C51   S    
C2    O4    A    
C27   H4    S    
C9    C35   A    
C56   C57   S    
C16   C25   A    
C15   C17   A    
H7    N4    S    
C3    C5    A    
C47   C48   S    
C55   H40   S    
C35   O12   S    
C55   H39   S    
C41   H1    S    
C12   C24   S    
C7    C25   A    
C53   C54   S    
C13   C17   A    
C1    O1    A    
C46   N2    S    
C57   C58   S    
C28   C30   D    
C57   H44   S    
C37   C39   A    
C38   C40   A    
C7    O13   S    
C33   O9    S    
C39   H12   S    
C11   C23   S    
C51   H30   S    
C53   H36   S    
C11   C41   A    
C54   C55   S    
C51   C52   S    
C31   H6    S    
Cu1   N4    S    
C21   H15   S    
C55   H41   S    
C43   H9    S    
C22   H16   S    
C35   N1    A    
C16   C18   A    
C13   C16   A    
C52   H32   S    
C58   H47   S    
C14   C15   A    
C2    C28   S    
C34   O10   S    
C23   O7    A    
C48   H23   S    
C4    C10   A    
C19   O15   S    
