data_mof_unit_58811.cif
_audit_creation_date              2012-12-11T18:06:50-0500
_audit_creation_method            fapswitch 2.2
_symmetry_space_group_name_H-M    P1
_symmetry_Int_Tables_number       1
_space_group_crystal_system       triclinic
_cell_length_a                    8.278082
_cell_length_b                    12.830728
_cell_length_c                    26.936386
_cell_angle_alpha                 97.176919
_cell_angle_beta                  92.961092
_cell_angle_gamma                 81.346755
_cell_volume                      2804.71354975

loop_
_atom_site_label
_atom_site_type_symbol
_atom_type_description
_atom_site_fract_x
_atom_site_fract_y
_atom_site_fract_z
_atom_type_partial_charge
Ba1   Ba    Ba6+2 0.859560 0.448380 0.523550 1.671323
Ba2   Ba    Ba6+2 0.330270 0.551530 0.476440 1.680659
C1    C     C_3   0.646243 0.085617 0.662735 -0.388070
C2    C     C_R   0.905785 0.601378 0.178283 0.570002
C3    C     C_2   0.757996 0.557130 0.270975 -0.125268
C4    C     C_3   0.179031 0.227204 0.660965 0.283240
C5    C     C_3   0.734645 0.591949 0.325924 0.023934
C6    C     C_1   0.988373 0.479829 0.342976 0.037494
C7    C     C_2   0.033022 0.477038 0.295545 -0.115862
C8    C     C_2   0.909479 0.514259 0.255648 0.196903
C9    C     C_R   0.034078 0.510980 0.102032 -0.083837
C10   C     C_R   0.080050 0.420070 0.126821 -0.038145
C11   C     C_R   0.161291 0.328349 0.099593 -0.069374
C12   C     C_3   0.666870 0.185828 0.640521 0.354169
C13   C     C_R   0.943870 0.601298 0.127759 -0.021340
C14   C     C_2   0.846482 0.528548 0.359633 -0.280570
C15   C     C_2   0.351703 0.477102 0.640526 -0.268381
C16   C     C_3   0.157178 0.208834 0.714700 -0.336704
C17   C     C_R   0.235643 0.428142 0.977860 0.016705
C18   C     C_R   0.044746 0.594204 0.973073 0.023354
C19   C     C_R   0.156768 0.509493 0.949740 0.033248
C20   C     C_R   0.374581 0.360067 0.956501 0.044151
C21   C     C_R   0.400067 0.355741 0.904922 -0.076845
C22   C     C_R   0.309363 0.427785 0.875299 -0.045542
C23   C     C_3   0.522996 0.715193 0.629633 0.305787
C24   C     C_R   0.193041 0.507900 0.898258 -0.081641
C25   C     C_R   0.114208 0.587217 0.869893 -0.025827
C26   C     C_R   0.153124 0.585540 0.819154 0.585228
C27   C     C_R   0.340588 0.425132 0.823797 0.582079
C28   C     C_3   0.206938 0.216531 0.407398 0.606180
C29   C     C_2   0.460521 0.488645 0.728928 -0.071834
C30   C     C_3   0.499677 0.490124 0.674441 -0.063007
C31   C     C_1   0.207870 0.522763 0.656431 0.039957
C32   C     C_2   0.169848 0.522567 0.703826 -0.129203
C33   C     C_2   0.302923 0.503841 0.743509 0.194323
C34   C     C_3   0.543214 0.747180 0.686270 -0.213117
C35   C     C_R   0.176933 0.422601 0.026512 0.016559
C36   C     C_R   0.076589 0.511244 0.051183 0.045469
C37   C     C_R   0.015943 0.599346 0.025175 0.018466
C38   C     C_R   0.204943 0.329109 0.050150 -0.104112
C39   C     C_R   0.893424 0.690530 0.102507 -0.065098
C40   C     C_3   0.126161 0.117815 0.402979 0.202226
C41   C     C_R   0.965078 0.671174 0.943313 -0.103806
C42   C     C_R   0.999281 0.667698 0.892992 -0.064428
C43   C     C_R   0.927238 0.689396 0.052302 -0.108367
C44   C     C_R   0.748906 0.819503 0.476239 0.164631
C45   C     C_3   0.063698 0.763054 0.340886 0.300599
C46   C     C_R   0.432467 0.187787 0.519337 -0.231860
C47   C     C_R   0.411923 0.011059 0.537630 -0.066088
C48   C     C_R   0.348327 0.118293 0.540024 0.038751
C49   C     C_R   0.576294 0.151324 0.493611 0.127567
C50   C     C_R   0.639492 0.040448 0.488898 -0.086015
C51   C     C_R   0.555464 0.969935 0.511433 -0.123076
C52   C     C_3   0.976567 0.775864 0.582502 0.285640
C53   C     C_R   0.613964 0.859416 0.505480 0.020238
C54   C     C_R   0.842247 0.888106 0.458990 0.053674
C55   C     C_R   0.784749 0.997425 0.463472 -0.117418
C56   C     C_3   0.053372 0.784785 0.286595 -0.358629
C57   C     C_3   0.968946 0.895574 0.593980 -0.342593
C58   C     C_3   0.696128 0.312500 0.375916 0.311925
C59   C     C_3   0.715354 0.282565 0.319863 -0.381452
C60   C     C_3   0.380621 0.791863 0.711295 -0.204526
C61   C     C_3   0.314969 0.903559 0.698926 -0.329320
C62   C     C_3   0.515375 0.952490 0.283771 -0.223417
C63   C     C_3   0.491201 0.871514 0.238389 -0.344961
C64   C     C_3   0.517239 0.308323 0.987582 -0.203841
C65   C     C_3   0.589518 0.390043 0.025121 -0.395265
C66   C     C_3   0.492954 0.829605 0.353134 0.671526
C67   C     C_3   0.430916 0.933497 0.330864 -0.178679
C68   C     C_R   0.037671 0.421511 0.177453 0.597250
H1    H     H_    0.781431 0.170612 0.619288 0.082600
H2    H     H_    0.589391 0.375654 0.381914 0.084400
H3    H     H_    0.634122 0.020185 0.632274 0.080115
H4    H     H_    0.827038 0.223702 0.312765 0.126765
H5    H     H_    0.725604 0.353779 0.301532 0.073923
H6    H     H_    0.607113 0.247662 0.303191 0.122782
H7    H     H_    0.560221 0.204575 0.614875 -0.055708
H8    H     H_    0.534596 0.099915 0.685121 0.129104
H9    H     H_    0.404889 0.684850 0.620358 -0.001002
H10   H     H_    0.624025 0.650819 0.618610 0.047017
H11   H     H_    0.598515 0.676411 0.704248 0.044906
H12   H     H_    0.147758 0.070151 0.366155 0.036694
H13   H     H_    0.631131 0.805349 0.693782 0.135915
H14   H     H_    0.753770 0.062074 0.687395 0.125781
H15   H     H_    0.189017 0.277620 0.740565 0.115372
H16   H     H_    0.172477 0.703934 0.346768 0.100870
H17   H     H_    0.955604 0.726662 0.347897 0.030935
H18   H     H_    0.066096 0.708150 0.262172 0.120385
H19   H     H_    0.934719 0.833196 0.278123 0.131591
H20   H     H_    0.153400 0.827094 0.278280 0.131049
H21   H     H_    0.441559 0.837320 0.390999 0.053291
H22   H     H_    0.451807 0.998589 0.360295 0.073157
H23   H     H_    0.992640 0.140730 0.404878 0.077911
H24   H     H_    0.103713 0.303783 0.654834 0.094277
H25   H     H_    0.298113 0.939057 0.322810 0.097154
H26   H     H_    0.158079 0.447325 0.285427 0.138733
H27   H     H_    0.188937 0.254702 0.116134 0.118295
H28   H     H_    0.560735 0.481046 0.756470 0.108293
H29   H     H_    0.500182 0.300135 0.888400 0.117727
H30   H     H_    0.250290 0.253813 0.029692 0.070026
H31   H     H_    0.661543 0.582319 0.244343 0.113543
H32   H     H_    0.825472 0.761975 0.121432 0.115943
H33   H     H_    0.872104 0.734243 0.957664 0.066735
H34   H     H_    0.851492 0.756927 0.575022 -0.027287
H35   H     H_    0.309553 0.232740 0.655967 -0.021300
H36   H     H_    0.934666 0.729017 0.872117 0.118154
H37   H     H_    0.042973 0.536358 0.714095 0.141955
H38   H     H_    0.885799 0.761750 0.036030 0.067842
H39   H     H_    0.820667 0.539572 0.399142 0.127895
H40   H     H_    0.363305 0.431937 0.603658 0.065704
H41   H     H_    0.343675 0.960394 0.554640 0.096872
H42   H     H_    0.855192 0.047235 0.447331 0.135106
H43   H     H_    0.381873 0.270996 0.521693 0.048796
H44   H     H_    0.028007 0.199972 0.720089 0.141365
H45   H     H_    0.052299 0.749341 0.549178 0.052766
H46   H     H_    0.238072 0.136198 0.723750 0.111394
H47   H     H_    0.188760 0.257949 0.445980 0.043819
H48   H     H_    0.295091 0.024474 0.433510 0.309863
H49   H     H_    0.403948 0.958312 0.712280 0.116861
H50   H     H_    0.292456 0.904136 0.658072 0.161248
H51   H     H_    0.197814 0.932262 0.717853 0.124344
H52   H     H_    0.287960 0.738342 0.700136 0.132260
H53   H     H_    0.400514 0.795068 0.752551 0.128414
H54   H     H_    0.706661 0.798771 0.324469 0.281337
H55   H     H_    0.550629 0.790919 0.245068 0.179246
H56   H     H_    0.919165 0.922793 0.631584 0.125174
H57   H     H_    0.359104 0.870538 0.229427 0.125084
H58   H     H_    0.547867 0.893728 0.205490 0.128999
H59   H     H_    0.462542 0.032441 0.273869 0.115243
H60   H     H_    0.647892 0.954608 0.291744 0.134468
H61   H     H_    0.701080 0.350992 0.043841 0.126172
H62   H     H_    0.623906 0.454386 0.005569 0.135086
H63   H     H_    0.501270 0.425213 0.054375 0.139049
H64   H     H_    0.487190 0.242867 0.006580 0.101672
H65   H     H_    0.618295 0.269588 0.962953 0.102745
H66   H     H_    0.861649 0.685671 0.490607 0.282727
H67   H     H_    0.889520 0.936365 0.565810 0.050132
H68   H     H_    0.389244 0.176247 0.362784 0.307435
H69   H     H_    0.093074 0.917663 0.593077 0.123765
H70   H     H_    0.807969 0.342049 0.392448 -0.015308
N1    N     N_R   0.952360 0.512057 0.203123 -0.419006
N2    N     N_R   0.264242 0.504341 0.796145 -0.423393
O1    O     O_2   0.907040 0.557650 0.617910 -0.479517
O2    O     O_2   0.181916 0.878139 0.466517 -0.453083
O3    O     O_3   0.073047 0.857433 0.373010 -0.604542
O4    O     O_3   0.139040 0.557570 0.557730 -0.494455
O5    O     O_3   0.571310 0.369620 0.475470 -0.485265
O6    O     O_2   0.348200 0.764910 0.523260 -0.462156
O7    O     O_3   0.531340 0.803407 0.604551 -0.664769
O8    O     O_2   0.414472 0.540398 0.322460 -0.518789
O9    O     O_3   0.435997 0.742706 0.323379 -0.645607
O10   O     O_2   0.074910 0.341594 0.198287 -0.599094
O11   O     O_2   0.435321 0.351661 0.803583 -0.594414
O12   O     O_3   0.672494 0.222065 0.397047 -0.604288
O13   O     O_2   0.831756 0.682092 0.200269 -0.639791
O14   O     O_2   0.089944 0.657750 0.795799 -0.610648
O15   O     O_3   0.684960 0.360550 0.588460 -0.497025
O16   O     O_2   0.839057 0.422544 0.673119 -0.499968
O17   O     O_3   0.043629 0.728354 0.624281 -0.628745
O18   O     O_3   0.674365 0.268940 0.679381 -0.580572
O19   O     O_2   0.841490 0.235060 0.476710 -0.483521
O20   O     O_3   0.099640 0.305100 0.564190 -0.495372
O21   O     O_2   0.010031 0.116624 0.536571 -0.453057
O22   O     O_3   0.183078 0.059450 0.441997 -0.716019
O23   O     O_3   0.128208 0.143222 0.628232 -0.620939
O24   O     O_3   0.663916 0.817290 0.358573 -0.781754
O25   O     O_3   0.788026 0.712156 0.463387 -0.707279
O26   O     O_3   0.373656 0.188079 0.399499 -0.780148
O27   O     O_2   0.282660 0.442310 0.382060 -0.455722
O28   O     O_3   0.050670 0.442340 0.442260 -0.502215
O29   O     O_3   0.504750 0.639360 0.411530 -0.427858
O30   O     O_3   0.136282 0.275287 0.369954 -0.689111
O31   O     O_3   0.618400 0.630290 0.524520 -0.455898
O32   O     O_3   0.090070 0.694820 0.435810 -0.478550
P1    P     P_3+3 0.072810 0.589830 0.610360 0.983366
P2    P     P_3+3 0.661990 0.251250 0.462170 1.030107
P3    P     P_3+3 0.147066 0.168915 0.566612 0.967002
P4    P     P_3+3 0.116900 0.410080 0.389630 0.987372
P5    P     P_3+3 0.045389 0.831616 0.434078 1.023338
P6    P     P_3+3 0.674313 0.387823 0.653580 0.967739
P7    P     P_3+3 0.532124 0.764672 0.539900 0.959450
P8    P     P_3+3 0.521233 0.623745 0.346304 0.970789

loop_
_geom_bond_atom_site_label_1
_geom_bond_atom_site_label_2
_ccdc_geom_bond_type
C21   H29   S    
C19   C24   A    
C45   O3    S    
Ba1   P2    S    
C40   H23   S    
O23   P3    S    
C12   H1    S    
O29   P8    S    
C65   H62   S    
C40   H12   S    
O1    P1    D    
C15   H40   S    
C16   H44   S    
O8    P8    D    
C59   H5    S    
C57   H56   S    
H48   O22   S    
C24   C25   A    
C60   C61   S    
O28   P4    S    
C32   H37   S    
C63   H57   S    
C52   H34   S    
C17   C19   A    
C22   C24   A    
C32   C33   S    
C35   C38   A    
Ba2   O31   S    
C36   C37   A    
C40   O22   S    
C12   H7    S    
C55   H42   S    
C57   H67   S    
C34   H13   S    
Ba2   O6    S    
C23   H10   S    
Ba1   O28   S    
C66   H21   S    
C54   C55   A    
H68   O26   S    
Ba1   Ba2   S    
C29   H28   S    
O16   P6    D    
C22   C27   A    
O18   P6    S    
O20   P3    S    
C17   C35   A    
C52   O17   S    
C64   H64   S    
C1    H3    S    
C9    C13   A    
C25   C42   A    
C46   C49   A    
C20   C64   S    
C66   C67   S    
C4    H24   S    
C44   C53   A    
O21   P3    D    
C21   C22   A    
C67   H22   S    
C7    C8    S    
C43   H38   S    
Ba2   O29   S    
C47   H41   S    
C46   C48   A    
C64   C65   S    
C4    O23   S    
O31   P7    S    
C6    C14   D    
O17   P1    S    
C52   H45   S    
O7    P7    S    
Ba1   O4    S    
C33   N2    S    
C15   C31   D    
C34   C60   S    
C60   H53   S    
C61   H51   S    
C14   H39   S    
C41   H33   S    
C52   C57   S    
C51   C53   A    
C59   H6    S    
C53   P7    S    
C4    C16   S    
C3    H31   S    
C16   H15   S    
C44   O25   S    
C49   C50   A    
C63   H58   S    
C17   C20   A    
C68   O10   D    
C13   C39   A    
C16   H46   S    
C2    N1    Am   
C3    C5    S    
O19   P2    D    
O5    P2    S    
C6    C7    D    
C23   C34   S    
Ba2   O5    S    
C12   O18   S    
C58   C59   S    
C8    N1    S    
C45   H17   S    
C9    C36   A    
C41   C42   A    
C45   H16   S    
C35   C36   A    
Ba1   O1    S    
C61   H49   S    
C29   C30   S    
O2    P5    D    
C57   H69   S    
C34   H11   S    
Ba1   O31   S    
O4    P1    S    
O3    P5    S    
C31   C32   D    
O6    P7    D    
C62   C67   S    
C62   H59   S    
C56   H20   S    
C7    H26   S    
C28   O30   S    
C1    C12   S    
C58   H70   S    
H54   O24   S    
C5    C14   S    
C28   H47   S    
Ba2   O28   S    
Ba1   O20   S    
C29   C33   D    
Ba1   O5    S    
C26   N2    Am   
C39   H32   S    
C11   C38   A    
O27   P4    D    
C60   H52   S    
C18   C41   A    
C50   C51   A    
O9    P8    S    
C27   O11   D    
O30   P4    S    
C18   C37   A    
C10   C68   A    
Ba1   P1    S    
C68   N1    Am   
C39   C43   A    
C5    P8    S    
C65   H63   S    
C18   C19   A    
C23   H9    S    
C65   H61   S    
C48   P3    S    
C23   O7    S    
C62   H60   S    
C67   H25   S    
C56   H18   S    
C38   H30   S    
C9    C10   A    
H66   O25   S    
C42   H36   S    
C59   H4    S    
Ba2   O4    S    
Ba2   P4    S    
C37   C43   A    
C62   C63   S    
C2    C13   A    
Ba1   O15   S    
C28   O26   S    
C3    C8    D    
C66   O9    S    
Ba2   O32   S    
C45   C56   S    
C61   H50   S    
C47   C51   A    
C27   N2    Am   
C4    H35   S    
C28   C40   S    
C11   H27   S    
C49   P2    S    
C31   P1    S    
C56   H19   S    
C58   O12   S    
C50   C55   A    
Ba2   O27   S    
Ba1   O19   S    
C64   H65   S    
C6    P4    S    
C2    O13   D    
C10   C11   A    
C47   C48   A    
C44   C54   A    
C1    H14   S    
C26   O14   D    
C15   C30   S    
C58   H2    S    
C20   C21   A    
C30   P6    S    
O12   P2    S    
C1    H8    S    
O32   P5    S    
O15   P6    S    
C63   H55   S    
C46   H43   S    
C25   C26   A    
C54   P5    S    
C66   O24   S    
