data_mof_unit_41846.cif
_audit_creation_date              2012-12-10T20:39:13-0500
_audit_creation_method            fapswitch 2.2
_symmetry_space_group_name_H-M    P1
_symmetry_Int_Tables_number       1
_space_group_crystal_system       triclinic
_cell_length_a                    19.139316
_cell_length_b                    10.657104
_cell_length_c                    9.878569
_cell_angle_alpha                 90.350752
_cell_angle_beta                  89.698807
_cell_angle_gamma                 90.280367
_cell_volume                      2014.8391653

loop_
_atom_site_label
_atom_site_type_symbol
_atom_type_description
_atom_site_fract_x
_atom_site_fract_y
_atom_site_fract_z
_atom_type_partial_charge
C1    C     C_R   0.502314 0.260092 0.499939 0.921584
C2    C     C_R   0.854475 0.545660 0.509675 0.021426
C3    C     C_R   0.504680 0.064772 0.623357 0.064095
C4    C     C_R   0.365653 0.503341 0.500482 0.912438
C5    C     C_R   0.513048 0.128747 0.501934 -0.082170
C6    C     C_R   0.534970 0.064512 0.385246 -0.170810
C7    C     C_R   0.534589 0.934616 0.385214 -0.229332
C8    C     C_R   0.513096 0.871475 0.502594 -0.120773
C9    C     C_R   0.505195 0.936817 0.623993 0.126223
C10   C     C_3   0.447891 0.930494 0.727758 -0.086186
C11   C     C_3   0.447685 0.073321 0.727204 -0.480556
C12   C     C_R   0.290275 0.517468 0.501260 -0.057493
C13   C     C_R   0.438723 0.505100 0.070884 0.091484
C14   C     C_R   0.560905 0.501260 0.071196 -0.072032
C15   C     C_R   0.560925 0.500835 0.927575 -0.087924
C16   C     C_R   0.502187 0.739973 0.500399 0.865065
C17   C     C_R   0.438947 0.509641 0.928793 0.146086
C18   C     C_3   0.377577 0.424806 0.916051 -0.517179
C19   C     C_3   0.377758 0.414712 0.069562 0.298009
C20   C     C_R   0.634350 0.502668 0.499647 0.867017
C21   C     C_R   0.257236 0.596350 0.596628 0.095796
C22   C     C_R   0.184853 0.607951 0.594270 -0.252091
C23   C     C_R   0.930052 0.555431 0.508430 0.295350
C24   C     C_R   0.145836 0.545064 0.495661 0.072793
C25   C     C_R   0.178864 0.469498 0.397736 0.116745
C26   C     C_R   0.251106 0.455855 0.401648 -0.284715
C27   C     C_R   0.070486 0.554367 0.500710 0.313697
C28   C     C_R   0.821594 0.458808 0.594539 -0.207940
C29   C     C_R   0.749446 0.442489 0.589579 0.067792
C30   C     C_R   0.709941 0.515471 0.499913 -0.068204
C31   C     C_R   0.743211 0.605884 0.416926 0.046639
C32   C     C_R   0.815333 0.618873 0.421571 -0.139109
H1    H     H_    0.546861 0.884635 0.292322 0.169343
H2    H     H_    0.159121 0.667649 0.668308 0.154911
H3    H     H_    0.276356 0.395491 0.328060 0.195334
H4    H     H_    0.852006 0.400996 0.661978 0.156652
H5    H     H_    0.840796 0.687559 0.357306 0.163205
H6    H     H_    0.548259 0.113645 0.293098 0.191705
H7    H     H_    0.277690 0.651731 0.788416 0.181436
H8    H     H_    0.288053 0.764062 0.670968 0.178726
H9    H     H_    0.517422 0.922105 0.887855 0.192576
H10   H     H_    0.433299 0.893883 0.928655 0.211245
H11   H     H_    0.481538 0.130032 0.080807 0.353892
H12   H     H_    0.399061 0.886212 0.689531 0.170333
H13   H     H_    0.157147 0.430298 0.202227 0.195211
H14   H     H_    0.148885 0.307217 0.308223 0.203087
H15   H     H_    0.728006 0.371465 0.774425 0.186042
H16   H     H_    0.738545 0.262792 0.650690 0.185510
H17   H     H_    0.666497 0.734053 0.389297 0.183589
H18   H     H_    0.681527 0.637382 0.254414 0.199143
H19   H     H_    0.398724 0.113346 0.685863 0.200699
H20   H     H_    0.466065 0.118009 0.822586 0.234380
H21   H     H_    0.610083 0.499536 0.124051 0.127937
H22   H     H_    0.610175 0.499357 0.873641 0.147141
H23   H     H_    0.330918 0.473994 0.877462 0.171531
H24   H     H_    0.390596 0.337315 0.859541 0.244904
H25   H     H_    0.330004 0.454733 0.116955 0.057820
N1    N     N_R   0.033766 0.578315 0.387090 -0.144386
N2    N     N_3   0.716485 0.350002 0.673532 -0.450072
N3    N     N_3   0.705114 0.689371 0.331606 -0.459628
N4    N     N_R   0.964467 0.579282 0.391046 -0.171278
N5    N     N_R   0.966919 0.533065 0.622375 -0.171514
N6    N     N_R   0.036212 0.533253 0.618710 -0.173700
N7    N     N_R   0.499530 0.499140 0.142800 -0.074803
N8    N     N_R   0.499530 0.499180 0.857150 -0.086636
N9    N     N_3   0.297083 0.669377 0.691258 -0.447276
N10   N     N_3   0.471783 0.876752 0.855430 -0.423280
N11   N     N_3   0.139010 0.403070 0.297716 -0.439158
O1    O     O_R   0.500010 0.316790 0.614690 -0.623951
O2    O     O_2   0.350139 0.168259 0.042509 -0.333132
O3    O     O_3   0.480274 0.222571 0.090296 -0.575216
O4    O     O_R   0.500000 0.316760 0.385350 -0.538452
O5    O     O_R   0.398140 0.500000 0.614710 -0.601467
O6    O     O_R   0.398130 0.499970 0.385370 -0.609133
O7    O     O_R   0.500000 0.683240 0.614650 -0.597943
O8    O     O_R   0.499990 0.683210 0.385310 -0.633420
O9    O     O_R   0.601870 0.500030 0.614630 -0.608713
O10   O     O_R   0.601860 0.500000 0.385290 -0.649491
O11   O     O_2   0.380061 0.241946 0.269274 -0.299676
S1    S     S_3+6 0.396014 0.257004 0.121337 0.013915
Zn1   Zn    Zn3+2 0.500000 0.500020 0.653130 0.976482
Zn2   Zn    Zn3+2 0.500000 0.499980 0.346870 0.999850

loop_
_geom_bond_atom_site_label_1
_geom_bond_atom_site_label_2
_ccdc_geom_bond_type
C21   N9    S    
C16   O7    A    
C24   C27   S    
C7    C8    A    
H9    N10   S    
C20   C30   S    
C10   N10   S    
C19   H25   S    
C29   C30   A    
H17   N3    S    
C20   O9    A    
C1    C5    S    
C28   C29   A    
C30   C31   A    
C15   N8    A    
C2    C32   A    
C18   C19   S    
C11   H20   S    
C23   N5    A    
C29   N2    S    
C8    C9    A    
C6    H6    S    
C4    C12   S    
C9    C10   S    
C4    O6    A    
C18   H24   S    
N1    N4    A    
C8    C16   S    
H8    N9    S    
C21   C22   A    
C7    H1    S    
C25   N11   S    
O6    Zn2   S    
O5    Zn1   S    
O3    S1    S    
C22   H2    S    
C1    O4    A    
C13   C19   S    
C10   H12   S    
C15   H22   S    
C3    C11   S    
C24   C25   A    
O8    Zn2   S    
O7    Zn1   S    
C25   C26   A    
O2    S1    D    
C12   C21   A    
C1    O1    A    
C12   C26   A    
C31   N3    S    
H14   N11   S    
N5    N6    A    
C3    C9    A    
O10   Zn2   S    
N8    Zn1   S    
C31   C32   A    
O9    Zn1   S    
C14   N7    A    
H13   N11   S    
C17   C18   S    
C32   H5    S    
N7    Zn2   S    
C4    O5    A    
C27   N6    A    
C18   H23   S    
O1    Zn1   S    
H10   N10   S    
H7    N9    S    
C22   C24   A    
H16   N2    S    
H11   O3    S    
C16   O8    A    
C3    C5    A    
C27   N1    A    
C6    C7    A    
C13   C17   A    
C17   N8    A    
C20   O10   A    
H18   N3    S    
C5    C6    A    
C13   N7    A    
C19   S1    S    
C11   H19   S    
C10   C11   S    
H15   N2    S    
O11   S1    D    
C26   H3    S    
C23   N4    A    
C14   H21   S    
C28   H4    S    
C2    C23   S    
C14   C15   A    
C2    C28   A    
O4    Zn2   S    
