data_mof_unit_40544.cif
_audit_creation_date              2013-03-05T16:34:19-0500
_audit_creation_method            fapswitch 2.2
_symmetry_space_group_name_H-M    P1
_symmetry_Int_Tables_number       1
_space_group_crystal_system       triclinic
_cell_length_a                    18.885316
_cell_length_b                    18.690403
_cell_length_c                    18.884603
_cell_angle_alpha                 109.34474
_cell_angle_beta                  109.828744
_cell_angle_gamma                 109.422562
_cell_volume                      5119.65602643

loop_
_atom_site_label
_atom_site_type_symbol
_atom_site_description
_atom_site_fract_x
_atom_site_fract_y
_atom_site_fract_z
_atom_type_partial_charge
O1    O     O_R   0.409800 0.552180 0.462000 -0.576453
O2    O     O_R   0.409830 0.447810 0.357640 -0.581826
C1    C     C_R   0.382524 0.501509 0.381134 0.772621
O3    O     O_R   0.590160 0.642370 0.552180 -0.581731
O4    O     O_R   0.590190 0.537990 0.447820 -0.590800
C2    C     C_R   0.620098 0.619422 0.501710 0.754200
Cu1   Cu    Cu3+1 0.499980 0.561800 0.561790 0.971831
Cu2   Cu    Cu3+1 0.500020 0.438200 0.438210 0.962105
O5    O     O_R   0.590170 0.552190 0.642360 -0.586261
O6    O     O_R   0.590200 0.447820 0.538000 -0.582446
O7    O     O_R   0.409810 0.462010 0.552180 -0.574724
O8    O     O_R   0.409840 0.357630 0.447820 -0.579336
C3    C     C_R   0.620839 0.501913 0.618587 0.772659
C4    C     C_R   0.379812 0.380945 0.498315 0.792490
C5    C     C_R   0.778787 0.889187 0.799531 -0.238310
H1    H     H_    0.784877 0.951210 0.837319 0.122123
C6    C     C_R   0.771585 0.867343 0.718116 -0.162425
H2    H     H_    0.771507 0.912569 0.694121 0.124418
C7    C     C_R   0.764012 0.787529 0.667771 0.115472
C8    C     C_R   0.764506 0.730485 0.700646 -0.059693
H3    H     H_    0.760407 0.669661 0.663688 0.108374
C9    C     C_R   0.769804 0.751386 0.781166 -0.042890
H4    H     H_    0.767828 0.705143 0.803915 0.158068
C10   C     C_R   0.777854 0.831333 0.831675 0.064258
C11   C     C_R   0.820968 0.825651 0.577776 -0.215690
H5    H     H_    0.875716 0.884330 0.637414 0.154280
C12   C     C_R   0.813790 0.812998 0.497973 -0.056790
C13   C     C_R   0.740616 0.739478 0.419429 0.064246
C14   C     C_R   0.680288 0.675752 0.423536 -0.186163
H6    H     H_    0.625408 0.617540 0.363610 0.151697
C15   C     C_R   0.687811 0.687623 0.503433 -0.101092
C16   C     C_R   0.756977 0.765423 0.581639 0.002560
C17   C     C_R   0.648194 0.714099 0.270093 0.374560
C18   C     C_R   0.633270 0.692214 0.185612 -0.187065
H7    H     H_    0.574591 0.682907 0.137263 0.176475
C19   C     C_R   0.694669 0.684200 0.163337 -0.173422
H8    H     H_    0.682770 0.667883 0.098284 0.156116
C20   C     C_R   0.771756 0.698159 0.225080 -0.121471
H9    H     H_    0.819352 0.692220 0.207703 0.142149
C21   C     C_R   0.787162 0.719080 0.308958 -0.188597
H10   H     H_    0.847027 0.729876 0.356213 0.127041
C22   C     C_R   0.725672 0.725964 0.332255 0.001702
H11   H     H_    0.567134 0.896269 0.606542 0.133216
C23   C     C_R   0.429666 0.803620 0.525614 -0.115055
H12   H     H_    0.412174 0.844019 0.564058 0.141105
C24   C     C_R   0.364860 0.721877 0.452203 -0.159341
H13   H     H_    0.297474 0.699537 0.434794 0.122675
C25   C     C_R   0.387095 0.668863 0.402173 0.105468
C26   C     C_R   0.475026 0.699517 0.426121 -0.021561
H14   H     H_    0.493426 0.660126 0.387864 0.135563
C27   C     C_R   0.539651 0.781130 0.499877 -0.064339
H15   H     H_    0.607326 0.804200 0.518533 0.157357
C28   C     C_R   0.517009 0.833108 0.549568 -0.114837
C29   C     C_R   0.251890 0.578594 0.258823 -0.205733
H16   H     H_    0.251990 0.638660 0.265887 0.159924
C30   C     C_R   0.185444 0.498587 0.184192 -0.048339
C31   C     C_R   0.184282 0.419969 0.173511 0.071657
C32   C     C_R   0.250962 0.423136 0.238186 -0.202248
H17   H     H_    0.250225 0.362645 0.230199 0.152758
C33   C     C_R   0.317225 0.503140 0.313776 -0.102084
C34   C     C_R   0.318065 0.582066 0.324462 0.002706
C35   C     C_R   0.039484 0.276952 0.086195 0.066842
C36   C     C_R   0.978845 0.196961 0.008005 -0.220519
H18   H     H_    0.919389 0.152004 0.000575 0.113359
C37   C     C_R   0.993702 0.174033 0.938400 -0.081300
H19   H     H_    0.946346 0.112313 0.878552 0.126090
C38   C     C_R   0.069483 0.230393 0.945866 -0.114007
H20   H     H_    0.080820 0.211995 0.891855 0.140950
C39   C     C_R   0.130479 0.310305 0.022693 -0.208567
H21   H     H_    0.188853 0.353478 0.027148 0.136177
C40   C     C_R   0.116642 0.334533 0.093476 0.081325
H22   H     H_    0.191402 0.588402 0.499204 0.129175
C41   C     C_R   0.206121 0.514218 0.563834 -0.131434
H23   H     H_    0.201300 0.553660 0.616842 0.136331
C42   C     C_R   0.217895 0.443701 0.561718 -0.144679
H24   H     H_    0.222306 0.429353 0.613632 0.123830
C43   C     C_R   0.224729 0.392468 0.493364 0.104869
C44   C     C_R   0.218336 0.412074 0.426571 -0.087844
H25   H     H_    0.222246 0.372614 0.372760 0.113031
C45   C     C_R   0.206392 0.482687 0.428984 -0.057797
H26   H     H_    0.201407 0.497904 0.377681 0.172027
C46   C     C_R   0.200543 0.533806 0.497576 -0.126526
C47   C     C_R   0.173508 0.250713 0.489740 -0.241377
H27   H     H_    0.115841 0.253235 0.485971 0.151200
C48   C     C_R   0.185546 0.182940 0.496736 -0.049564
C49   C     C_R   0.261679 0.180725 0.504452 0.004395
C50   C     C_R   0.322742 0.244758 0.501448 -0.218353
H28   H     H_    0.381243 0.243170 0.507038 0.165274
C51   C     C_R   0.311261 0.313285 0.495838 -0.079168
C52   C     C_R   0.236954 0.317794 0.491996 -0.002757
C53   C     C_R   0.329792 0.133964 0.604699 -0.075500
H29   H     H_    0.355050 0.197206 0.659307 0.127191
C54   C     C_R   0.344912 0.070764 0.619880 -0.018826
H30   H     H_    0.381683 0.085339 0.685847 0.163521
C55   C     C_R   0.312365 0.988755 0.550001 -0.124698
H31   H     H_    0.324189 0.939872 0.561837 0.128313
C56   C     C_R   0.264111 0.969645 0.464828 -0.129146
H32   H     H_    0.238484 0.905809 0.411060 0.188880
C57   C     C_R   0.248377 0.032549 0.449323 -0.093359
H33   H     H_    0.211100 0.017184 0.383178 0.178523
C58   C     C_R   0.280769 0.114877 0.519346 0.080920
H34   H     H_    0.625354 0.494815 0.757679 0.162232
C59   C     C_R   0.778693 0.519439 0.612345 -0.151413
H35   H     H_    0.736149 0.529885 0.566941 0.136994
C60   C     C_R   0.849771 0.519652 0.605178 -0.099803
H36   H     H_    0.859694 0.528757 0.554898 0.122506
C61   C     C_R   0.907362 0.507056 0.661783 -0.089891
H37   H     H_    0.961429 0.505282 0.654806 0.131967
C62   C     C_R   0.895728 0.496861 0.727549 -0.145437
H38   H     H_    0.941077 0.484929 0.768142 0.144179
C63   C     C_R   0.826111 0.500092 0.738570 0.096782
C64   C     C_R   0.764467 0.507569 0.677580 0.100950
C65   C     C_R   0.691102 0.504225 0.684426 -0.118817
C66   C     C_R   0.681480 0.497514 0.752435 -0.190056
H39   H     H_    0.734514 0.488834 0.866300 0.165218
C67   C     C_R   0.742814 0.492525 0.813337 -0.204710
C68   C     C_R   0.815336 0.494634 0.807773 -0.127847
O9    O     O_R   0.052200 0.909800 0.461980 -0.594077
O10   O     O_R   0.947810 0.909820 0.357620 -0.552906
C69   C     C_R   0.001054 0.881715 0.381342 0.847976
O11   O     O_R   0.962020 0.909790 0.552160 -0.581598
O12   O     O_R   0.857630 0.909810 0.447800 -0.565959
C70   C     C_R   0.881112 0.880258 0.498929 0.779900
Cu3   Cu    Cu3+1 0.061810 0.999960 0.561770 0.975977
Cu4   Cu    Cu3+1 0.938190 0.999990 0.438190 1.015784
O13   O     O_R   0.052190 0.090140 0.642340 -0.579658
O14   O     O_R   0.947800 0.090160 0.537980 -0.587450
O15   O     O_R   0.142370 0.090150 0.552150 -0.590861
O16   O     O_R   0.037980 0.090170 0.447800 -0.558688
C71   C     C_R   0.001348 0.120100 0.618754 0.781068
C72   C     C_R   0.118852 0.117431 0.498554 0.841375
O17   O     O_R   0.052180 0.461950 0.909820 -0.595628
O18   O     O_R   0.947800 0.357590 0.909850 -0.569586
C73   C     C_R   0.998594 0.380643 0.880057 0.779191
O19   O     O_R   0.142360 0.552150 0.090150 -0.577632
O20   O     O_R   0.037980 0.447790 0.090180 -0.565871
C74   C     C_R   0.118652 0.499150 0.118011 0.794449
Cu5   Cu    Cu3+1 0.061790 0.561750 0.999970 1.000938
Cu6   Cu    Cu3+1 0.938180 0.438170 0.000010 0.980523
O21   O     O_R   0.052170 0.642340 0.090130 -0.551649
O22   O     O_R   0.947790 0.537980 0.090160 -0.597723
O23   O     O_R   0.962000 0.552140 0.909800 -0.581707
O24   O     O_R   0.857610 0.447780 0.909830 -0.580088
C75   C     C_R   0.998844 0.619111 0.117038 0.808743
C76   C     C_R   0.881371 0.497305 0.878386 0.773622
H40   H     H_    0.041005 0.690772 0.590731 0.144966
C77   C     C_R   0.104011 0.769484 0.545929 -0.147416
H41   H     H_    0.165108 0.810247 0.606952 0.131144
C78   C     C_R   0.095264 0.783952 0.476147 -0.081900
H42   H     H_    0.150321 0.835209 0.483552 0.129044
C79   C     C_R   0.015743 0.732472 0.397191 0.113052
C80   C     C_R   0.947291 0.662193 0.387315 -0.190342
H43   H     H_    0.887053 0.618620 0.325497 0.136359
C81   C     C_R   0.956046 0.648011 0.457258 -0.124688
H44   H     H_    0.902486 0.594748 0.449641 0.129701
C82   C     C_R   0.034193 0.701986 0.536712 -0.092338
C83   C     C_R   0.001673 0.679558 0.253719 -0.237689
H45   H     H_    0.002634 0.623381 0.258110 0.161226
C84   C     C_R   0.998725 0.687175 0.182266 -0.050173
C85   C     C_R   0.001117 0.761051 0.176323 0.007498
C86   C     C_R   0.003550 0.826736 0.242631 -0.042355
C87   C     C_R   0.005417 0.817791 0.315197 -0.117517
C88   C     C_R   0.007696 0.744811 0.321642 -0.042306
C89   C     C_R   0.082980 0.824867 0.109567 -0.053373
C90   C     C_R   0.082909 0.825978 0.034604 -0.162156
C91   C     C_R   0.005144 0.769614 0.952546 0.411568
C92   C     C_R   0.927759 0.719953 0.947775 -0.172227
H46   H     H_    0.868065 0.677210 0.885773 0.170578
C93   C     C_R   0.927215 0.720097 0.021228 -0.234415
H47   H     H_    0.866809 0.678439 0.014754 0.151390
C94   C     C_R   0.004209 0.770236 0.101754 0.056451
H48   H     H_    0.396127 0.339336 0.795193 0.129968
C95   C     C_R   0.310834 0.306125 0.845333 -0.120847
H49   H     H_    0.358520 0.309030 0.899721 0.135624
C96   C     C_R   0.228417 0.286270 0.834644 -0.130081
H50   H     H_    0.213201 0.274299 0.881397 0.117791
C97   C     C_R   0.166106 0.281957 0.763940 0.125801
C98   C     C_R   0.187637 0.298734 0.704676 -0.142279
H51   H     H_    0.140766 0.296871 0.650480 0.104144
C99   C     C_R   0.270687 0.319895 0.716448 -0.140956
H52   H     H_    0.287980 0.334498 0.671884 0.140507
C100  C     C_R   0.332015 0.323130 0.786386 -0.114824
C101  C     C_R   0.076772 0.326788 0.817097 -0.240719
H53   H     H_    0.136746 0.386019 0.870509 0.161776
C102  C     C_R   0.997268 0.313120 0.812059 -0.070336
C103  C     C_R   0.919224 0.235346 0.743399 0.017225
C104  C     C_R   0.922608 0.173714 0.680301 -0.237863
H54   H     H_    0.862917 0.114083 0.626985 0.157125
C105  C     C_R   0.002053 0.187667 0.685492 -0.068599
C106  C     C_R   0.080224 0.264303 0.754941 -0.014589
C107  C     C_R   0.783456 0.144094 0.736667 -0.211473
H55   H     H_    0.808270 0.101553 0.746616 0.133972
C108  C     C_R   0.701671 0.125866 0.726933 -0.217777
H56   H     H_    0.664802 0.069314 0.729492 0.164980
C109  C     C_R   0.667987 0.180103 0.714022 0.421886
C110  C     C_R   0.717831 0.252800 0.710808 -0.185175
H57   H     H_    0.693477 0.295455 0.700453 0.180361
C111  C     C_R   0.799656 0.270957 0.720616 -0.189955
H58   H     H_    0.836759 0.326687 0.717197 0.118415
C112  C     C_R   0.833185 0.217094 0.734184 0.141004
C113  C     C_2   0.785757 0.855470 0.917959 0.338855
H59   H     H_    0.791552 0.917442 0.955799 0.066813
O25   O     O_2   0.786147 0.806816 0.947985 -0.558900
C114  C     C_2   0.018294 0.296817 0.156751 0.340049
H60   H     H_    0.961023 0.247452 0.148832 0.067422
O26   O     O_2   0.062726 0.367787 0.223497 -0.563113
C115  C     C_2   0.006361 0.904440 0.235024 0.353964
H61   H     H_    0.972766 0.897066 0.171471 0.099857
O27   O     O_2   0.049199 0.977747 0.298646 -0.562489
C116  C     C_2   0.165152 0.880595 0.195170 0.342155
H62   H     H_    0.212206 0.944947 0.212380 0.059350
O28   O     O_2   0.182254 0.854371 0.246408 -0.550435
C117  C     C_2   0.164047 0.885221 0.042176 0.417043
H63   H     H_    0.227014 0.901204 0.090051 0.052524
O29   O     O_2   0.161502 0.918737 0.996438 -0.482477
N1    N     N_R   0.004996 0.756968 0.873067 0.150790
O30   O     O_R   0.936399 0.738664 0.806524 -0.390174
O31   O     O_R   0.066048 0.747210 0.861548 -0.332027
N2    N     N_R   0.583752 0.161290 0.704011 0.114552
O32   O     O_R   0.537520 0.093723 0.706522 -0.411023
O33   O     O_R   0.552628 0.211655 0.692614 -0.392992
N3    N     N_R   0.586087 0.726923 0.292436 0.097490
O34   O     O_R   0.504016 0.683455 0.233556 -0.375923
O35   O     O_R   0.612483 0.790174 0.368068 -0.379762

loop_
_geom_bond_atom_site_label_1
_geom_bond_atom_site_label_2
_geom_bond_distance
_ccdc_geom_bond_type
O19   Cu5   1.968175 S    
C50   H28   1.085079 S    
C36   C37   1.395401 A    
C21   H10   1.076935 S    
C83   H45   1.085823 S    
C113  O25   1.221360 D    
C113  H59   1.085598 S    
C55   H31   1.082444 S    
C73   C102  1.458030 S    
C42   H24   1.083329 S    
C109  N2    1.438743 S    
C56   H32   1.081093 S    
C102  C103  1.412982 A    
Cu1   Cu2   2.685841 S    
C96   C97   1.404887 A    
C90   C91   1.418999 A    
C43   C44   1.404347 A    
C30   C31   1.406953 A    
Cu1   O7    1.966014 S    
C60   C61   1.388987 A    
C54   H30   1.082046 S    
C17   C22   1.419370 A    
C13   C14   1.393339 A    
C77   C78   1.398255 A    
N1    O31   1.301408 A    
C65   C66   1.395770 A    
C39   H21   1.083511 S    
C101  C102  1.400197 A    
C84   C85   1.409174 A    
C48   C49   1.411254 A    
O4    C2    1.297443 A    
Cu2   O6    1.969428 S    
O7    C4    1.291672 A    
C44   C45   1.399980 A    
N2    O33   1.301664 A    
O13   C71   1.290951 A    
C32   C33   1.403264 A    
H39   C67   1.083774 S    
O24   C76   1.295930 A    
C67   C68   1.397455 A    
C68   C76   1.456802 S    
C18   H7    1.082636 S    
C93   H47   1.083591 S    
C39   C40   1.405265 A    
O5    C3    1.295747 A    
C54   C55   1.397060 A    
O11   Cu3   1.969226 S    
C77   H41   1.082319 S    
O1    Cu1   1.969426 S    
C29   H16   1.085054 S    
Cu6   O24   1.968293 S    
C23   C28   1.397587 A    
H11   C28   1.082432 S    
C3    C65   1.454470 S    
C47   H27   1.084932 S    
C89   C116  1.487944 S    
C108  C109  1.406814 A    
C19   H8    1.082433 S    
C79   C80   1.405751 A    
C111  H58   1.081651 S    
C86   C115  1.491571 S    
C83   C88   1.384925 A    
C81   C82   1.397093 A    
C53   H29   1.082554 S    
C71   C105  1.451343 S    
C69   C87   1.463257 S    
Cu3   O15   1.968240 S    
C1    C33   1.458165 S    
C11   C16   1.393701 A    
C21   C22   1.402529 A    
C2    C15   1.456498 S    
C103  C104  1.393613 A    
C83   C84   1.387700 A    
C95   H49   1.082563 S    
C114  H60   1.085652 S    
C41   C42   1.397930 A    
O23   C76   1.291284 A    
C103  C112  1.478868 S    
C91   C92   1.399487 A    
C105  C106  1.409508 A    
C53   C58   1.403378 A    
O3    Cu1   1.971340 S    
C7    C16   1.485173 S    
C64   C65   1.417585 A    
C56   C57   1.399168 A    
C23   C24   1.398619 A    
C98   H51   1.083300 S    
Cu1   O5    1.968447 S    
O12   C70   1.288315 A    
C117  O29   1.221095 D    
C41   H23   1.082298 S    
C20   H9    1.081810 S    
C43   C52   1.482003 S    
C24   C25   1.405868 A    
C10   C113  1.477876 S    
C104  C105  1.397041 A    
C27   H15   1.082065 S    
N1    O30   1.300174 A    
C45   C46   1.396518 A    
Cu5   O23   1.969416 S    
O22   C75   1.293208 A    
N2    O32   1.301462 A    
C12   C70   1.450357 S    
C44   H25   1.082876 S    
C45   H26   1.080224 S    
C109  C110  1.406661 A    
C26   C27   1.399076 A    
C11   H5    1.085265 S    
C117  H63   1.084508 S    
C115  H61   1.085180 S    
C92   C93   1.389776 A    
C33   C34   1.414971 A    
C27   C28   1.397052 A    
O20   Cu6   1.969441 S    
C101  H53   1.084926 S    
C107  C108  1.396928 A    
C4    C51   1.452015 S    
C14   H6    1.085006 S    
H34   C66   1.083887 S    
Cu4   O14   1.971042 S    
H48   C100  1.082345 S    
C53   C54   1.397200 A    
C66   C67   1.382839 A    
C57   H33   1.081531 S    
Cu2   O8    1.971341 S    
C35   C36   1.406629 A    
C6    H2    1.083522 S    
C31   C32   1.392866 A    
C59   C60   1.392938 A    
O9    Cu3   1.970948 S    
C31   C40   1.483467 S    
C75   C84   1.449591 S    
N3    O35   1.300942 A    
C77   C82   1.397461 A    
C42   C43   1.405775 A    
C35   C114  1.485305 S    
C81   H44   1.082400 S    
C95   C96   1.397914 A    
Cu5   O21   1.973218 S    
C97   C98   1.404515 A    
O10   Cu4   1.969945 S    
C110  C111  1.397434 A    
C38   H20   1.081289 S    
C47   C48   1.398469 A    
O8    C4    1.294882 A    
C95   C100  1.397174 A    
O18   Cu6   1.973122 S    
C116  O28   1.219955 D    
C50   C51   1.399163 A    
O18   C73   1.293926 A    
H22   C46   1.082575 S    
C26   H14   1.082983 S    
C9    C10   1.404258 A    
O3    C2    1.291533 A    
C37   H19   1.082731 S    
C8    C9    1.397174 A    
C61   H37   1.082556 S    
C19   C20   1.393288 A    
C101  C106  1.392958 A    
C41   C46   1.396592 A    
C92   H46   1.079766 S    
C99   H52   1.081078 S    
Cu3   O13   1.970063 S    
C87   C88   1.422230 A    
C80   C81   1.398272 A    
C90   C117  1.487460 S    
C107  H55   1.083578 S    
O19   C74   1.291769 A    
C47   C52   1.392955 A    
C24   H13   1.083390 S    
C89   C90   1.422223 A    
C97   C106  1.479286 S    
C99   C100  1.397234 A    
C63   C64   1.416536 A    
C57   C58   1.402753 A    
C49   C50   1.391707 A    
C15   C16   1.416719 A    
O2    Cu2   1.968446 S    
C23   H12   1.082458 S    
O21   C75   1.289745 A    
C114  O26   1.219392 D    
C110  H57   1.082364 S    
O6    C3    1.291197 A    
O4    Cu2   1.966016 S    
C98   C99   1.399441 A    
O10   C69   1.299736 A    
C55   C56   1.397728 A    
C29   C30   1.397521 A    
C5    C6    1.397996 A    
C29   C34   1.394412 A    
C11   C12   1.396230 A    
C60   H36   1.082687 S    
C79   C88   1.485254 S    
C37   C38   1.392766 A    
C63   C68   1.419385 A    
C85   C86   1.407948 A    
C7    C8    1.401224 A    
C78   C79   1.404912 A    
O2    C1    1.294032 A    
C32   H17   1.084597 S    
O14   C71   1.293916 A    
C107  C112  1.402088 A    
C14   C15   1.399198 A    
C96   H50   1.082769 S    
C86   C87   1.424800 A    
C62   H38   1.079701 S    
C17   N3    1.437681 S    
C5    C10   1.402689 A    
C20   C21   1.395688 A    
C30   C74   1.449565 S    
Cu6   O22   1.967863 S    
C25   C34   1.484325 S    
C61   C62   1.393258 A    
O12   Cu4   1.968003 S    
C25   C26   1.405870 A    
C62   C63   1.416188 A    
C13   C22   1.488465 S    
C6    C7    1.405693 A    
C85   C94   1.491699 S    
C17   C18   1.406394 A    
C35   C40   1.422515 A    
C18   C19   1.395912 A    
C116  H62   1.084517 S    
N3    O34   1.301380 A    
O9    C69   1.289504 A    
O11   C70   1.295897 A    
Cu5   Cu6   2.683440 S    
C38   C39   1.396066 A    
C36   H18   1.083542 S    
Cu4   O16   1.969319 S    
O16   C72   1.294882 A    
C104  H54   1.085198 S    
H40   C82   1.082451 S    
C8    H3    1.079191 S    
O17   C73   1.294156 A    
C108  H56   1.082371 S    
C59   H35   1.080160 S    
C115  O27   1.219880 D    
C9    H4    1.080912 S    
C59   C64   1.415987 A    
C89   C94   1.420718 A    
C111  C112  1.401726 A    
C80   H43   1.083156 S    
O1    C1    1.295406 A    
C51   C52   1.412551 A    
C78   H42   1.081009 S    
C49   C58   1.476291 S    
O17   Cu5   1.967745 S    
O15   C72   1.291982 A    
C48   C72   1.455437 S    
O20   C74   1.291791 A    
C5    H1    1.083449 S    
C91   N1    1.438869 S    
Cu3   Cu4   2.683696 S    
C12   C13   1.412152 A    
C93   C94   1.398049 A    
