data_mof_unit_45769.cif
_audit_creation_date              2013-03-05T15:41:43-0500
_audit_creation_method            fapswitch 2.2
_symmetry_space_group_name_H-M    P1
_symmetry_Int_Tables_number       1
_space_group_crystal_system       triclinic
_cell_length_a                    6.949925
_cell_length_b                    13.72982
_cell_length_c                    20.448165
_cell_angle_alpha                 102.242451
_cell_angle_beta                  90.085887
_cell_angle_gamma                 90.547348
_cell_volume                      1906.7175444

loop_
_atom_site_label
_atom_site_type_symbol
_atom_site_description
_atom_site_fract_x
_atom_site_fract_y
_atom_site_fract_z
_atom_type_partial_charge
O1    O     O_R   0.506860 0.599390 0.449240 -0.564579
O2    O     O_R   0.180220 0.594600 0.586780 -0.575680
O3    O     O_R   0.004500 0.400610 0.550760 -0.560263
C1    C     C_R   0.349281 0.617278 0.612796 0.754873
O4    O     O_R   0.177490 0.611290 0.451970 -0.563944
O5    O     O_R   0.001750 0.417420 0.414990 -0.574079
C2    C     C_R   0.345986 0.636445 0.434330 0.880890
O6    O     O_R   0.509610 0.582580 0.585010 -0.557065
O7    O     O_3   0.337420 0.436370 0.488020 -0.278046
V1    V     V_3+5 0.064680 0.511800 0.502220 1.138095
O8    O     O_R   0.671710 0.405400 0.413220 -0.568485
C3    C     C_R   0.839926 0.381521 0.387502 0.755397
O9    O     O_R   0.674440 0.388710 0.548030 -0.564907
C4    C     C_R   0.842535 0.363876 0.565606 0.844919
V2    V     V_3+5 0.564010 0.488200 0.497780 1.140546
O10   O     O_3   0.841140 0.563630 0.511980 -0.276557
C5    C     C_R   0.798176 0.115639 0.611011 0.434379
H1    H     H_    0.823639 0.167616 0.519081 0.059129
H2    H     H_    0.721024 0.997208 0.693729 0.135388
C6    C     C_R   0.846958 0.287640 0.605025 -0.128759
C7    C     C_R   0.909002 0.312112 0.927311 0.354105
C8    C     C_R   0.924813 0.387034 0.890748 -0.109686
C9    C     C_R   0.900997 0.365407 0.821714 -0.096308
C10   C     C_R   0.855104 0.267858 0.786186 0.014171
C11   C     C_R   0.829079 0.191404 0.823337 -0.092368
C12   C     C_R   0.839110 0.243639 0.714715 0.004625
C13   C     C_R   0.802572 0.143402 0.681505 -0.034335
C14   C     C_R   0.764496 0.071820 0.718720 -0.118116
C15   C     C_R   0.775922 0.094121 0.788329 0.371902
C16   C     C_R   0.857334 0.315471 0.674705 -0.112826
C17   C     C_R   0.823762 0.188295 0.573250 -0.143549
C18   C     C_R   0.862803 0.214227 0.894068 -0.094574
H3    H     H_    0.873798 0.393957 0.695759 0.063742
H4    H     H_    0.922693 0.427175 0.797688 0.085024
H5    H     H_    0.960457 0.462799 0.915731 0.076602
C19   C     C_2   0.992598 0.300318 0.280744 -0.065630
C20   C     C_2   0.844397 0.304024 0.324063 0.239696
H6    H     H_    0.112642 0.352051 0.293961 0.042231
C21   C     C_2   0.009362 0.226401 0.215916 -0.059226
C22   C     C_2   0.856936 0.188922 0.177640 -0.152627
H7    H     H_    0.153623 0.207067 0.197709 0.094228
H8    H     H_    0.712973 0.213536 0.192891 0.137603
C23   C     C_2   0.213995 0.769818 0.788026 -0.001210
C24   C     C_2   0.368970 0.795884 0.827385 0.308956
H9    H     H_    0.075063 0.796331 0.805995 -0.032889
C25   C     C_2   0.219246 0.696089 0.723029 -0.017635
C26   C     C_2   0.360015 0.692453 0.676817 0.299391
H10   H     H_    0.095977 0.646024 0.711731 0.025023
C27   C     C_R   0.316570 0.887264 0.389775 -0.123514
H11   H     H_    0.326197 0.013992 0.310511 0.069896
H12   H     H_    0.298940 0.964437 0.415058 0.068068
C28   C     C_R   0.352017 0.714810 0.395925 -0.116669
C29   C     C_R   0.361023 0.687484 0.072909 0.335972
C30   C     C_R   0.359852 0.612593 0.109673 -0.106096
C31   C     C_R   0.359288 0.636284 0.179121 -0.107190
C32   C     C_R   0.359902 0.736439 0.215084 0.006260
C33   C     C_R   0.356843 0.814244 0.178242 -0.065789
C34   C     C_R   0.358006 0.761017 0.286580 0.054931
C35   C     C_R   0.337882 0.861850 0.319972 -0.022096
C36   C     C_R   0.337361 0.937046 0.283852 -0.117240
C37   C     C_R   0.350805 0.915415 0.213917 0.373097
C38   C     C_R   0.374011 0.688763 0.326450 -0.179597
C39   C     C_R   0.313092 0.813260 0.427431 0.360770
C40   C     C_R   0.359214 0.787851 0.106698 -0.101768
H13   H     H_    0.400843 0.611336 0.305284 0.063811
H14   H     H_    0.353980 0.573686 0.203098 0.080745
H15   H     H_    0.358967 0.534821 0.084349 0.074712
O11   O     O_R   0.203230 0.917310 0.915020 -0.595233
O12   O     O_R   0.535500 0.888690 0.048040 -0.559029
O13   O     O_R   0.711080 0.082610 0.085000 -0.550658
C41   C     C_R   0.366788 0.863137 0.065439 1.002495
O14   O     O_R   0.532630 0.905370 0.913230 -0.559520
O15   O     O_R   0.708190 0.099410 0.949230 -0.530861
C42   C     C_R   0.364544 0.877538 0.889156 0.776566
O16   O     O_R   0.206120 0.900510 0.050790 -0.550061
O17   O     O_3   0.375360 0.063570 0.011990 -0.262064
V3    V     V_3+5 0.648170 0.988200 0.997780 1.199286
O18   O     O_R   0.038240 0.111390 0.951940 -0.565144
C43   C     C_R   0.869817 0.136452 0.933926 0.944487
O19   O     O_R   0.041120 0.094710 0.086750 -0.543584
C44   C     C_R   0.872340 0.117079 0.112861 0.850572
V4    V     V_3+5 0.148810 0.011930 0.002180 1.193118
O20   O     O_3   0.871750 0.936430 0.988010 -0.303193
O21   O     O_3   0.700187 0.232252 0.310495 -0.751253
H16   H     H_    0.612677 0.239934 0.349399 0.305824
O22   O     O_3   0.535128 0.741029 0.810760 -0.696906
H17   H     H_    0.626496 0.754212 0.848827 0.304161
O23   O     O_3   0.506685 0.762977 0.687595 -0.697726
H18   H     H_    0.588483 0.753396 0.647117 0.302417
O24   O     O_3   0.285039 0.837096 0.495897 -0.688891
C45   C     C_3   0.091267 0.863351 0.508836 0.172189
H19   H     H_    0.991167 0.803330 0.483274 0.049866
H20   H     H_    0.058285 0.934834 0.494097 0.073017
H21   H     H_    0.066427 0.873803 0.563447 0.114017
O25   O     O_3   0.363114 0.664573 0.003701 -0.756441
H22   H     H_    0.363713 0.591104 0.987868 0.305794
O26   O     O_3   0.354961 0.992825 0.180291 -0.733569
H23   H     H_    0.354140 0.057692 0.212762 0.304397
O27   O     O_3   0.790458 0.015955 0.579753 -0.689048
C46   C     C_3   0.617062 0.995105 0.543675 0.126947
H24   H     H_    0.490059 0.013849 0.576944 0.075245
H25   H     H_    0.612498 0.914028 0.522150 0.125361
H26   H     H_    0.609929 0.033629 0.501127 0.031886
O28   O     O_3   0.939484 0.332479 0.995738 -0.746829
H27   H     H_    0.971355 0.404262 0.011233 0.301698
O29   O     O_3   0.719484 0.021764 0.822088 -0.642532
C47   C     C_3   0.850217 0.942454 0.808698 0.210515
H28   H     H_    0.002517 0.968061 0.806399 -0.015227
H29   H     H_    0.809981 0.888930 0.761828 0.086830
H30   H     H_    0.842095 0.902474 0.850197 0.115205

loop_
_geom_bond_atom_site_label_1
_geom_bond_atom_site_label_2
_geom_bond_distance
_ccdc_geom_bond_type
C34   C38   1.416336 A    
C31   C32   1.415193 A    
C27   C39   1.399017 A    
C29   O25   1.383196 S    
O12   V3    2.028176 S    
O25   H22   0.991932 S    
C1    O6    1.299474 A    
O26   H23   0.991662 S    
C21   H7    1.085623 S    
C6    C16   1.396300 A    
C29   C30   1.396483 A    
C8    H5    1.083410 S    
C12   C13   1.419897 A    
C19   C20   1.353783 D    
C10   C12   1.432293 A    
C2    C28   1.460710 S    
O5    C3    1.301450 A    
C29   C40   1.404656 A    
O29   C47   1.406916 S    
V3    O20   1.709222 S    
O11   C42   1.313694 A    
V2    O10   2.167751 S    
C32   C33   1.432066 A    
C40   C41   1.466944 S    
C3    C20   1.493728 S    
O12   C41   1.292607 A    
O13   C44   1.295463 A    
C30   C31   1.388015 A    
C7    O28   1.383075 S    
O8    V2    2.007217 S    
C27   H12   1.084116 S    
C47   H28   1.116342 S    
C20   O21   1.384512 S    
O1    V2    2.031380 S    
O7    V1    2.159050 S    
C16   H3    1.077215 S    
C11   C18   1.431916 A    
C22   H8    1.084075 S    
C35   C36   1.391001 A    
O9    C4    1.291728 A    
O13   V3    2.014601 S    
C47   H29   1.110572 S    
C24   O22   1.387640 S    
O28   H27   0.991951 S    
O17   V3    2.159108 S    
C11   C15   1.420283 A    
C7    C18   1.405346 A    
C25   H10   1.086570 S    
C5    C13   1.410917 A    
C4    C6    1.450717 S    
C10   C11   1.430610 A    
O14   C42   1.289561 A    
O17   V4    1.714470 S    
C45   H19   1.114259 S    
O4    C2    1.291159 A    
O18   C43   1.297835 A    
C30   H15   1.083385 S    
C34   C35   1.416146 A    
C46   H26   1.111163 S    
C36   C37   1.400994 A    
O2    C1    1.296682 A    
C23   C24   1.343046 D    
O14   V3    2.017851 S    
C45   H20   1.111825 S    
C5    O27   1.382778 S    
O18   V4    2.030592 S    
O27   C46   1.406994 S    
C9    C10   1.414855 A    
C9    H4    1.076008 S    
C46   H25   1.106963 S    
O15   C43   1.294605 A    
O21   H16   0.990432 S    
C24   C42   1.501152 S    
H2    C14   1.083257 S    
C23   H9    1.072795 S    
O3    C4    1.291783 A    
O19   V4    2.007234 S    
C12   C16   1.413564 A    
O6    V2    2.008681 S    
O9    V2    2.030675 S    
C5    C17   1.395229 A    
C47   H30   1.105291 S    
C15   O29   1.378973 S    
O2    V1    2.017846 S    
C21   C22   1.347545 D    
C31   H14   1.076362 S    
O22   H17   0.989181 S    
C33   C40   1.430793 A    
C25   C26   1.355090 D    
C14   C15   1.392991 A    
C38   H13   1.077539 S    
O1    C2    1.295173 A    
C22   C44   1.478960 S    
C19   C21   1.494309 S    
C37   O26   1.382966 S    
O19   C44   1.301758 A    
C28   C39   1.397682 A    
O5    V1    2.014596 S    
O8    C3    1.298794 A    
O16   V4    2.035238 S    
C33   C37   1.426489 A    
C27   C35   1.404081 A    
O11   V4    2.009149 S    
C26   O23   1.383902 S    
C19   H6    1.086358 S    
O7    V2    1.715689 S    
H11   C36   1.084779 S    
O4    V1    2.028201 S    
O3    V1    2.030349 S    
V1    O10   1.709291 S    
C45   H21   1.109269 S    
C41   O16   1.294228 A    
O24   C45   1.408342 S    
C39   O24   1.383050 S    
C46   H24   1.113560 S    
C32   C34   1.429078 A    
C23   C25   1.490882 S    
O23   H18   0.991072 S    
V4    O20   2.167727 S    
C13   C14   1.388476 A    
O15   V3    2.030495 S    
C8    C9    1.388833 A    
C28   C38   1.398478 A    
H1    C17   1.083561 S    
C7    C8    1.397652 A    
C6    C17   1.388611 A    
C18   C43   1.475432 S    
C1    C26   1.486554 S    
