data_mof_unit_11995.cif
_audit_creation_date              2012-12-10T20:31:56-0500
_audit_creation_method            fapswitch 2.2
_symmetry_space_group_name_H-M    P1
_symmetry_Int_Tables_number       1
_space_group_crystal_system       triclinic
_cell_length_a                    9.882549
_cell_length_b                    10.673139
_cell_length_c                    15.548021
_cell_angle_alpha                 90.097648
_cell_angle_beta                  67.468783
_cell_angle_gamma                 90.185062
_cell_volume                      1514.78570617

loop_
_atom_site_label
_atom_site_type_symbol
_atom_type_description
_atom_site_fract_x
_atom_site_fract_y
_atom_site_fract_z
_atom_type_partial_charge
C1    C     C_R   0.498130 0.739973 0.503364 0.932081
C2    C     C_R   0.421151 0.474241 0.909753 0.016856
C3    C     C_R   0.309886 0.384396 0.953495 0.064513
C4    C     C_R   0.524740 0.504056 0.950361 -0.000815
C5    C     C_R   0.505308 0.453141 0.038406 0.063865
C6    C     C_R   0.392172 0.364372 0.079536 -0.153489
C7    C     C_R   0.296076 0.331604 0.038010 -0.150229
C8    C     C_R   0.651321 0.576908 0.904148 -0.213322
C9    C     C_R   0.751974 0.604547 0.943789 0.653545
C10   C     C_R   0.730216 0.561376 0.033433 -0.049813
C11   C     C_R   0.601098 0.490481 0.082442 0.014241
C12   C     C_R   0.407871 0.494994 0.675814 0.944782
C13   C     C_R   0.827200 0.592797 0.078631 -0.020609
C14   C     C_R   0.785049 0.566280 0.173575 -0.228606
C15   C     C_R   0.563516 0.467531 0.177176 -0.181171
C16   C     C_R   0.363409 0.935478 0.524251 -0.099544
C17   C     C_R   0.488442 0.871195 0.519515 -0.037856
C18   C     C_R   0.601961 0.935556 0.533904 -0.174430
C19   C     C_R   0.601800 0.065138 0.533802 -0.146086
C20   C     C_R   0.487921 0.128607 0.519566 -0.126127
C21   C     C_R   0.362700 0.063363 0.524863 0.038331
C22   C     C_3   0.274681 0.069963 0.465347 0.471263
C23   C     C_R   0.498019 0.259904 0.503110 0.899299
C24   C     C_3   0.275704 0.927944 0.464464 0.354629
C25   C     C_R   0.902565 0.592800 0.544311 -0.030881
C26   C     C_R   0.959560 0.417170 0.447216 0.562650
C27   C     C_R   0.103686 0.417572 0.446860 0.629788
C28   C     C_R   0.044799 0.592661 0.544536 -0.065731
C29   C     C_3   0.988920 0.624040 0.645611 0.518228
C30   C     C_3   0.835611 0.623122 0.645214 -0.430122
C31   C     C_R   0.591949 0.500878 0.324164 0.893782
C32   C     C_R   0.350434 0.470681 0.776040 -0.212586
C33   C     C_R   0.650970 0.508587 0.222982 -0.061330
C34   C     C_R   0.216344 0.343533 0.910634 -0.203503
C35   C     C_R   0.240417 0.380155 0.819838 -0.097608
C36   C     C_R   0.426158 0.526765 0.825570 0.506370
H1    H     H_    0.212584 0.261637 0.071262 0.172607
H2    H     H_    0.695400 0.887048 0.538072 0.178429
H3    H     H_    0.695305 0.114330 0.537766 0.208121
H4    H     H_    0.333385 0.114485 0.396337 0.148432
H5    H     H_    0.166514 0.883386 0.499929 0.114222
H6    H     H_    0.459528 0.426211 0.219189 0.180389
H7    H     H_    0.026184 0.717231 0.660017 0.097870
H8    H     H_    0.766614 0.544586 0.685706 0.246507
H9    H     H_    0.782706 0.716784 0.658311 0.196349
H10   H     H_    0.854390 0.595030 0.209846 0.187062
H11   H     H_    0.132019 0.274606 0.945114 0.181155
H12   H     H_    0.379533 0.313065 0.141848 0.171023
H13   H     H_    0.679637 0.612355 0.835292 0.237463
N1    N     N_R   0.856900 0.500860 0.500610 -0.169389
N2    N     N_R   0.142540 0.500820 0.500610 -0.149780
O1    O     O_R   0.385310 0.683210 0.499990 -0.604962
O2    O     O_R   0.614650 0.683240 0.500000 -0.626395
O3    O     O_R   0.319830 0.499970 0.632240 -0.553813
O4    O     O_R   0.549170 0.500000 0.632250 -0.604179
O5    O     O_R   0.385350 0.316760 0.500000 -0.536536
O6    O     O_R   0.614690 0.316790 0.500010 -0.585737
O7    O     O_R   0.450830 0.500000 0.367750 -0.582666
O8    O     O_R   0.680170 0.500030 0.367760 -0.587480
Zn1   Zn    Zn3+2 0.346870 0.499980 0.499990 1.097594
Zn2   Zn    Zn3+2 0.653130 0.500020 0.500010 1.031122
C37   C     C_2   0.971428 0.654514 0.031151 1.013586
O9    O     O_2   0.008288 0.740650 0.069526 -0.606797
O10   O     O_R   0.067918 0.611073 0.944691 -0.728380
H14   H     H_    0.161640 0.662081 0.919546 0.361398
F1    F     F_    0.136253 0.117719 0.514353 -0.616015
F2    F     F_    0.355914 0.880028 0.376817 -0.649700
F3    F     F_    0.922923 0.331830 0.395138 -0.608447
F4    F     F_    0.203171 0.333932 0.393245 -0.627265
F5    F     F_    0.009743 0.527606 0.698565 -0.605490
F6    F     F_    0.863631 0.682748 0.895502 -0.624445
C38   C     C_2   0.152093 0.317357 0.773906 1.059637
O11   O     O_2   0.210550 0.275024 0.695269 -0.606985
O12   O     O_R   0.001600 0.300861 0.823202 -0.753940
H15   H     H_    0.952677 0.255767 0.785323 0.363259
F7    F     F_    0.497588 0.635748 0.791478 -0.698188

loop_
_geom_bond_atom_site_label_1
_geom_bond_atom_site_label_2
_ccdc_geom_bond_type
C8    C9    A    
C16   C21   A    
C30   H9    S    
C19   C20   A    
C4    C8    A    
C14   C33   A    
C23   O5    A    
C14   H10   S    
O3    Zn1   S    
C25   C28   A    
C26   C27   A    
C37   O9    D    
C6    H12   S    
C32   C36   A    
C31   O7    A    
C28   C29   S    
C5    C11   A    
C3    C7    A    
C26   N1    A    
C5    C6    A    
C28   N2    A    
O7    Zn1   S    
C18   C19   A    
C34   C35   A    
C31   O8    A    
C1    O2    A    
C25   N1    A    
C22   F1    S    
C37   O10   S    
C36   F7    S    
C24   F2    S    
C11   C15   A    
C13   C37   S    
C16   C17   A    
C31   C33   S    
O1    Zn1   S    
C9    C10   A    
C27   F4    S    
C16   C24   S    
C13   C14   A    
C12   C32   S    
C24   H5    S    
C30   H8    S    
O2    Zn2   S    
C27   N2    A    
O8    Zn2   S    
O12   H15   S    
C32   C35   A    
C38   O12   S    
C38   O11   D    
C3    C34   A    
O5    Zn1   S    
C2    C4    A    
C29   C30   S    
C20   C23   S    
C22   H4    S    
C17   C18   A    
C7    H1    S    
C19   H3    S    
C29   H7    S    
C35   C38   S    
C22   C24   S    
C29   F5    S    
C2    C36   A    
C25   C30   S    
C23   O6    A    
C9    F6    S    
C15   H6    S    
C4    C5    A    
C10   C13   A    
O6    Zn2   S    
C6    C7    A    
C34   H11   S    
C1    C17   S    
C26   F3    S    
O10   H14   S    
C2    C3    A    
C18   H2    S    
O4    Zn2   S    
C1    O1    A    
C12   O4    A    
C10   C11   A    
C20   C21   A    
N1    Zn2   S    
N2    Zn1   S    
C21   C22   S    
C8    H13   S    
C15   C33   A    
C12   O3    A    
