data_mof_unit_53975.cif
_audit_creation_date              2013-03-05T15:44:52-0500
_audit_creation_method            fapswitch 2.2
_symmetry_space_group_name_H-M    P1
_symmetry_Int_Tables_number       1
_space_group_crystal_system       triclinic
_cell_length_a                    15.602917
_cell_length_b                    15.756147
_cell_length_c                    10.132436
_cell_angle_alpha                 90.898911
_cell_angle_beta                  57.334616
_cell_angle_gamma                 90.11396
_cell_volume                      2096.67635305

loop_
_atom_site_label
_atom_site_type_symbol
_atom_site_description
_atom_site_fract_x
_atom_site_fract_y
_atom_site_fract_z
_atom_type_partial_charge
O1    O     O_R   0.422430 0.089640 0.419570 -0.583776
O2    O     O_R   0.577570 0.910360 0.580430 -0.573953
O3    O     O_R   0.577570 0.089640 0.580430 -0.549815
O4    O     O_R   0.422430 0.910360 0.419570 -0.549724
O5    O     O_R   0.922430 0.589640 0.419570 -0.583849
O6    O     O_R   0.077570 0.410360 0.580430 -0.574047
O7    O     O_R   0.077570 0.589640 0.580430 -0.549834
O8    O     O_R   0.922430 0.410360 0.419570 -0.549581
O9    O     O_R   0.384170 0.089650 0.673910 -0.475806
O10   O     O_R   0.615830 0.910350 0.326090 -0.524632
O11   O     O_R   0.615830 0.089650 0.326090 -0.496472
O12   O     O_R   0.384170 0.910350 0.673910 -0.512091
O13   O     O_R   0.884170 0.589650 0.673910 -0.475721
O14   O     O_R   0.115830 0.410350 0.326090 -0.524565
O15   O     O_R   0.115830 0.589650 0.326090 -0.496561
O16   O     O_R   0.884170 0.410350 0.673910 -0.512460
C1    C     C_R   0.370640 0.118465 0.565207 0.746932
C2    C     C_R   0.629242 0.881437 0.434776 0.726562
C3    C     C_R   0.631948 0.115236 0.434768 0.739337
C4    C     C_R   0.368309 0.884512 0.565012 0.741468
C5    C     C_R   0.870639 0.618464 0.565208 0.746929
C6    C     C_R   0.129241 0.381437 0.434777 0.726517
C7    C     C_R   0.131961 0.615225 0.434762 0.739307
C8    C     C_R   0.868305 0.384510 0.565019 0.741291
C9    C     C_2   0.509777 0.009401 0.918095 0.373935
C10   C     C_2   0.489962 0.990741 0.082409 0.363373
C11   C     C_2   0.009749 0.509468 0.918139 0.374095
C12   C     C_2   0.989953 0.490761 0.082423 0.363351
Cu1   Cu    Cu3+1 0.522650 0.000000 0.349410 1.170931
Cu2   Cu    Cu3+1 0.477350 0.000000 0.650590 1.188682
Cu3   Cu    Cu3+1 0.022650 0.500000 0.349410 1.170793
Cu4   Cu    Cu3+1 0.977350 0.500000 0.650590 1.188469
N1    N     N_2   0.443290 1.000000 0.876860 -0.067553
N2    N     N_2   0.556710 1.000000 0.123140 -0.070685
N3    N     N_2   0.943290 0.500000 0.876860 -0.067532
N4    N     N_2   0.056710 0.500000 0.123140 -0.070720
H1    H     H_    0.632896 0.236606 0.597041 0.210666
H2    H     H_    0.368786 0.760875 0.404428 0.204953
H3    H     H_    0.361338 0.219376 0.375674 0.214205
H4    H     H_    0.639686 0.782264 0.624644 0.213040
H5    H     H_    0.132966 0.736384 0.597283 0.210994
H6    H     H_    0.868739 0.261026 0.404210 0.205176
H7    H     H_    0.861346 0.719394 0.375696 0.214100
H8    H     H_    0.139700 0.282279 0.624650 0.213029
C13   C     C_2   0.280238 0.829799 0.608609 0.166335
C14   C     C_2   0.720285 0.169732 0.390706 0.258963
C15   C     C_2   0.709226 0.816508 0.391310 0.144569
C16   C     C_2   0.290186 0.182895 0.608490 0.248538
C17   C     C_2   0.780258 0.329756 0.608625 0.164844
C18   C     C_2   0.220298 0.669723 0.390716 0.258954
C19   C     C_2   0.209222 0.316506 0.391309 0.144509
C20   C     C_2   0.790180 0.682890 0.608498 0.248507
C21   C     C_2   0.291884 0.772317 0.499814 -0.124968
C22   C     C_2   0.709452 0.226162 0.500342 -0.127186
C23   C     C_2   0.707749 0.775962 0.509009 -0.133581
C24   C     C_2   0.292517 0.224402 0.490874 -0.156901
C25   C     C_2   0.791860 0.272377 0.499718 -0.124560
C26   C     C_2   0.209491 0.726071 0.500443 -0.127326
C27   C     C_2   0.207753 0.275966 0.509005 -0.133712
C28   C     C_2   0.792516 0.724407 0.490888 -0.156954
S1    S     S_3+6 0.687688 0.005946 0.989902 0.193739
O17   O     O_2   0.722689 0.939104 0.863562 -0.196980
O18   O     O_2   0.717180 0.092551 0.919969 -0.231295
O19   O     O_3   0.750393 0.989857 0.079057 -0.399826
H9    H     H_    0.822991 0.985240 0.992781 0.408106
S2    S     S_3+6 0.312623 0.990493 0.008941 0.203485
O20   O     O_2   0.286317 0.902920 0.075216 -0.179887
O21   O     O_2   0.274480 0.056238 0.137702 -0.227567
O22   O     O_3   0.250124 0.005366 0.919290 -0.402753
H10   H     H_    0.177179 0.005561 0.004916 0.404691
S3    S     S_3+6 0.187681 0.505974 0.989880 0.193595
O23   O     O_2   0.222681 0.439167 0.863482 -0.196971
O24   O     O_2   0.217145 0.592597 0.920017 -0.231590
O25   O     O_3   0.250406 0.489856 0.078995 -0.399861
H11   H     H_    0.323000 0.485242 0.992702 0.408063
S4    S     S_3+6 0.812620 0.490525 0.008948 0.203334
O26   O     O_2   0.786289 0.402974 0.075315 -0.180153
O27   O     O_2   0.774502 0.556301 0.137657 -0.227521
O28   O     O_3   0.750121 0.505370 0.919282 -0.402905
H12   H     H_    0.677175 0.505553 0.004901 0.404693
S5    S     S_3+6 0.835306 0.146214 0.207267 0.106029
O29   O     O_2   0.926841 0.195986 0.173522 -0.236589
O30   O     O_2   0.858940 0.053523 0.203699 -0.225926
O31   O     O_3   0.814230 0.165494 0.064485 -0.449758
H13   H     H_    0.878824 0.150031 0.965685 0.397393
S6    S     S_3+6 0.164161 0.854797 0.789876 0.122698
O32   O     O_2   0.142915 0.947772 0.790637 -0.195107
O33   O     O_2   0.071598 0.807075 0.822569 -0.186232
O34   O     O_3   0.181435 0.835866 0.936635 -0.426687
H14   H     H_    0.201706 0.775261 0.923530 0.386563
S7    S     S_3+6 0.189151 0.195581 0.808932 0.084941
O35   O     O_2   0.148667 0.284939 0.846772 -0.242439
O36   O     O_2   0.104711 0.136397 0.840390 -0.232047
O37   O     O_3   0.229726 0.172404 0.927446 -0.439609
H15   H     H_    0.166711 0.164043 0.031614 0.380193
S8    S     S_3+6 0.807550 0.800619 0.189789 0.111693
O38   O     O_2   0.892569 0.860895 0.150347 -0.148652
O39   O     O_2   0.848635 0.711444 0.156117 -0.229249
O40   O     O_3   0.764607 0.819689 0.072693 -0.398262
H16   H     H_    0.697340 0.791989 0.124078 0.358335
S9    S     S_3+6 0.335294 0.646301 0.207194 0.106090
O41   O     O_2   0.426795 0.696112 0.173483 -0.236405
O42   O     O_2   0.359010 0.553616 0.203462 -0.226037
O43   O     O_3   0.314150 0.665631 0.064500 -0.449454
H17   H     H_    0.378698 0.650105 0.965669 0.397450
S10   S     S_3+6 0.664254 0.354495 0.790173 0.122942
O44   O     O_2   0.642588 0.447397 0.791173 -0.195043
O45   O     O_2   0.571827 0.306448 0.823152 -0.185420
O46   O     O_3   0.681907 0.335740 0.936594 -0.426025
H18   H     H_    0.703796 0.275506 0.922054 0.385852
S11   S     S_3+6 0.689134 0.695548 0.808941 0.084942
O47   O     O_2   0.648584 0.784887 0.846807 -0.242410
O48   O     O_2   0.604739 0.636311 0.840387 -0.232074
O49   O     O_3   0.729730 0.672416 0.927444 -0.439585
H19   H     H_    0.666722 0.664051 0.031620 0.380188
S12   S     S_3+6 0.307530 0.300606 0.189782 0.111769
O50   O     O_2   0.392560 0.360874 0.150313 -0.148524
O51   O     O_2   0.348600 0.211426 0.156115 -0.229106
O52   O     O_3   0.264571 0.319681 0.072707 -0.398349
H20   H     H_    0.197306 0.291977 0.124098 0.358341
N5    N     N_R   0.396496 0.951995 0.195037 0.142236
O53   O     O_R   0.326953 0.994785 0.317378 -0.279869
O54   O     O_R   0.391475 0.869677 0.193390 -0.288714
N6    N     N_R   0.602786 0.049111 0.806492 0.141944
O55   O     O_R   0.607282 0.131398 0.810781 -0.305762
O56   O     O_R   0.673157 0.007136 0.683669 -0.283110
N7    N     N_R   0.896511 0.451966 0.195011 0.142268
O57   O     O_R   0.826928 0.494732 0.317365 -0.279889
O58   O     O_R   0.891538 0.369655 0.193294 -0.288917
N8    N     N_R   0.102683 0.549306 0.806651 0.141890
O59   O     O_R   0.107037 0.631605 0.811173 -0.306598
O60   O     O_R   0.173151 0.507438 0.683764 -0.283091

loop_
_geom_bond_atom_site_label_1
_geom_bond_atom_site_label_2
_geom_bond_distance
_ccdc_geom_bond_type
S2    O21   1.500437 D    
S9    O41   1.499482 D    
O2    C2    1.315942 A    
O13   Cu4   1.947235 S    
O6    Cu4   1.929439 S    
S11   O47   1.501176 D    
S4    O28   1.671827 S    
O14   Cu3   1.947235 S    
C2    C15   1.481783 S    
O49   H19   0.990823 S    
C3    C14   1.476284 S    
O11   C3    1.312618 A    
C15   C23   1.350949 D    
S4    O27   1.500443 D    
H5    C26   1.070490 S    
O22   H10   0.991028 S    
S6    O33   1.499351 D    
S2    O22   1.671771 S    
S10   O44   1.501608 D    
H8    C27   1.078927 S    
O6    C6    1.315939 A    
S8    O40   1.678422 S    
C17   C25   1.349635 D    
S12   O50   1.502005 D    
S1    O18   1.500583 D    
C24   C27   1.476586 S    
C20   C28   1.351593 D    
C10   N2    1.318239 D    
H3    C24   1.079933 S    
C16   S7    1.783911 S    
S8    O39   1.501325 D    
C15   S8    1.785953 S    
C1    C16   1.481747 S    
O3    C3    1.313924 A    
C10   N5    1.422526 S    
C4    C13   1.476012 S    
C12   N7    1.422548 S    
O15   C7    1.312636 A    
S2    O20   1.500862 D    
C13   C21   1.349669 D    
S9    O42   1.502101 D    
C23   C28   1.476589 S    
O12   C4    1.313294 A    
S1    O17   1.500499 D    
H6    C25   1.072249 S    
O43   H17   0.990747 S    
S5    O30   1.502110 D    
N1    S2    1.740653 S    
S5    O29   1.499500 D    
N3    S4    1.740657 S    
O25   H11   0.990967 S    
C18   C26   1.349089 D    
Cu4   N3    2.055120 S    
O31   H13   0.990702 S    
S7    O35   1.501168 D    
S3    O24   1.500587 D    
S6    O32   1.501588 D    
C7    C18   1.476335 S    
C20   S11   1.783917 S    
C11   N3    1.318358 D    
C9    C10   1.553460 S    
Cu1   N2    2.055120 S    
N2    S1    1.741496 S    
O3    Cu2   1.941176 S    
N8    O60   1.301441 A    
N7    O58   1.299480 A    
Cu1   Cu2   2.735692 S    
S7    O36   1.502714 D    
C14   S5    1.786923 S    
O40   H16   0.989225 S    
C21   C26   1.473508 S    
H4    C23   1.078918 S    
S8    O38   1.502002 D    
C14   C22   1.349095 D    
O1    Cu1   1.929438 S    
O13   C5    1.315627 A    
S11   O48   1.502718 D    
S4    O26   1.500849 D    
C12   N4    1.318222 D    
N5    O53   1.301270 A    
H7    C28   1.079933 S    
H1    C22   1.070631 S    
O9    Cu2   1.947235 S    
O9    C1    1.315633 A    
S9    O43   1.679642 S    
C19   C27   1.350946 D    
N7    O57   1.301342 A    
S5    O31   1.679636 S    
N6    O56   1.301470 A    
C8    C17   1.476086 S    
C16   C24   1.351598 D    
O7    Cu4   1.941176 S    
Cu2   N1    2.055120 S    
O12   Cu2   1.948418 S    
O8    Cu3   1.941177 S    
Cu3   Cu4   2.735692 S    
O4    Cu1   1.941177 S    
S6    O34   1.679212 S    
S3    O25   1.673251 S    
O52   H20   0.989227 S    
N4    S3    1.741479 S    
O15   Cu3   1.948416 S    
C17   S10   1.788317 S    
O16   Cu4   1.948418 S    
O1    C1    1.315314 A    
C19   S12   1.785945 S    
S12   O52   1.678430 S    
O2    Cu2   1.929439 S    
O19   H9    0.990967 S    
O14   C6    1.314899 A    
N8    O59   1.299740 A    
S3    O23   1.500496 D    
O46   H18   0.990777 S    
S1    O19   1.673243 S    
O10   Cu1   1.947235 S    
H2    C21   1.072335 S    
S10   O45   1.499310 D    
O10   C2    1.314904 A    
O7    C7    1.313921 A    
O8    C8    1.313390 A    
S12   O51   1.501326 D    
C13   S6    1.788310 S    
S11   O49   1.676742 S    
O37   H15   0.990824 S    
C9    N6    1.422442 S    
N5    O54   1.299614 A    
O28   H12   0.991021 S    
O4    C4    1.313324 A    
O5    C5    1.315318 A    
O11   Cu1   1.948416 S    
C18   S9    1.786878 S    
O16   C8    1.313275 A    
C11   C12   1.553450 S    
C11   N8    1.422371 S    
Cu3   N4    2.055120 S    
N6    O55   1.299600 A    
O5    Cu3   1.929438 S    
O34   H14   0.990639 S    
C22   C25   1.473510 S    
C5    C20   1.481745 S    
C9    N1    1.318349 D    
C6    C19   1.481767 S    
S7    O37   1.676741 S    
S10   O46   1.679131 S    
