data_mof_unit_57975.cif
_audit_creation_date              2012-12-10T17:54:38-0500
_audit_creation_method            fapswitch 2.2
_symmetry_space_group_name_H-M    P1
_symmetry_Int_Tables_number       1
_space_group_crystal_system       triclinic
_cell_length_a                    21.66972
_cell_length_b                    21.733708
_cell_length_c                    30.311232
_cell_angle_alpha                 90.354274
_cell_angle_beta                  89.360872
_cell_angle_gamma                 90.458884
_cell_volume                      14273.8688212

loop_
_atom_site_label
_atom_site_type_symbol
_atom_type_description
_atom_site_fract_x
_atom_site_fract_y
_atom_site_fract_z
_atom_type_partial_charge
C1    C     C_R   0.500383 0.120099 0.500969 0.902746
C2    C     C_R   0.119701 0.500144 0.500574 0.880592
C3    C     C_R   0.499635 0.879980 0.500193 0.900554
C4    C     C_R   0.880133 0.499869 0.500234 0.874511
C5    C     C_R   0.000261 0.619976 0.000178 0.879383
C6    C     C_R   0.619856 0.000120 0.999948 0.866685
C7    C     C_R   0.999661 0.379942 0.000141 0.897438
C8    C     C_R   0.380173 0.999862 0.000321 0.866913
C9    C     C_R   0.499777 0.999668 0.773428 0.042357
C10   C     C_R   0.022038 0.520266 0.773442 0.037290
C11   C     C_R   0.501128 0.001316 0.226720 0.031348
C12   C     C_R   0.998859 0.500380 0.227130 0.025626
C13   C     C_R   0.998708 0.500594 0.273435 0.042558
C14   C     C_R   0.501437 0.001802 0.272999 0.030396
C15   C     C_R   0.022204 0.519995 0.726826 0.030950
C16   C     C_R   0.499444 0.000088 0.727132 0.023790
C17   C     C_R   0.401454 0.942963 0.774270 -0.110737
C18   C     C_R   0.952652 0.608150 0.774297 -0.108550
C19   C     C_R   0.598299 0.055992 0.772954 -0.108860
C20   C     C_R   0.109433 0.450424 0.771958 -0.095705
C21   C     C_R   0.405740 0.060861 0.226984 -0.105117
C22   C     C_R   0.896690 0.451554 0.228353 -0.091956
C23   C     C_R   0.595815 0.940655 0.224991 -0.102923
C24   C     C_R   0.100614 0.550006 0.227271 -0.092703
C25   C     C_R   0.900161 0.444306 0.274199 -0.108595
C26   C     C_R   0.401817 0.054755 0.272939 -0.093916
C27   C     C_R   0.096127 0.558992 0.272974 -0.111901
C28   C     C_R   0.600512 0.947892 0.270840 -0.091876
C29   C     C_R   0.959184 0.612228 0.728201 -0.096499
C30   C     C_R   0.396942 0.952046 0.728684 -0.094029
C31   C     C_R   0.104968 0.444777 0.725869 -0.100260
C32   C     C_R   0.601971 0.048152 0.727091 -0.092510
C33   C     C_R   0.547236 0.218307 0.476789 -0.063116
C34   C     C_R   0.216685 0.463711 0.468768 -0.080231
C35   C     C_R   0.454987 0.781540 0.474999 -0.066525
C36   C     C_R   0.783082 0.539966 0.471936 -0.075937
C37   C     C_R   0.541526 0.782300 0.527246 -0.070226
C38   C     C_R   0.217295 0.537215 0.531225 -0.085870
C39   C     C_R   0.455994 0.218509 0.526177 -0.064722
C40   C     C_R   0.781490 0.458068 0.527864 -0.074696
C41   C     C_R   0.043130 0.717786 0.972920 -0.070974
C42   C     C_R   0.717467 0.959298 0.971093 -0.071550
C43   C     C_R   0.955003 0.281310 0.975093 -0.066294
C44   C     C_R   0.283439 0.038522 0.970512 -0.075725
C45   C     C_R   0.042363 0.282246 0.026700 -0.068214
C46   C     C_R   0.717750 0.039758 0.028891 -0.080475
C47   C     C_R   0.958066 0.718005 0.027693 -0.070642
C48   C     C_R   0.281553 0.959631 0.028675 -0.081803
C49   C     C_R   0.501605 0.186587 0.501751 -0.132634
C50   C     C_R   0.185610 0.499983 0.500541 -0.142528
C51   C     C_R   0.498393 0.813694 0.501185 -0.130401
C52   C     C_R   0.813964 0.499727 0.500436 -0.138761
C53   C     C_R   0.000943 0.686217 0.000695 -0.141326
C54   C     C_R   0.686000 0.999856 0.999976 -0.147406
C55   C     C_R   0.998612 0.313583 0.001056 -0.129282
C56   C     C_R   0.314091 0.999760 0.000206 -0.145930
C57   C     C_R   0.499658 0.000338 0.586783 0.896669
C58   C     C_R   0.999818 0.500569 0.587083 0.875631
C59   C     C_R   0.500343 0.000960 0.413244 0.907945
C60   C     C_R   0.000001 0.499964 0.413325 0.878240
C61   C     C_R   0.999703 0.499949 0.086779 0.885328
C62   C     C_R   0.500041 0.000169 0.086713 0.864564
C63   C     C_R   0.000768 0.499762 0.913001 0.893369
C64   C     C_R   0.499996 0.999819 0.913328 0.876463
C65   C     C_R   0.543547 0.282039 0.472913 -0.088319
C66   C     C_R   0.280759 0.468138 0.465790 -0.064396
C67   C     C_R   0.459541 0.717787 0.471026 -0.083281
C68   C     C_R   0.719515 0.533930 0.467741 -0.078232
C69   C     C_R   0.538308 0.718339 0.529179 -0.080673
C70   C     C_R   0.281347 0.534376 0.532509 -0.065412
C71   C     C_R   0.455892 0.282540 0.525468 -0.068460
C72   C     C_R   0.717393 0.461507 0.530137 -0.078137
C73   C     C_R   0.039029 0.781554 0.969601 -0.075697
C74   C     C_R   0.781616 0.961725 0.969100 -0.074319
C75   C     C_R   0.959276 0.217572 0.971422 -0.081938
C76   C     C_R   0.219727 0.033010 0.966766 -0.078018
C77   C     C_R   0.039596 0.218196 0.028520 -0.080369
C78   C     C_R   0.781665 0.035961 0.031231 -0.073841
C79   C     C_R   0.961356 0.782063 0.029845 -0.076238
C80   C     C_R   0.217526 0.962600 0.030388 -0.073147
C81   C     C_R   0.499710 0.313874 0.499070 -0.142902
C82   C     C_R   0.313074 0.500532 0.499417 -0.129920
C83   C     C_R   0.499389 0.686281 0.499706 -0.144215
C84   C     C_R   0.686502 0.497625 0.498756 -0.144500
C85   C     C_R   0.999848 0.813636 0.999377 -0.144539
C86   C     C_R   0.813506 0.998911 0.000094 -0.143327
C87   C     C_R   0.999751 0.186186 0.999707 -0.144958
C88   C     C_R   0.186654 0.997971 0.998579 -0.146104
C89   C     C_R   0.379752 0.499336 0.499952 0.889811
C90   C     C_R   0.499094 0.620010 0.499967 0.878599
C91   C     C_R   0.620104 0.499650 0.499653 0.875377
C92   C     C_R   0.500147 0.380045 0.499704 0.884445
C93   C     C_R   0.879920 0.998926 0.000092 0.873990
C94   C     C_R   0.999434 0.119977 0.999975 0.876515
C95   C     C_R   0.120154 0.999871 0.999610 0.877290
C96   C     C_R   0.000538 0.879950 0.999794 0.870811
C97   C     C_R   0.538088 0.041711 0.842101 -0.088943
C98   C     C_R   0.053530 0.472691 0.842252 -0.065291
C99   C     C_R   0.462296 0.957049 0.842435 -0.090943
C100  C     C_R   0.967328 0.545877 0.841929 -0.090462
C101  C     C_R   0.534880 0.956077 0.157588 -0.081563
C102  C     C_R   0.044769 0.534203 0.157727 -0.066176
C103  C     C_R   0.466186 0.045353 0.158422 -0.078984
C104  C     C_R   0.953366 0.466383 0.158089 -0.068242
C105  C     C_R   0.036084 0.543455 0.342088 -0.094931
C106  C     C_R   0.546997 0.968596 0.341841 -0.077148
C107  C     C_R   0.960701 0.458366 0.342504 -0.084563
C108  C     C_R   0.456458 0.036542 0.342710 -0.065166
C109  C     C_R   0.043749 0.463697 0.658414 -0.099294
C110  C     C_R   0.545271 0.033835 0.657683 -0.071003
C111  C     C_R   0.975501 0.553918 0.658330 -0.056668
C112  C     C_R   0.452638 0.967678 0.658134 -0.055769
C113  C     C_R   0.500183 0.999449 0.865408 -0.133605
C114  C     C_R   0.005430 0.504613 0.864670 -0.154521
C115  C     C_R   0.500367 0.000556 0.134634 -0.155300
C116  C     C_R   0.999167 0.500226 0.134817 -0.183909
C117  C     C_R   0.999165 0.500299 0.365412 -0.131883
C118  C     C_R   0.501302 0.002169 0.365161 -0.161749
C119  C     C_R   0.004893 0.504497 0.635557 -0.167202
C120  C     C_R   0.498973 0.000785 0.634826 -0.168556
C121  C     C_R   0.454125 0.965642 0.796861 -0.022976
C122  C     C_R   0.979764 0.558190 0.796835 -0.012328
C123  C     C_R   0.545802 0.033274 0.796313 -0.023034
C124  C     C_R   0.062103 0.480763 0.796263 -0.011100
C125  C     C_R   0.457253 0.036437 0.203959 -0.013710
C126  C     C_R   0.949016 0.473027 0.204305 -0.005354
C127  C     C_R   0.544491 0.965532 0.202973 -0.013356
C128  C     C_R   0.048812 0.527670 0.203799 -0.005775
C129  C     C_R   0.952817 0.466841 0.296859 -0.017829
C130  C     C_R   0.452750 0.031156 0.296471 -0.004121
C131  C     C_R   0.044050 0.535166 0.296331 -0.029321
C132  C     C_R   0.550341 0.972880 0.295491 -0.008554
C133  C     C_R   0.985452 0.562468 0.704073 -0.011628
C134  C     C_R   0.448966 0.973740 0.704421 -0.003599
C135  C     C_R   0.057030 0.475375 0.703407 -0.018805
C136  C     C_R   0.549548 0.026972 0.703726 -0.011940
O1    O     O_R   0.448270 0.091530 0.499990 -0.619085
O2    O     O_R   0.091530 0.551730 0.499990 -0.620551
O3    O     O_R   0.551730 0.908470 0.499990 -0.609367
O4    O     O_R   0.908470 0.448270 0.499990 -0.618690
O5    O     O_R   0.448270 0.908470 0.500010 -0.619443
O6    O     O_R   0.091530 0.448270 0.500010 -0.628759
O7    O     O_R   0.551730 0.091530 0.500010 -0.614563
O8    O     O_R   0.908470 0.551730 0.500010 -0.613503
O9    O     O_R   0.948270 0.591530 0.999990 -0.619490
O10   O     O_R   0.591530 0.051730 0.999990 -0.615788
O11   O     O_R   0.051730 0.408470 0.999990 -0.611163
O12   O     O_R   0.408470 0.948270 0.999990 -0.615453
O13   O     O_R   0.948270 0.408470 0.000010 -0.617000
O14   O     O_R   0.591530 0.948270 0.000010 -0.625998
O15   O     O_R   0.051730 0.591530 0.000010 -0.614867
O16   O     O_R   0.408470 0.051730 0.000010 -0.624147
O17   O     O_R   0.448270 0.999890 0.566070 -0.628953
O18   O     O_R   0.999890 0.551730 0.566070 -0.625658
O19   O     O_R   0.551730 0.000110 0.566070 -0.636408
O20   O     O_R   0.000110 0.448270 0.566070 -0.610594
O21   O     O_R   0.448270 0.000110 0.433930 -0.628264
O22   O     O_R   0.999890 0.448270 0.433930 -0.607945
O23   O     O_R   0.551730 0.999890 0.433930 -0.626858
O24   O     O_R   0.000110 0.551730 0.433930 -0.612466
O25   O     O_R   0.948270 0.499890 0.066070 -0.632753
O26   O     O_R   0.499890 0.051730 0.066070 -0.614210
O27   O     O_R   0.051730 0.500110 0.066070 -0.633181
O28   O     O_R   0.500110 0.948270 0.066070 -0.613699
O29   O     O_R   0.948270 0.500110 0.933930 -0.606795
O30   O     O_R   0.499890 0.948270 0.933930 -0.610270
O31   O     O_R   0.051730 0.499890 0.933930 -0.625212
O32   O     O_R   0.500110 0.051730 0.933930 -0.609280
O33   O     O_R   0.408290 0.499920 0.462700 -0.623730
O34   O     O_R   0.499920 0.591710 0.462700 -0.622204
O35   O     O_R   0.591710 0.500080 0.462700 -0.617019
O36   O     O_R   0.500080 0.408290 0.462700 -0.619924
O37   O     O_R   0.408290 0.500080 0.537300 -0.605437
O38   O     O_R   0.499920 0.408290 0.537300 -0.625729
O39   O     O_R   0.591710 0.499920 0.537300 -0.606152
O40   O     O_R   0.500080 0.591710 0.537300 -0.605240
O41   O     O_R   0.908290 0.999920 0.962700 -0.618195
O42   O     O_R   0.999920 0.091710 0.962700 -0.619669
O43   O     O_R   0.091710 0.000080 0.962700 -0.619011
O44   O     O_R   0.000080 0.908290 0.962700 -0.620445
O45   O     O_R   0.908290 0.000080 0.037300 -0.608220
O46   O     O_R   0.999920 0.908290 0.037300 -0.609493
O47   O     O_R   0.091710 0.999920 0.037300 -0.603927
O48   O     O_R   0.000080 0.091710 0.037300 -0.609679
Zn1   Zn    Zn3+2 0.430930 0.000000 0.500000 0.944502
Zn2   Zn    Zn3+2 0.000000 0.569070 0.500000 0.958862
Zn3   Zn    Zn3+2 0.569070 0.000000 0.500000 0.954726
Zn4   Zn    Zn3+2 0.000000 0.430930 0.500000 0.970325
Zn5   Zn    Zn3+2 0.930930 0.500000 0.000000 0.964012
Zn6   Zn    Zn3+2 0.500000 0.069070 0.000000 0.973550
Zn7   Zn    Zn3+2 0.069070 0.500000 0.000000 0.947044
Zn8   Zn    Zn3+2 0.500000 0.930930 0.000000 0.971694
Zn9   Zn    Zn3+2 0.500000 0.500000 0.450200 0.966658
Zn10  Zn    Zn3+2 0.500000 0.500000 0.549800 0.981648
Zn11  Zn    Zn3+2 0.000000 1.000000 0.950200 0.963991
Zn12  Zn    Zn3+2 0.000000 1.000000 0.049800 0.994972
C137  C     C_2   0.346516 0.918362 0.798075 0.945875
O49   O     O_2   0.335738 0.863049 0.797672 -0.585363
O50   O     O_R   0.305957 0.958804 0.819131 -0.843731
H1    H     H_    0.270178 0.936693 0.834112 0.320861
C138  C     C_2   0.926143 0.661271 0.798696 0.940994
O51   O     O_2   0.870917 0.671860 0.796650 -0.584311
O52   O     O_R   0.964790 0.699401 0.823455 -0.845611
H2    H     H_    0.941473 0.733285 0.839360 0.318792
C139  C     C_2   0.653988 0.078712 0.796091 0.945018
O53   O     O_2   0.666551 0.133665 0.796216 -0.588209
O54   O     O_R   0.693009 0.036810 0.816130 -0.845284
H3    H     H_    0.729490 0.057624 0.830785 0.320156
C140  C     C_2   0.167994 0.432270 0.793068 0.922374
O55   O     O_2   0.201531 0.471856 0.809027 -0.657566
O56   O     O_R   0.184921 0.370372 0.794142 -0.764382
H4    H     H_    0.225577 0.363977 0.809621 0.339994
C141  C     C_2   0.350996 0.082970 0.202904 0.935597
O57   O     O_2   0.334852 0.136545 0.206659 -0.582421
O58   O     O_R   0.318066 0.042129 0.176161 -0.847692
H5    H     H_    0.282483 0.062691 0.160850 0.317090
C142  C     C_2   0.835403 0.445877 0.207049 0.924467
O59   O     O_2   0.812921 0.490763 0.189391 -0.668011
O60   O     O_R   0.803647 0.389637 0.207314 -0.760126
H6    H     H_    0.762752 0.391729 0.191500 0.337477
C143  C     C_2   0.649478 0.915807 0.199981 0.934688
O61   O     O_2   0.663631 0.861775 0.203864 -0.582393
O62   O     O_R   0.683797 0.954520 0.172337 -0.851148
H7    H     H_    0.718412 0.932014 0.156525 0.317494
C144  C     C_2   0.162204 0.555835 0.205445 0.930901
O63   O     O_2   0.184904 0.511078 0.187006 -0.668293
O64   O     O_R   0.194054 0.612027 0.206203 -0.765743
H8    H     H_    0.235162 0.610023 0.189987 0.337558
C145  C     C_2   0.844137 0.422638 0.298220 0.940319
O65   O     O_2   0.829529 0.368193 0.297080 -0.587170
O66   O     O_R   0.807517 0.464955 0.321043 -0.843153
H9    H     H_    0.770814 0.444813 0.336293 0.319264
C146  C     C_2   0.340709 0.063391 0.294663 0.919776
O67   O     O_2   0.313176 0.018885 0.309907 -0.660859
O68   O     O_R   0.314771 0.121993 0.297385 -0.758794
H10   H     H_    0.273272 0.121820 0.313156 0.338472
C147  C     C_2   0.150527 0.585321 0.295783 0.945292
O69   O     O_2   0.158062 0.641111 0.297278 -0.587820
O70   O     O_R   0.194790 0.546159 0.312933 -0.845552
H11   H     H_    0.230203 0.569426 0.327097 0.323117
C148  C     C_2   0.661669 0.938225 0.291150 0.913614
O71   O     O_2   0.691223 0.982545 0.304592 -0.660820
O72   O     O_R   0.685397 0.878838 0.294510 -0.760152
H12   H     H_    0.727213 0.878347 0.309159 0.338794
C149  C     C_2   0.947522 0.672244 0.706745 0.925605
O73   O     O_2   0.990173 0.699715 0.688670 -0.667702
O74   O     O_R   0.888262 0.697196 0.707304 -0.756240
H13   H     H_    0.886381 0.737939 0.691294 0.341690
C150  C     C_2   0.335096 0.947589 0.708055 0.930210
O75   O     O_2   0.312985 0.993031 0.690890 -0.666779
O76   O     O_R   0.302327 0.891918 0.708487 -0.761587
H14   H     H_    0.261112 0.894879 0.693181 0.340696
C151  C     C_2   0.156918 0.415795 0.701527 0.935268
O77   O     O_2   0.162742 0.359879 0.701714 -0.582590
O78   O     O_R   0.200973 0.453061 0.680746 -0.848530
H15   H     H_    0.236967 0.428508 0.668716 0.321939
C152  C     C_2   0.663372 0.053343 0.704950 0.924636
O79   O     O_2   0.685413 0.008360 0.686383 -0.668952
O80   O     O_R   0.695782 0.109214 0.705529 -0.764058
H16   H     H_    0.736694 0.106805 0.689089 0.337543
C153  C     C_R   0.598529 0.185303 0.453976 0.171598
C154  C     C_R   0.590005 0.158943 0.412216 -0.139437
C155  C     C_R   0.637421 0.125764 0.391737 -0.105887
C156  C     C_R   0.694003 0.119232 0.412820 -0.105516
C157  C     C_R   0.703159 0.145992 0.454328 -0.169321
C158  C     C_R   0.655572 0.178870 0.474907 -0.117758
H17   H     H_    0.546691 0.164012 0.395891 0.114590
H18   H     H_    0.630224 0.105000 0.359625 0.151527
H19   H     H_    0.730717 0.093492 0.396997 0.138176
H20   H     H_    0.747014 0.141078 0.470625 0.117174
H21   H     H_    0.662986 0.199266 0.507073 0.108824
C159  C     C_R   0.182308 0.425112 0.436024 0.113234
C160  C     C_R   0.175545 0.445487 0.392588 -0.160249
C161  C     C_R   0.143853 0.409616 0.361696 -0.089916
C162  C     C_R   0.119767 0.352285 0.373789 -0.115914
C163  C     C_R   0.127779 0.330668 0.416646 -0.129821
C164  C     C_R   0.159420 0.366613 0.447562 -0.091798
H22   H     H_    0.196020 0.488685 0.382775 0.165553
H23   H     H_    0.138407 0.426017 0.328331 0.170038
H24   H     H_    0.095571 0.324297 0.349834 0.120152
H25   H     H_    0.109591 0.285997 0.425891 0.115835
H26   H     H_    0.165382 0.349223 0.480552 0.102707
C165  C     C_R   0.405964 0.814157 0.450347 0.158464
C166  C     C_R   0.412946 0.825765 0.405177 -0.149602
C167  C     C_R   0.367615 0.857667 0.382425 -0.103058
C168  C     C_R   0.314158 0.876880 0.404550 -0.096614
C169  C     C_R   0.305646 0.863319 0.449244 -0.173696
C170  C     C_R   0.351124 0.831586 0.472013 -0.104088
H27   H     H_    0.452701 0.808611 0.387674 0.117922
H28   H     H_    0.373706 0.867034 0.347610 0.146812
H29   H     H_    0.279041 0.901597 0.386953 0.146778
H30   H     H_    0.263874 0.877426 0.466253 0.115951
H31   H     H_    0.344127 0.821115 0.506542 0.118722
C171  C     C_R   0.816692 0.587818 0.445828 0.137756
C172  C     C_R   0.833088 0.577283 0.401572 -0.156520
C173  C     C_R   0.865525 0.622068 0.377668 -0.090895
C174  C     C_R   0.880687 0.678249 0.397612 -0.105173
C175  C     C_R   0.862993 0.689826 0.441352 -0.151895
C176  C     C_R   0.830755 0.644956 0.465351 -0.100092
H32   H     H_    0.819923 0.534917 0.385567 0.171187
H33   H     H_    0.878595 0.613326 0.343643 0.144832
H34   H     H_    0.905687 0.712994 0.379082 0.117811
H35   H     H_    0.874295 0.733529 0.456675 0.114545
H36   H     H_    0.817255 0.654318 0.499220 0.113807
C177  C     C_R   0.590308 0.815119 0.552862 0.160860
C178  C     C_R   0.574556 0.854501 0.587938 -0.142572
C179  C     C_R   0.620505 0.883612 0.612651 -0.106350
C180  C     C_R   0.682653 0.873830 0.602311 -0.099338
C181  C     C_R   0.698873 0.834772 0.567330 -0.170343
C182  C     C_R   0.652951 0.805451 0.542688 -0.123199
H37   H     H_    0.526784 0.862972 0.595607 0.112087
H38   H     H_    0.607942 0.913836 0.639730 0.161157
H39   H     H_    0.718208 0.896501 0.621395 0.159893
H40   H     H_    0.747023 0.827062 0.559381 0.125590
H41   H     H_    0.666116 0.775018 0.515836 0.105622
C183  C     C_R   0.184333 0.582261 0.560079 0.139277
C184  C     C_R   0.163251 0.565940 0.602358 -0.178943
C185  C     C_R   0.132316 0.608765 0.628947 -0.073878
C186  C     C_R   0.122659 0.668353 0.613596 -0.109869
C187  C     C_R   0.144713 0.685409 0.571892 -0.169658
C188  C     C_R   0.175862 0.642687 0.545328 -0.087415
H42   H     H_    0.171975 0.520782 0.615104 0.158656
H43   H     H_    0.116196 0.595878 0.661550 0.162712
H44   H     H_    0.098682 0.701480 0.634174 0.174306
H45   H     H_    0.137874 0.731784 0.560207 0.123709
H46   H     H_    0.193360 0.656555 0.513307 0.101554
C189  C     C_R   0.410513 0.185701 0.554917 0.155893
C190  C     C_R   0.423962 0.175997 0.599375 -0.185552
C191  C     C_R   0.382799 0.143243 0.626396 -0.107149
C192  C     C_R   0.327111 0.121327 0.609296 -0.085711
C193  C     C_R   0.312313 0.132800 0.565340 -0.172577
C194  C     C_R   0.353663 0.165275 0.538259 -0.075717
H47   H     H_    0.465987 0.194560 0.612905 0.124223
H48   H     H_    0.393934 0.135114 0.660584 0.144569
H49   H     H_    0.295201 0.095974 0.630182 0.167236
H50   H     H_    0.268912 0.116385 0.552219 0.117068
H51   H     H_    0.341922 0.173771 0.504293 0.111606
C195  C     C_R   0.813359 0.411126 0.554904 0.156933
C196  C     C_R   0.852312 0.429154 0.589280 -0.128546
C197  C     C_R   0.879625 0.385153 0.615990 -0.110807
C198  C     C_R   0.868811 0.322584 0.608178 -0.101289
C199  C     C_R   0.830300 0.304066 0.573771 -0.147556
C200  C     C_R   0.802501 0.348123 0.547250 -0.139580
H52   H     H_    0.861502 0.477233 0.595005 0.110284
H53   H     H_    0.909059 0.399703 0.642729 0.122822
H54   H     H_    0.890175 0.288507 0.628805 0.120565
H55   H     H_    0.821714 0.255614 0.567794 0.120869
H56   H     H_    0.772302 0.333281 0.520934 0.104827
C201  C     C_R   0.089958 0.684350 0.945684 0.139144
C202  C     C_R   0.078486 0.669784 0.901390 -0.168343
C203  C     C_R   0.121701 0.636761 0.876423 -0.076088
C204  C     C_R   0.177355 0.619259 0.895317 -0.111778
C205  C     C_R   0.190066 0.635364 0.939034 -0.168332
C206  C     C_R   0.146718 0.668144 0.964110 -0.089282
H57   H     H_    0.036521 0.684645 0.886215 0.172916
H58   H     H_    0.112125 0.624951 0.842415 0.160949
H59   H     H_    0.210797 0.593632 0.875994 0.154226
H60   H     H_    0.233416 0.622301 0.953533 0.116316
H61   H     H_    0.156864 0.680263 0.997974 0.113133
C207  C     C_R   0.683803 0.916595 0.940886 0.131333
C208  C     C_R   0.673678 0.933101 0.896991 -0.165088
C209  C     C_R   0.641598 0.893524 0.868694 -0.087488
C210  C     C_R   0.620867 0.836311 0.883863 -0.108582
C211  C     C_R   0.632719 0.818512 0.927168 -0.136838
C212  C     C_R   0.664556 0.858274 0.955511 -0.085108
H62   H     H_    0.691680 0.976149 0.884798 0.164159
H63   H     H_    0.633268 0.906995 0.834969 0.160892
H64   H     H_    0.596335 0.805456 0.861937 0.118448
H65   H     H_    0.617364 0.773878 0.938741 0.113673
H66   H     H_    0.673999 0.843934 0.988821 0.101191
C213  C     C_R   0.905992 0.313715 0.950393 0.158515
C214  C     C_R   0.913991 0.327200 0.905573 -0.145424
C215  C     C_R   0.868770 0.359380 0.882897 -0.118462
C216  C     C_R   0.814517 0.377028 0.904715 -0.089155
C217  C     C_R   0.805122 0.361665 0.949021 -0.155771
C218  C     C_R   0.850492 0.329701 0.971737 -0.109087
H67   H     H_    0.954636 0.311706 0.888281 0.116317
H68   H     H_    0.875629 0.370298 0.848388 0.121682
H69   H     H_    0.779520 0.402007 0.887180 0.115665
H70   H     H_    0.762772 0.374601 0.965781 0.111697
H71   H     H_    0.842843 0.317865 0.005966 0.115423
C219  C     C_R   0.317599 0.083489 0.942165 0.135065
C220  C     C_R   0.332935 0.068949 0.898315 -0.159433
C221  C     C_R   0.365900 0.110882 0.872202 -0.091946
C222  C     C_R   0.382440 0.168370 0.889476 -0.106576
C223  C     C_R   0.365452 0.184118 0.932686 -0.141520
C224  C     C_R   0.332714 0.142038 0.958860 -0.096913
H72   H     H_    0.318325 0.025716 0.884326 0.170693
H73   H     H_    0.378227 0.098960 0.838527 0.149688
H74   H     H_    0.407765 0.200976 0.869248 0.117620
H75   H     H_    0.377574 0.228937 0.945882 0.115242
H76   H     H_    0.319331 0.154772 0.992129 0.101838
C225  C     C_R   0.091623 0.315331 0.051704 0.159549
C226  C     C_R   0.076506 0.354264 0.087176 -0.141620
C227  C     C_R   0.122845 0.384074 0.111086 -0.105115
C228  C     C_R   0.184772 0.375437 0.099537 -0.102983
C229  C     C_R   0.200368 0.336881 0.064124 -0.165168
C230  C     C_R   0.154045 0.306896 0.040268 -0.116319
H77   H     H_    0.028891 0.362003 0.095678 0.114103
H78   H     H_    0.110734 0.414040 0.138426 0.161296
H79   H     H_    0.220636 0.398666 0.117983 0.155328
H80   H     H_    0.248351 0.330137 0.055197 0.123527
H81   H     H_    0.166738 0.276989 0.013005 0.106102
C231  C     C_R   0.685296 0.087344 0.055794 0.148470
C232  C     C_R   0.654223 0.071686 0.095004 -0.139558
C233  C     C_R   0.625397 0.117008 0.120561 -0.080335
C234  C     C_R   0.627375 0.178382 0.107107 -0.105479
C235  C     C_R   0.658851 0.194518 0.068315 -0.151504
C236  C     C_R   0.688067 0.149244 0.042839 -0.118974
H82   H     H_    0.653524 0.024889 0.106278 0.143207
H83   H     H_    0.601997 0.104489 0.150956 0.137247
H84   H     H_    0.605038 0.213486 0.126930 0.121454
H85   H     H_    0.660956 0.242139 0.058133 0.119607
H86   H     H_    0.713153 0.162363 0.013225 0.101873
C237  C     C_R   0.908535 0.685446 0.053288 0.156989
C238  C     C_R   0.923229 0.645761 0.087837 -0.134222
C239  C     C_R   0.876548 0.616729 0.112375 -0.109040
C240  C     C_R   0.814703 0.626864 0.102361 -0.101385
C241  C     C_R   0.799525 0.666148 0.067860 -0.155135
C242  C     C_R   0.846188 0.695396 0.043398 -0.130142
H87   H     H_    0.970758 0.636879 0.095149 0.115175
H88   H     H_    0.888315 0.586228 0.139023 0.161489
H89   H     H_    0.778578 0.604225 0.121289 0.155293
H90   H     H_    0.751609 0.674026 0.060110 0.123704
H91   H     H_    0.833840 0.725879 0.016825 0.105807
C243  C     C_R   0.313381 0.913108 0.056011 0.146347
C244  C     C_R   0.342723 0.930174 0.095243 -0.142561
C245  C     C_R   0.371639 0.886009 0.120952 -0.077150
C246  C     C_R   0.371148 0.824302 0.107721 -0.107121
C247  C     C_R   0.341150 0.806701 0.068997 -0.150631
C248  C     C_R   0.312031 0.850862 0.043317 -0.116640
H92   H     H_    0.341955 0.977185 0.106354 0.142930
H93   H     H_    0.393971 0.899648 0.151276 0.140341
H94   H     H_    0.393464 0.790061 0.127668 0.121247
H95   H     H_    0.340174 0.758814 0.058999 0.119950
H96   H     H_    0.288165 0.836609 0.013733 0.101546
C249  C     C_R   0.580372 0.313089 0.437483 0.143878
C250  C     C_R   0.644568 0.321389 0.440893 -0.167519
C251  C     C_R   0.678735 0.345228 0.405444 -0.126857
C252  C     C_R   0.649366 0.360312 0.366210 -0.114754
C253  C     C_R   0.585704 0.351990 0.362430 -0.153011
C254  C     C_R   0.551420 0.327980 0.397714 -0.082151
H97   H     H_    0.668549 0.307807 0.470304 0.107066
H98   H     H_    0.728089 0.351394 0.408168 0.133905
H99   H     H_    0.675931 0.378394 0.338706 0.140147
H100  H     H_    0.562986 0.363562 0.332000 0.124334
H101  H     H_    0.502262 0.320757 0.394066 0.118943
C255  C     C_R   0.311815 0.442505 0.425523 0.157826
C256  C     C_R   0.313906 0.378852 0.417599 -0.143905
C257  C     C_R   0.337686 0.356088 0.377724 -0.143863
C258  C     C_R   0.359691 0.396546 0.345460 -0.106386
C259  C     C_R   0.356294 0.459973 0.352526 -0.129367
C260  C     C_R   0.331410 0.482768 0.392006 -0.096538
H102  H     H_    0.294167 0.347199 0.441179 0.111787
H103  H     H_    0.337575 0.307175 0.371325 0.139779
H104  H     H_    0.378102 0.378765 0.314634 0.132971
H105  H     H_    0.372018 0.491475 0.327191 0.126263
H106  H     H_    0.327123 0.531773 0.396741 0.134980
C261  C     C_R   0.424282 0.686055 0.435345 0.147946
C262  C     C_R   0.359494 0.681739 0.437255 -0.163975
C263  C     C_R   0.326539 0.659961 0.400906 -0.136486
C264  C     C_R   0.357835 0.642614 0.362296 -0.125002
C265  C     C_R   0.422134 0.646613 0.360066 -0.158449
C266  C     C_R   0.455201 0.668881 0.396187 -0.090431
H107  H     H_    0.334279 0.697933 0.465971 0.111947
H108  H     H_    0.276674 0.657249 0.402449 0.133831
H109  H     H_    0.332274 0.625991 0.334112 0.136701
H110  H     H_    0.446316 0.633344 0.330101 0.124907
H111  H     H_    0.504885 0.673558 0.393502 0.122331
C267  C     C_R   0.689585 0.562725 0.429127 0.156457
C268  C     C_R   0.681289 0.626594 0.426821 -0.156208
C269  C     C_R   0.658185 0.652742 0.388445 -0.136256
C270  C     C_R   0.642334 0.615579 0.352491 -0.110004
C271  C     C_R   0.651033 0.552083 0.354410 -0.128149
C272  C     C_R   0.675431 0.525901 0.392316 -0.084940
H112  H     H_    0.694742 0.656238 0.453903 0.106632
H113  H     H_    0.653854 0.701910 0.386154 0.134777
H114  H     H_    0.624295 0.636117 0.322914 0.134323
H115  H     H_    0.639761 0.523265 0.326340 0.129282
H116  H     H_    0.683693 0.476992 0.393131 0.123126
C273  C     C_R   0.574022 0.685852 0.563528 0.158818
C274  C     C_R   0.623979 0.648148 0.551975 -0.131048
C275  C     C_R   0.654840 0.615451 0.584455 -0.118269
C276  C     C_R   0.636001 0.620215 0.628603 -0.106065
C277  C     C_R   0.587013 0.658538 0.640423 -0.135541
C278  C     C_R   0.556167 0.691409 0.608055 -0.120728
H117  H     H_    0.637947 0.643156 0.517872 0.093763
H118  H     H_    0.692823 0.585857 0.575271 0.126861
H119  H     H_    0.659066 0.594084 0.653705 0.116294
H120  H     H_    0.572592 0.662372 0.674622 0.125971
H121  H     H_    0.517811 0.720459 0.617529 0.105207
C279  C     C_R   0.314731 0.569220 0.567472 0.150684
C280  C     C_R   0.350887 0.620807 0.556613 -0.131305
C281  C     C_R   0.385979 0.650533 0.588782 -0.116555
C282  C     C_R   0.384838 0.629247 0.632205 -0.117602
C283  C     C_R   0.348236 0.578388 0.643469 -0.122642
C284  C     C_R   0.313442 0.548305 0.611208 -0.104949
H122  H     H_    0.353538 0.636412 0.523020 0.096704
H123  H     H_    0.414825 0.689358 0.579713 0.125291
H124  H     H_    0.412627 0.651771 0.657062 0.118291
H125  H     H_    0.347448 0.561768 0.677056 0.143399
H126  H     H_    0.286484 0.508144 0.620086 0.129898
C285  C     C_R   0.403560 0.315749 0.546510 0.132913
C286  C     C_R   0.347477 0.318308 0.524213 -0.175727
C287  C     C_R   0.297447 0.349556 0.542686 -0.137480
C288  C     C_R   0.302923 0.377977 0.583833 -0.092879
C289  C     C_R   0.358314 0.374366 0.606941 -0.122252
C290  C     C_R   0.408522 0.342737 0.588536 -0.084639
H127  H     H_    0.342770 0.295104 0.492803 0.110253
H128  H     H_    0.254516 0.351815 0.525080 0.117989
H129  H     H_    0.263976 0.402396 0.597636 0.118286
H130  H     H_    0.362315 0.396061 0.639025 0.121135
H131  H     H_    0.451218 0.339838 0.606619 0.115036
C291  C     C_R   0.684076 0.429194 0.566755 0.156198
C292  C     C_R   0.641648 0.381681 0.558114 -0.108581
C293  C     C_R   0.608920 0.353767 0.592618 -0.126973
C294  C     C_R   0.618864 0.372551 0.636153 -0.128572
C295  C     C_R   0.661704 0.419185 0.645182 -0.133447
C296  C     C_R   0.694137 0.447501 0.610663 -0.127148
H132  H     H_    0.632261 0.368031 0.524680 0.095202
H133  H     H_    0.575195 0.318236 0.585418 0.125929
H134  H     H_    0.593156 0.351297 0.662884 0.119659
H135  H     H_    0.669405 0.433772 0.678890 0.125914
H136  H     H_    0.726651 0.484077 0.618048 0.105901
C297  C     C_R   0.074465 0.812973 0.933711 0.144075
C298  C     C_R   0.138933 0.819798 0.935831 -0.162828
C299  C     C_R   0.172128 0.843764 0.899968 -0.133310
C300  C     C_R   0.141389 0.860416 0.861598 -0.117434
C301  C     C_R   0.077436 0.853078 0.859004 -0.127210
C302  C     C_R   0.044156 0.828825 0.894695 -0.073007
H137  H     H_    0.163747 0.804546 0.964465 0.108826
H138  H     H_    0.221768 0.848817 0.901716 0.134060
H139  H     H_    0.167151 0.878748 0.833791 0.139704
H140  H     H_    0.053726 0.865481 0.829146 0.132597
H141  H     H_    0.994841 0.821762 0.891897 0.124037
C303  C     C_R   0.813988 0.925885 0.933776 0.148454
C304  C     C_R   0.820471 0.861776 0.936938 -0.170460
C305  C     C_R   0.848837 0.828585 0.902754 -0.126646
C306  C     C_R   0.869355 0.858874 0.864718 -0.109772
C307  C     C_R   0.861095 0.922251 0.860645 -0.131117
C308  C     C_R   0.832887 0.955541 0.894785 -0.076116
H142  H     H_    0.802313 0.837313 0.965272 0.108145
H143  H     H_    0.854233 0.779298 0.905507 0.130909
H144  H     H_    0.890961 0.833208 0.838136 0.136393
H145  H     H_    0.876204 0.945540 0.830925 0.128316
H146  H     H_    0.825843 0.004452 0.891037 0.123538
C309  C     C_R   0.922863 0.185168 0.936673 0.146525
C310  C     C_R   0.858610 0.177343 0.940941 -0.168259
C311  C     C_R   0.825058 0.149143 0.907157 -0.121895
C312  C     C_R   0.855051 0.129970 0.868476 -0.111578
C313  C     C_R   0.918589 0.139096 0.863432 -0.148724
C314  C     C_R   0.952299 0.167143 0.897147 -0.088525
H147  H     H_    0.834267 0.194283 0.969834 0.109337
H148  H     H_    0.775715 0.142774 0.910722 0.128109
H149  H     H_    0.829047 0.108486 0.842233 0.129414
H150  H     H_    0.941697 0.124696 0.833305 0.123072
H151  H     H_    0.001460 0.174417 0.892676 0.118410
C315  C     C_R   0.189718 0.060385 0.927597 0.157263
C316  C     C_R   0.181542 0.124161 0.923930 -0.157119
C317  C     C_R   0.156884 0.148657 0.885466 -0.134584
C318  C     C_R   0.140181 0.109965 0.850545 -0.109275
C319  C     C_R   0.149405 0.046639 0.853599 -0.125339
C320  C     C_R   0.174864 0.022082 0.891708 -0.083300
H152  H     H_    0.195987 0.154979 0.950048 0.106674
H153  H     H_    0.151758 0.197707 0.882316 0.133996
H154  H     H_    0.121033 0.129180 0.820871 0.133424
H155  H     H_    0.137501 0.016658 0.826294 0.129284
H156  H     H_    0.183258 0.973256 0.893453 0.122932
C321  C     C_R   0.078285 0.185567 0.061185 0.157448
C322  C     C_R   0.128675 0.149894 0.047359 -0.135625
C323  C     C_R   0.165539 0.120772 0.078384 -0.123780
C324  C     C_R   0.151787 0.126482 0.123364 -0.093421
C325  C     C_R   0.101554 0.161767 0.137397 -0.128767
C326  C     C_R   0.065001 0.191420 0.106477 -0.125176
H157  H     H_    0.139111 0.144728 0.012698 0.096044
H158  H     H_    0.204652 0.093697 0.067586 0.125872
H159  H     H_    0.179990 0.103620 0.147372 0.124004
H160  H     H_    0.091032 0.166278 0.172248 0.130607
H161  H     H_    0.026398 0.218937 0.117738 0.106924
C327  C     C_R   0.814143 0.069750 0.067236 0.146300
C328  C     C_R   0.854868 0.118437 0.057757 -0.112288
C329  C     C_R   0.887858 0.147165 0.091488 -0.120399
C330  C     C_R   0.879847 0.128021 0.135122 -0.127416
C331  C     C_R   0.838680 0.080137 0.144995 -0.114885
C332  C     C_R   0.806085 0.050948 0.111188 -0.119962
H162  H     H_    0.862969 0.132202 0.024175 0.097565
H163  H     H_    0.920385 0.183513 0.083523 0.127304
H164  H     H_    0.905848 0.149864 0.161242 0.122626
H165  H     H_    0.832558 0.065143 0.178754 0.146477
H166  H     H_    0.775293 0.013122 0.119084 0.132227
C333  C     C_R   0.924941 0.814750 0.064843 0.156158
C334  C     C_R   0.876375 0.853904 0.053896 -0.118790
C335  C     C_R   0.841354 0.882639 0.086971 -0.119904
C336  C     C_R   0.855114 0.873080 0.131305 -0.101525
C337  C     C_R   0.903632 0.834447 0.142580 -0.130023
C338  C     C_R   0.938331 0.805233 0.109543 -0.132339
H167  H     H_    0.866351 0.862627 0.019859 0.096424
H168  H     H_    0.803726 0.912452 0.078211 0.123904
H169  H     H_    0.828295 0.895636 0.156918 0.132718
H170  H     H_    0.914250 0.826975 0.176928 0.131770
H171  H     H_    0.975508 0.775080 0.118729 0.108579
C339  C     C_R   0.183782 0.929358 0.066186 0.151295
C340  C     C_R   0.144677 0.879540 0.056476 -0.122684
C341  C     C_R   0.109845 0.851634 0.089905 -0.117009
C342  C     C_R   0.114368 0.872777 0.133404 -0.121960
C343  C     C_R   0.154025 0.921749 0.143488 -0.119739
C344  C     C_R   0.188510 0.950116 0.110001 -0.108406
H172  H     H_    0.139504 0.864003 0.022920 0.095408
H173  H     H_    0.078620 0.814325 0.081791 0.128181
H174  H     H_    0.086855 0.851605 0.159252 0.121803
H175  H     H_    0.157452 0.938250 0.177140 0.142557
H176  H     H_    0.218012 0.988920 0.117980 0.121123
C345  C     C_R   0.564037 0.097856 0.863917 0.134664
C346  C     C_R   0.609999 0.094055 0.896147 -0.058478
C347  C     C_R   0.633618 0.147365 0.915870 -0.115935
C348  C     C_R   0.611905 0.204992 0.903475 -0.111387
C349  C     C_R   0.566364 0.209329 0.871381 -0.115035
C350  C     C_R   0.542554 0.156046 0.851608 -0.108562
H177  H     H_    0.626409 0.049950 0.906655 0.101330
H178  H     H_    0.668516 0.143892 0.940913 0.113934
H179  H     H_    0.630263 0.246249 0.918805 0.117189
H180  H     H_    0.549503 0.253984 0.861804 0.119735
H181  H     H_    0.507346 0.160021 0.826722 0.115022
C351  C     C_R   0.084539 0.420971 0.865197 0.102452
C352  C     C_R   0.061083 0.361145 0.860331 -0.147944
C353  C     C_R   0.086092 0.312735 0.884231 -0.123873
C354  C     C_R   0.135885 0.323470 0.912234 -0.103164
C355  C     C_R   0.161634 0.382388 0.915602 -0.128387
C356  C     C_R   0.136526 0.430938 0.891887 -0.025134
H182  H     H_    0.022957 0.352399 0.838318 0.122661
H183  H     H_    0.066477 0.267041 0.881214 0.113187
H184  H     H_    0.154824 0.286128 0.931083 0.109034
H185  H     H_    0.200664 0.390551 0.936884 0.113863
H186  H     H_    0.156516 0.476565 0.895045 0.146429
C357  C     C_R   0.436890 0.900709 0.864212 0.133060
C358  C     C_R   0.390444 0.903995 0.896902 -0.057313
C359  C     C_R   0.366483 0.850384 0.915891 -0.119070
C360  C     C_R   0.388766 0.792985 0.902618 -0.109957
C361  C     C_R   0.435064 0.789171 0.870271 -0.111600
C362  C     C_R   0.458921 0.842739 0.851019 -0.108076
H187  H     H_    0.373515 0.947848 0.908124 0.100397
H188  H     H_    0.330696 0.853445 0.940920 0.114962
H189  H     H_    0.370177 0.751493 0.917403 0.118679
H190  H     H_    0.452309 0.744688 0.859973 0.121473
H191  H     H_    0.494422 0.839148 0.825718 0.116277
C363  C     C_R   0.909157 0.568001 0.863205 0.126904
C364  C     C_R   0.909942 0.612861 0.896843 -0.054623
C365  C     C_R   0.854846 0.632855 0.916314 -0.115865
C366  C     C_R   0.798526 0.608138 0.902512 -0.112148
C367  C     C_R   0.797267 0.563296 0.869263 -0.112817
C368  C     C_R   0.852314 0.543271 0.849634 -0.110645
H192  H     H_    0.953034 0.631598 0.908394 0.102359
H193  H     H_    0.855894 0.667291 0.942239 0.118238
H194  H     H_    0.755884 0.623592 0.917671 0.116473
H195  H     H_    0.753621 0.544025 0.858697 0.118205
H196  H     H_    0.850752 0.508440 0.823945 0.115875
C369  C     C_R   0.552653 0.895721 0.137340 0.139014
C370  C     C_R   0.599246 0.890839 0.104780 -0.039743
C371  C     C_R   0.616910 0.833189 0.088611 -0.124844
C372  C     C_R   0.587993 0.779912 0.104333 -0.107618
C373  C     C_R   0.541648 0.784161 0.136559 -0.117232
C374  C     C_R   0.524354 0.841667 0.153226 -0.137985
H197  H     H_    0.622071 0.931234 0.091983 0.107615
H198  H     H_    0.653387 0.829781 0.064142 0.109872
H199  H     H_    0.601734 0.735327 0.091713 0.116315
H200  H     H_    0.519436 0.742846 0.148910 0.122720
H201  H     H_    0.489054 0.844107 0.178740 0.119321
C375  C     C_R   0.078952 0.586178 0.136061 0.090043
C376  C     C_R   0.063133 0.646680 0.147800 -0.174112
C377  C     C_R   0.096163 0.696495 0.130548 -0.098785
C378  C     C_R   0.145708 0.686702 0.101564 -0.104638
C379  C     C_R   0.163271 0.626754 0.090743 -0.161506
C380  C     C_R   0.130877 0.576661 0.108509 -0.024211
H202  H     H_    0.025054 0.655186 0.170436 0.134091
H203  H     H_    0.083508 0.742550 0.140232 0.116873
H204  H     H_    0.171212 0.725460 0.088170 0.128159
H205  H     H_    0.202695 0.619069 0.069233 0.112067
H206  H     H_    0.147330 0.530637 0.101708 0.156176
C381  C     C_R   0.447380 0.105282 0.138724 0.137820
C382  C     C_R   0.401189 0.109068 0.106570 -0.040574
C383  C     C_R   0.382519 0.166229 0.090899 -0.124363
C384  C     C_R   0.409825 0.220194 0.106881 -0.106725
C385  C     C_R   0.455573 0.217101 0.138849 -0.116755
C386  C     C_R   0.473942 0.160056 0.154942 -0.140378
H207  H     H_    0.379680 0.068159 0.093533 0.104689
H208  H     H_    0.346567 0.168704 0.066569 0.110973
H209  H     H_    0.395299 0.264407 0.094664 0.117236
H210  H     H_    0.476496 0.258947 0.151438 0.123005
H211  H     H_    0.508706 0.158552 0.180297 0.119613
C387  C     C_R   0.919156 0.414549 0.136499 0.090356
C388  C     C_R   0.934395 0.354033 0.147828 -0.173297
C389  C     C_R   0.900928 0.304325 0.130965 -0.095771
C390  C     C_R   0.851287 0.314285 0.102988 -0.107030
C391  C     C_R   0.834382 0.374305 0.092537 -0.163883
C392  C     C_R   0.867530 0.424300 0.109651 -0.024681
H212  H     H_    0.972322 0.345436 0.169898 0.132076
H213  H     H_    0.913263 0.258254 0.140245 0.116465
H214  H     H_    0.825297 0.275600 0.090022 0.128176
H215  H     H_    0.794935 0.382142 0.071777 0.113231
H216  H     H_    0.851718 0.470436 0.103105 0.155248
C393  C     C_R   0.059417 0.600968 0.363564 0.139264
C394  C     C_R   0.106586 0.599981 0.395032 -0.061763
C395  C     C_R   0.128561 0.654746 0.413659 -0.119812
C396  C     C_R   0.103410 0.710974 0.401349 -0.106969
C397  C     C_R   0.056226 0.712473 0.370333 -0.113832
C398  C     C_R   0.034410 0.657776 0.351391 -0.102873
H217  H     H_    0.125441 0.556990 0.405671 0.103930
H218  H     H_    0.165038 0.653520 0.437656 0.108276
H219  H     H_    0.120433 0.753352 0.415874 0.117781
H220  H     H_    0.036692 0.756040 0.360832 0.120060
H221  H     H_    0.998103 0.659603 0.327171 0.115338
C399  C     C_R   0.581969 0.919745 0.365052 0.112012
C400  C     C_R   0.560693 0.858931 0.362466 -0.139465
C401  C     C_R   0.587882 0.813192 0.387695 -0.131931
C402  C     C_R   0.638585 0.827348 0.414104 -0.095587
C403  C     C_R   0.662823 0.887079 0.414611 -0.123683
C404  C     C_R   0.635018 0.933131 0.389919 -0.035295
H222  H     H_    0.522424 0.847468 0.341233 0.123080
H223  H     H_    0.569198 0.766965 0.386907 0.113974
H224  H     H_    0.659426 0.792016 0.433873 0.108675
H225  H     H_    0.702600 0.897884 0.434583 0.112223
H226  H     H_    0.653545 0.979529 0.391135 0.146795
C405  C     C_R   0.933105 0.403346 0.364793 0.129723
C406  C     C_R   0.887923 0.409174 0.398212 -0.053270
C407  C     C_R   0.863062 0.357000 0.418660 -0.122413
C408  C     C_R   0.882354 0.298462 0.405545 -0.115276
C409  C     C_R   0.926752 0.292076 0.372063 -0.109742
C410  C     C_R   0.952012 0.344228 0.351718 -0.110727
H227  H     H_    0.873005 0.453979 0.409037 0.098739
H228  H     H_    0.829062 0.362035 0.444826 0.121683
H229  H     H_    0.862954 0.258078 0.421355 0.121244
H230  H     H_    0.941616 0.246697 0.361860 0.123788
H231  H     H_    0.986195 0.338640 0.325702 0.115937
C411  C     C_R   0.422239 0.086813 0.366119 0.093236
C412  C     C_R   0.440782 0.148042 0.359349 -0.156530
C413  C     C_R   0.410792 0.196016 0.381431 -0.107622
C414  C     C_R   0.360288 0.183553 0.409060 -0.113205
C415  C     C_R   0.339178 0.123103 0.414120 -0.147847
C416  C     C_R   0.369543 0.074938 0.392455 -0.022134
H232  H     H_    0.478994 0.158495 0.337225 0.127528
H233  H     H_    0.426646 0.242828 0.376895 0.114663
H234  H     H_    0.336988 0.220760 0.426077 0.104526
H235  H     H_    0.299206 0.113550 0.434756 0.109030
H236  H     H_    0.351789 0.028479 0.395947 0.155615
C417  C     C_R   0.060066 0.402861 0.638530 0.128150
C418  C     C_R   0.104222 0.397367 0.604360 -0.050521
C419  C     C_R   0.119117 0.339544 0.587078 -0.111248
C420  C     C_R   0.090303 0.286716 0.603675 -0.104040
C421  C     C_R   0.046554 0.291602 0.637677 -0.103998
C422  C     C_R   0.031646 0.349314 0.655172 -0.123136
H237  H     H_    0.126267 0.437506 0.590513 0.099014
H238  H     H_    0.152895 0.335691 0.560735 0.107014
H239  H     H_    0.101894 0.241999 0.590193 0.118138
H240  H     H_    0.024310 0.250644 0.650595 0.120959
H241  H     H_    0.998055 0.352333 0.681810 0.115054
C423  C     C_R   0.579764 0.085634 0.636109 0.105366
C424  C     C_R   0.564506 0.146010 0.648315 -0.161042
C425  C     C_R   0.598081 0.195873 0.631623 -0.105739
C426  C     C_R   0.647809 0.186121 0.602824 -0.104950
C427  C     C_R   0.664756 0.126179 0.591411 -0.157127
C428  C     C_R   0.631653 0.076070 0.608521 -0.030589
H242  H     H_    0.526931 0.154353 0.671408 0.125929
H243  H     H_    0.585739 0.241924 0.641618 0.118348
H244  H     H_    0.673884 0.224915 0.590038 0.125482
H245  H     H_    0.704277 0.118494 0.569992 0.115125
H246  H     H_    0.647708 0.030007 0.601361 0.156966
C429  C     C_R   0.923095 0.586612 0.637279 0.091375
C430  C     C_R   0.862377 0.569613 0.648635 -0.173336
C431  C     C_R   0.812498 0.600563 0.630608 -0.095370
C432  C     C_R   0.822584 0.649361 0.601569 -0.110742
C433  C     C_R   0.882783 0.668025 0.591141 -0.158450
C434  C     C_R   0.932877 0.637504 0.609408 -0.015077
H247  H     H_    0.853764 0.532025 0.671253 0.128958
H248  H     H_    0.766108 0.586771 0.639458 0.113539
H249  H     H_    0.783813 0.673239 0.587622 0.126192
H250  H     H_    0.890637 0.706548 0.569274 0.113520
H251  H     H_    0.979233 0.653791 0.602176 0.151591
C435  C     C_R   0.416949 0.916948 0.636383 0.086013
C436  C     C_R   0.430857 0.855882 0.647128 -0.177475
C437  C     C_R   0.395689 0.807288 0.630363 -0.092319
C438  C     C_R   0.345863 0.818903 0.602910 -0.106243
C439  C     C_R   0.330425 0.879484 0.592920 -0.167224
C440  C     C_R   0.365115 0.928386 0.610089 -0.019706
H252  H     H_    0.468890 0.846009 0.668817 0.132561
H253  H     H_    0.406780 0.760781 0.639338 0.118171
H254  H     H_    0.318636 0.781053 0.589979 0.128104
H255  H     H_    0.290926 0.888602 0.572492 0.114408
H256  H     H_    0.350499 0.975042 0.603930 0.156807

loop_
_geom_bond_atom_site_label_1
_geom_bond_atom_site_label_2
_ccdc_geom_bond_type
C386  H211  S    
C29   C133  A    
C261  C262  A    
C360  C361  A    
C37   C69   A    
C223  H75   S    
C24   C27   A    
C7    C55   S    
C21   C26   A    
C413  C414  A    
C8    C56   S    
C238  H87   S    
C339  C344  A    
C105  C131  A    
C70   C279  S    
C407  C408  A    
C427  C428  A    
C106  C132  A    
C109  C119  A    
C376  C377  A    
C297  C302  A    
C38   C183  S    
C264  H109  S    
C23   C127  A    
C166  C167  A    
C329  H163  S    
C370  C371  A    
C323  H158  S    
C10   C124  A    
C199  H55   S    
C207  C212  A    
C6    O10   A    
C85   C96   S    
O3    Zn3   S    
C98   C114  A    
C12   C126  A    
C274  H117  S    
C87   C94   S    
C90   O40   A    
C270  H114  S    
O32   Zn6   S    
C214  C215  A    
C161  C162  A    
C94   O42   A    
C137  O50   S    
C395  H218  S    
C207  C208  A    
O16   Zn6   S    
C104  C116  A    
C225  C226  A    
C93   O45   A    
C393  C398  A    
C363  C368  A    
C104  C387  S    
C412  C413  A    
C300  C301  A    
C42   C207  S    
C403  H225  S    
C9    C121  A    
C400  H222  S    
C157  H20   S    
C17   C137  S    
C329  C330  A    
C84   C91   S    
C333  C338  A    
C239  H88   S    
C26   C130  A    
C107  C129  A    
C99   C121  A    
C36   C171  S    
C275  H118  S    
C165  C170  A    
C88   C95   S    
C287  H128  S    
C73   C297  S    
C430  H247  S    
C106  C118  A    
C17   C30   A    
C34   C159  S    
C310  H147  S    
C440  H256  S    
C6    C54   S    
C19   C32   A    
C298  H137  S    
C348  C349  A    
C100  C363  S    
C290  H131  S    
C369  C370  A    
C384  H209  S    
C141  O58   S    
C43   C75   A    
C299  H138  S    
C77   C87   A    
C269  H113  S    
C98   C351  S    
C192  C193  A    
C343  H175  S    
C265  C266  A    
C2    O2    A    
O76   H14   S    
C197  C198  A    
C292  H132  S    
C214  H67   S    
C295  H135  S    
C112  C120  A    
C203  H58   S    
C331  C332  A    
O33   Zn9   S    
C288  C289  A    
C285  C290  A    
C302  H141  S    
C183  C184  A    
C244  C245  A    
C228  H79   S    
C417  C422  A    
C334  H167  S    
C108  C118  A    
C403  C404  A    
C66   C82   A    
C108  C411  S    
C378  C379  A    
C181  H40   S    
C25   C145  S    
C204  C205  A    
C421  C422  A    
C186  H44   S    
O47   Zn12  S    
C210  C211  A    
C328  H162  S    
C189  C194  A    
C96   O44   A    
C167  H28   S    
C44   C219  S    
C72   C84   A    
C206  H61   S    
C229  H80   S    
C18   C122  A    
C185  H43   S    
C202  H57   S    
C317  C318  A    
C201  C206  A    
C324  H159  S    
O38   Zn10  S    
C35   C51   A    
C359  C360  A    
C101  C115  A    
C301  H140  S    
C319  C320  A    
C372  H199  S    
C220  C221  A    
C102  C375  S    
O26   Zn6   S    
C286  C287  A    
C99   C357  S    
C258  H104  S    
C14   C130  A    
C304  H142  S    
C139  O53   D    
C315  C316  A    
O41   Zn11  S    
C43   C213  S    
C306  H144  S    
C286  H127  S    
C298  C299  A    
C156  H19   S    
C41   C201  S    
C414  H234  S    
C112  C134  A    
C293  C294  A    
C10   C122  A    
C4    O8    A    
O34   Zn9   S    
C217  C218  A    
C36   C68   A    
C295  C296  A    
C12   C128  A    
C304  C305  A    
O31   Zn7   S    
C349  C350  A    
O13   Zn5   S    
C160  H22   S    
C5    O15   A    
C91   O35   A    
C367  H195  S    
C238  C239  A    
C162  H24   S    
C142  O59   D    
C89   O33   A    
C312  H149  S    
C80   C88   A    
O19   Zn3   S    
C373  C374  A    
C255  C256  A    
C95   O47   A    
C271  C272  A    
C330  H164  S    
C92   O36   A    
C315  C320  A    
C58   C119  S    
C9    C123  A    
C309  C314  A    
C18   C138  S    
C216  H69   S    
C202  C203  A    
C70   C82   A    
C367  C368  A    
C388  C389  A    
C174  C175  A    
C110  C423  S    
C153  C158  A    
C406  C407  A    
C282  C283  A    
C145  O66   S    
C213  C218  A    
C406  H227  S    
O37   Zn10  S    
C39   C71   A    
C252  H99   S    
C152  O80   S    
C434  H251  S    
C392  H216  S    
C363  C364  A    
C376  H202  S    
C97   C345  S    
C177  C182  A    
C28   C148  S    
C208  H62   S    
C67   C83   A    
C342  C343  A    
C179  H38   S    
C109  C135  A    
C37   C177  S    
C419  H238  S    
C110  C136  A    
C432  H249  S    
C3    O5    A    
C237  C238  A    
O35   Zn9   S    
C16   C134  A    
C34   C66   A    
C45   C225  S    
C387  C388  A    
C321  C326  A    
C246  C247  A    
C423  C424  A    
C98   C124  A    
O18   Zn2   S    
C19   C123  A    
C150  O75   D    
C143  O61   D    
C82   C89   S    
C326  H161  S    
C170  H31   S    
C48   C243  S    
C375  C376  A    
C8    O16   A    
O21   Zn1   S    
C102  C128  A    
C267  C272  A    
C151  O77   D    
C107  C405  S    
C209  C210  A    
C354  C355  A    
C236  H86   S    
C211  C212  A    
C424  H242  S    
C111  C119  A    
C152  O79   D    
O23   Zn3   S    
C277  H120  S    
C44   C76   A    
O45   Zn12  S    
C220  H72   S    
C411  C412  A    
C2    C50   S    
C357  C358  A    
C391  C392  A    
C81   C92   S    
C359  H188  S    
C337  C338  A    
O11   Zn7   S    
C156  C157  A    
C30   C134  A    
C22   C25   A    
C332  H166  S    
C282  H124  S    
C435  C436  A    
C77   C321  S    
C146  O67   D    
C108  C130  A    
C380  H206  S    
C36   C52   A    
O80   H16   S    
C63   O31   A    
C196  H52   S    
C340  H172  S    
C297  C298  A    
C138  O52   S    
C242  H91   S    
C328  C329  A    
C333  C334  A    
C345  C346  A    
C76   C315  S    
C276  C277  A    
C341  H173  S    
C144  O63   D    
C191  H48   S    
C7    O11   A    
C350  H181  S    
C139  O54   S    
C382  H207  S    
C5    O9    A    
C423  C428  A    
C161  H23   S    
C23   C143  S    
C260  H106  S    
C100  C114  A    
C269  C270  A    
C180  H39   S    
C154  H17   S    
C237  C242  A    
C93   O41   A    
C427  H245  S    
C159  C160  A    
C185  C186  A    
C92   O38   A    
C327  C332  A    
C234  H84   S    
C74   C86   A    
C240  H89   S    
C69   C273  S    
C28   C132  A    
C211  H65   S    
C11   C127  A    
C356  H186  S    
C72   C291  S    
C277  C278  A    
C86   C93   S    
C227  H78   S    
C322  H157  S    
C275  C276  A    
C399  C404  A    
C35   C67   A    
C174  H34   S    
C73   C85   A    
C430  C431  A    
C273  C274  A    
C413  H233  S    
C18   C29   A    
C65   C249  S    
C23   C28   A    
C437  C438  A    
C391  H215  S    
C41   C53   A    
C352  C353  A    
C58   O20   A    
C346  C347  A    
C57   C120  S    
C212  H66   S    
C43   C55   A    
C39   C49   A    
C22   C142  S    
C336  C337  A    
C59   C118  S    
C192  H49   S    
C265  H110  S    
C2    O6    A    
C21   C141  S    
C3    O3    A    
C338  H171  S    
C292  C293  A    
C16   C136  A    
C219  C220  A    
C1    O1    A    
C245  C246  A    
C168  H29   S    
C75   C87   A    
C345  C350  A    
C268  C269  A    
C235  H85   S    
C40   C72   A    
C233  C234  A    
C377  H203  S    
C362  H191  S    
C439  H255  S    
C335  H168  S    
C190  C191  A    
O22   Zn4   S    
C194  H51   S    
C34   C50   A    
C426  C427  A    
C154  C155  A    
C187  C188  A    
C396  H219  S    
C402  H224  S    
C178  H37   S    
C30   C150  S    
C47   C53   A    
O43   Zn11  S    
C195  C196  A    
C371  H198  S    
C248  H96   S    
C171  C176  A    
C97   C123  A    
C78   C327  S    
C221  H73   S    
C42   C54   A    
C289  H130  S    
C404  H226  S    
C235  C236  A    
C144  O64   S    
C35   C165  S    
C337  H170  S    
C383  H208  S    
C175  H35   S    
C137  O49   D    
C103  C125  A    
C20   C124  A    
C41   C73   A    
C370  H197  S    
C426  H244  S    
O50   H1    S    
O46   Zn12  S    
C163  C164  A    
C45   C55   A    
C318  C319  A    
C197  H53   S    
C306  C307  A    
C24   C128  A    
C13   C129  A    
C169  H30   S    
C45   C77   A    
C317  H153  S    
C293  H133  S    
C149  O73   D    
C247  H95   S    
C249  C250  A    
C351  C356  A    
C24   C144  S    
C407  H228  S    
C71   C81   A    
C245  H93   S    
O12   Zn8   S    
C225  C230  A    
C38   C70   A    
C103  C381  S    
C153  C154  A    
C309  C310  A    
C89   O37   A    
C164  H26   S    
C264  C265  A    
C365  H193  S    
C284  H126  S    
C353  C354  A    
O68   H10   S    
C271  H115  S    
C205  C206  A    
C141  O57   D    
C397  H220  S    
C101  C369  S    
C305  C306  A    
C266  H111  S    
C313  C314  A    
C250  C251  A    
C307  C308  A    
C11   C125  A    
O70   H11   S    
C388  H212  S    
C226  H77   S    
C171  C172  A    
C243  C244  A    
C33   C49   A    
C336  H169  S    
C33   C153  S    
C288  H129  S    
C355  C356  A    
C279  C280  A    
C167  C168  A    
C383  C384  A    
C311  H148  S    
C410  H231  S    
C64   O30   A    
C58   O18   A    
C272  H116  S    
C429  C434  A    
C59   O23   A    
C62   O28   A    
C241  C242  A    
O29   Zn5   S    
C419  C420  A    
C361  H190  S    
O24   Zn2   S    
C387  C392  A    
C398  H221  S    
C294  C295  A    
C182  H41   S    
C416  H236  S    
C314  H151  S    
C349  H180  S    
C323  C324  A    
C424  C425  A    
C105  C117  A    
O36   Zn9   S    
C8    O12   A    
C94   O48   A    
C176  H36   S    
C239  C240  A    
O1    Zn1   S    
C209  H63   S    
O20   Zn4   S    
C201  C202  A    
C364  H192  S    
C42   C74   A    
C371  C372  A    
C67   C261  S    
C401  C402  A    
C31   C151  S    
C369  C374  A    
C431  H248  S    
O4    Zn4   S    
C60   O24   A    
C253  H100  S    
C228  C229  A    
O62   H7    S    
C140  O55   D    
C433  H250  S    
C355  H185  S    
C268  H112  S    
O60   H6    S    
C32   C136  A    
C3    C51   S    
C218  H71   S    
C334  C335  A    
C321  C322  A    
C425  H243  S    
C322  C323  A    
C263  C264  A    
C344  H176  S    
C57   O17   A    
C308  H146  S    
C395  C396  A    
C324  C325  A    
C68   C84   A    
C279  C284  A    
C46   C78   A    
C251  C252  A    
C311  C312  A    
C436  H252  S    
C44   C56   A    
C65   C81   A    
C196  C197  A    
C71   C285  S    
O74   H13   S    
C46   C54   A    
C61   C116  S    
C13   C131  A    
C172  H32   S    
C168  C169  A    
C159  C164  A    
C187  H45   S    
C276  H119  S    
C313  H150  S    
O44   Zn11  S    
C79   C333  S    
C280  H122  S    
C390  H214  S    
C17   C121  A    
C382  C383  A    
C183  C188  A    
C428  H246  S    
C233  H83   S    
C149  O74   S    
C377  C378  A    
O2    Zn2   S    
C418  C419  A    
C425  C426  A    
C21   C125  A    
C112  C435  S    
C381  C382  A    
C389  C390  A    
C27   C147  S    
C106  C399  S    
C222  C223  A    
C208  C209  A    
C366  C367  A    
C179  C180  A    
C32   C152  S    
O9    Zn5   S    
C408  H229  S    
C199  C200  A    
C29   C149  S    
C230  H81   S    
C9    C16   A    
C46   C231  S    
C319  H155  S    
C96   O46   A    
C213  C214  A    
C99   C113  A    
C227  C228  A    
C381  C386  A    
O6    Zn4   S    
C244  H92   S    
C261  C266  A    
C273  C278  A    
C158  H21   S    
C155  H18   S    
C223  C224  A    
C189  C190  A    
C64   O32   A    
C193  C194  A    
O48   Zn12  S    
C251  H98   S    
C379  C380  A    
C59   O21   A    
C339  C340  A    
C62   O26   A    
C411  C416  A    
C14   C132  A    
C281  H123  S    
C341  C342  A    
C299  C300  A    
C79   C85   A    
C358  H187  S    
C291  C292  A    
C316  H152  S    
O30   Zn8   S    
O58   H5    S    
C80   C339  S    
C343  C344  A    
C166  H27   S    
C186  C187  A    
C6    O14   A    
C62   C115  S    
C256  C257  A    
C262  C263  A    
C397  C398  A    
C384  C385  A    
C347  C348  A    
O54   H3    S    
C439  C440  A    
C385  C386  A    
O40   Zn10  S    
C259  H105  S    
C229  C230  A    
C107  C117  A    
C75   C309  S    
C256  H102  S    
C436  C437  A    
C402  C403  A    
C394  C395  A    
C27   C131  A    
C191  C192  A    
C103  C115  A    
C291  C296  A    
C47   C79   A    
C373  H200  S    
C25   C129  A    
C221  C222  A    
C335  C336  A    
C357  C362  A    
C33   C65   A    
C289  C290  A    
C409  C410  A    
O8    Zn2   S    
C181  C182  A    
C259  C260  A    
C57   O19   A    
C287  C288  A    
C145  O65   D    
C438  H254  S    
C4    C52   S    
C61   O25   A    
C263  H108  S    
C5    C53   S    
C310  C311  A    
C190  H47   S    
C60   O22   A    
C431  C432  A    
C432  C433  A    
C10   C15   A    
C232  H82   S    
C217  H70   S    
C348  H179  S    
C37   C51   A    
C11   C14   A    
C22   C126  A    
C15   C135  A    
C163  H25   S    
C109  C417  S    
C415  H235  S    
O78   H15   S    
C148  O71   D    
C157  C158  A    
C420  C421  A    
C320  H156  S    
C231  C236  A    
C254  H101  S    
O64   H8    S    
C247  C248  A    
C198  H54   S    
C101  C127  A    
C216  C217  A    
C63   C114  S    
O72   H12   S    
C374  H201  S    
C169  C170  A    
C399  C400  A    
C262  H107  S    
C172  C173  A    
C234  C235  A    
C347  H178  S    
C318  H154  S    
C417  C418  A    
C76   C88   A    
O39   Zn10  S    
C100  C122  A    
C353  H183  S    
C250  H97   S    
C365  C366  A    
C78   C86   A    
O15   Zn7   S    
C257  C258  A    
C385  H210  S    
C7    O13   A    
C204  H59   S    
C184  C185  A    
C390  C391  A    
C325  H160  S    
C438  C439  A    
C178  C179  A    
C243  C248  A    
C111  C429  S    
C296  H136  S    
C294  H134  S    
C226  C227  A    
C150  O76   S    
C327  C328  A    
C105  C393  S    
C278  H121  S    
C303  C304  A    
C270  C271  A    
O25   Zn5   S    
C224  H76   S    
C389  H213  S    
C110  C120  A    
C340  C341  A    
C151  O78   S    
C39   C189  S    
C412  H232  S    
C111  C133  A    
C408  C409  A    
C195  C200  A    
C40   C52   A    
C422  H241  S    
C274  C275  A    
C210  H64   S    
C258  C259  A    
C148  O72   S    
C420  H239  S    
C437  H253  S    
C215  H68   S    
O56   H4    S    
C331  H165  S    
C69   C83   A    
C393  C394  A    
C4    O4    A    
C368  H196  S    
C303  C308  A    
C316  C317  A    
C379  H205  S    
C63   O29   A    
C360  H189  S    
C90   O34   A    
C301  C302  A    
C414  C415  A    
C91   O39   A    
C346  H177  S    
C47   C237  S    
C255  C260  A    
C12   C13   A    
C200  H56   S    
C146  O68   S    
C74   C303  S    
C394  H217  S    
C26   C146  S    
C95   O43   A    
C162  C163  A    
C375  C380  A    
C415  C416  A    
C401  H223  S    
C147  O70   S    
C60   C117  S    
O5    Zn1   S    
C351  C352  A    
C97   C113  A    
C429  C430  A    
C433  C434  A    
C165  C166  A    
C180  C181  A    
C364  C365  A    
C240  C241  A    
C193  H50   S    
C231  C232  A    
C48   C56   A    
C83   C90   S    
C281  C282  A    
C173  C174  A    
C400  C401  A    
C64   C113  S    
C61   O27   A    
O7    Zn3   S    
C205  H60   S    
C352  H182  S    
C66   C255  S    
C307  H145  S    
O27   Zn7   S    
C249  C254  A    
C312  C313  A    
C15   C133  A    
C1    O7    A    
C142  O60   S    
C366  H194  S    
C68   C267  S    
O42   Zn11  S    
C38   C50   A    
C285  C286  A    
C280  C281  A    
C396  C397  A    
C48   C80   A    
C405  C406  A    
C155  C156  A    
C241  H90   S    
C409  H230  S    
C330  C331  A    
C143  O62   S    
C257  H103  S    
O28   Zn8   S    
C215  C216  A    
C173  H33   S    
C203  C204  A    
C253  C254  A    
C283  H125  S    
O17   Zn1   S    
C246  H94   S    
C342  H174  S    
C421  H240  S    
C283  C284  A    
C140  O56   S    
C188  H46   S    
C405  C410  A    
C232  C233  A    
C418  H237  S    
C325  C326  A    
C147  O69   D    
C267  C268  A    
C31   C135  A    
C102  C116  A    
C435  C440  A    
O14   Zn8   S    
C222  H74   S    
C40   C195  S    
C305  H143  S    
C372  C373  A    
C104  C126  A    
C138  O51   D    
C177  C178  A    
C20   C140  S    
C354  H184  S    
C175  C176  A    
O66   H9    S    
C19   C139  S    
C300  H139  S    
C198  C199  A    
C378  H204  S    
O10   Zn6   S    
O52   H2    S    
C252  C253  A    
C184  H42   S    
C1    C49   S    
C361  C362  A    
C219  C224  A    
C358  C359  A    
C20   C31   A    
C160  C161  A    
