data_mof_unit_17376.cif
_audit_creation_date              2013-03-05T16:12:34-0500
_audit_creation_method            fapswitch 2.2
_symmetry_space_group_name_H-M    P1
_symmetry_Int_Tables_number       1
_space_group_crystal_system       triclinic
_cell_length_a                    8.480654
_cell_length_b                    16.09893
_cell_length_c                    19.205799
_cell_angle_alpha                 112.162771
_cell_angle_beta                  92.309605
_cell_angle_gamma                 84.132571
_cell_volume                      2415.69497333

loop_
_atom_site_label
_atom_site_type_symbol
_atom_site_description
_atom_site_fract_x
_atom_site_fract_y
_atom_site_fract_z
_atom_type_partial_charge
P1    P     P_3+3 0.586140 0.411610 0.321630 0.474360
O1    O     O_2   0.405910 0.437000 0.315050 -0.341183
O2    O     O_3   0.650250 0.445090 0.405140 -0.424310
O3    O     O_3   0.110870 0.602570 0.387980 -0.389398
O4    O     O_2   0.261787 0.520669 0.254698 -0.404905
O5    O     O_3   0.594112 0.293957 0.289299 -0.557244
O6    O     O_3   0.093673 0.658098 0.252771 -0.612551
H1    H     H_    0.130958 0.757143 0.355851 -0.115346
C1    C     C_3   0.078346 0.815894 0.273058 -0.100572
H2    H     H_    0.192498 0.798304 0.243055 0.079869
P2    P     P_3+3 0.070040 0.709050 0.593050 0.450450
P3    P     P_3+3 0.489789 0.771603 0.478878 0.426332
O7    O     O_2   0.240060 0.720390 0.573650 -0.362753
O8    O     O_3   0.508300 0.651290 0.432440 -0.397508
O9    O     O_2   0.315376 0.809124 0.500374 -0.417451
O10   O     O_3   0.087208 0.731385 0.689630 -0.563995
O11   O     O_3   0.524264 0.814069 0.409284 -0.544045
C2    C     C_3   0.424908 0.782222 0.347272 0.377316
H3    H     H_    0.323845 0.833938 0.358089 0.070930
H4    H     H_    0.388555 0.714262 0.337413 0.129836
C3    C     C_3   0.508800 0.776824 0.276614 -0.901394
H5    H     H_    0.438997 0.742513 0.225629 0.205321
H6    H     H_    0.525961 0.845628 0.279930 0.301240
C4    C     C_3   0.569895 0.756937 0.689871 0.376186
H7    H     H_    0.692252 0.774832 0.689823 0.100575
H8    H     H_    0.521366 0.723352 0.632641 0.125976
C5    C     C_3   0.465786 0.844189 0.728354 -0.957557
H9    H     H_    0.511728 0.880913 0.785651 0.261334
H10   H     H_    0.465622 0.887743 0.695205 0.213565
H11   H     H_    0.342328 0.829535 0.732682 0.284783
Ba1   Ba    Ba6+2 0.334020 0.539200 0.472300 1.506843
C6    C     C_3   0.556162 0.266548 0.347135 0.412608
H12   H     H_    0.439123 0.299119 0.371555 0.100981
H13   H     H_    0.647920 0.283055 0.391923 0.137980
C7    C     C_3   0.551026 0.164817 0.313800 -0.901448
H14   H     H_    0.463074 0.146040 0.267340 0.278528
H15   H     H_    0.517115 0.140198 0.357016 0.215849
H16   H     H_    0.669603 0.131460 0.291500 0.267452
C8    C     C_3   0.152403 0.654536 0.701841 0.457732
H17   H     H_    0.269493 0.631315 0.674354 0.083451
H18   H     H_    0.072741 0.599714 0.680139 0.152568
C9    C     C_3   0.171850 0.678740 0.786174 -0.993834
H19   H     H_    0.259292 0.729326 0.808965 0.273304
H20   H     H_    0.213519 0.618105 0.798317 0.228225
H21   H     H_    0.056264 0.707038 0.814806 0.271480
P4    P     P_3+3 0.603540 0.588460 0.678390 0.455952
O12   O     O_2   0.783780 0.563030 0.685000 -0.360245
O13   O     O_3   0.539430 0.554980 0.594880 -0.425756
O14   O     O_3   0.078810 0.397510 0.612040 -0.379965
O15   O     O_3   0.572864 0.704158 0.732902 -0.561890
P5    P     P_3+3 0.695886 0.232997 0.546484 0.455371
O16   O     O_3   0.165590 0.389880 0.444220 -0.405205
O17   O     O_3   0.681380 0.348790 0.567580 -0.372941
O18   O     O_2   0.827708 0.188136 0.487103 -0.387439
O19   O     O_3   0.764885 0.212208 0.625999 -0.528183
Ba2   Ba    Ba6+2 0.855780 0.460880 0.527720 1.539675
P6    P     P_3+3 0.100589 0.568603 0.286261 0.421447
C10   C     C_3   0.051929 0.744941 0.306610 0.912235
H22   H     H_    0.083229 0.882750 0.319501 0.061799
O20   O     O_3   0.024090 0.610190 0.555810 -0.424787
C11   C     C_3   0.090769 0.277397 0.278127 0.398519
H23   H     H_    0.959883 0.285110 0.284846 0.099518
H24   H     H_    0.142601 0.343169 0.300663 0.114854
C12   C     C_3   0.128461 0.234412 0.194637 -0.933793
H25   H     H_    0.079691 0.167944 0.169623 0.271344
H26   H     H_    0.074764 0.278674 0.165771 0.231844
H27   H     H_    0.258861 0.225059 0.186125 0.266780
P7    P     P_3+3 0.131641 0.275279 0.411096 0.440111
O21   O     O_2   0.949630 0.279650 0.426400 -0.359057
O22   O     O_3   0.157912 0.221121 0.313747 -0.565180
H28   H     H_    0.624543 0.736435 0.269166 0.290676
C13   C     C_3   0.671754 0.268162 0.688232 0.502016
H29   H     H_    0.724055 0.333429 0.715385 0.106651
H30   H     H_    0.547041 0.281699 0.672506 -0.126231
C14   C     C_3   0.666380 0.222619 0.744707 0.090907
H31   H     H_    0.593528 0.268483 0.793507 0.040983
H32   H     H_    0.608106 0.159274 0.717052 0.059143
P8    P     P_3+3 0.116528 0.400354 0.702303 0.454062
C15   C     C_3   0.159805 0.228864 0.657043 0.524047
H33   H     H_    0.287447 0.240338 0.665134 -0.025830
O23   O     O_2   0.997125 0.476648 0.752110 -0.409205
O24   O     O_3   0.064037 0.300882 0.708107 -0.452885
H34   H     H_    0.123713 0.219539 0.598564 0.102258
H35   H     H_    0.225268 0.087298 0.633022 0.186295
C16   C     C_3   0.140259 0.142360 0.669080 -0.920624
H36   H     H_    0.018580 0.122224 0.653690 0.298224
H37   H     H_    0.163963 0.151927 0.728789 0.263890
C17   C     C_R   0.552590 0.538891 0.804333 -0.310916
H38   H     H_    0.624043 0.593120 0.834820 0.158056
C18   C     C_R   0.515765 0.525298 0.728391 0.358297
C19   C     C_R   0.389324 0.421435 0.796361 -0.340711
H39   H     H_    0.350620 0.371018 0.814550 0.157214
C20   C     C_R   0.320729 0.428150 0.730820 0.219307
C21   C     C_R   0.871718 0.512984 0.170212 -0.209146
H40   H     H_    0.945952 0.541341 0.143615 0.153024
C22   C     C_R   0.945236 0.493578 0.230240 0.241116
C23   C     C_R   0.630249 0.458230 0.190338 -0.279445
H41   H     H_    0.517600 0.431926 0.174493 0.170252
C24   C     C_R   0.699183 0.444693 0.254209 0.305125
C25   C     C_R   0.497241 0.483075 0.839582 0.074981
C26   C     C_R   0.395750 0.471483 0.693133 -0.446515
H42   H     H_    0.350802 0.469954 0.639191 0.151918
C27   C     C_R   0.711693 0.497319 0.146993 0.106709
C28   C     C_R   0.861927 0.449645 0.264778 -0.459122
H43   H     H_    0.918898 0.430233 0.307579 0.105487
C29   C     C_R   0.277506 0.461884 0.952450 -0.317845
C30   C     C_R   0.185493 0.434925 0.997541 0.393194
C31   C     C_R   0.228868 0.457337 0.072483 -0.200983
C32   C     C_R   0.364146 0.501205 0.098643 -0.214674
C33   C     C_R   0.482424 0.497359 0.049121 0.063694
C34   C     C_R   0.435408 0.483395 0.972832 0.079223
C35   C     C_R   0.638038 0.517225 0.077004 -0.025436
C36   C     C_R   0.726167 0.548102 0.031162 0.110734
C37   C     C_R   0.694633 0.521011 0.952208 0.078567
C38   C     C_R   0.544156 0.492615 0.921209 -0.036601
C39   C     C_R   0.836710 0.612327 0.061709 -0.165346
C40   C     C_R   0.944100 0.627127 0.015364 -0.066228
C41   C     C_R   0.938474 0.580638 0.938123 -0.153809
C42   C     C_R   0.816450 0.526211 0.906955 -0.046185
H44   H     H_    0.219978 0.467215 0.903563 0.177328
H45   H     H_    0.158055 0.442678 0.110861 0.173044
H46   H     H_    0.378864 0.538693 0.157464 0.198019
H47   H     H_    0.838557 0.652369 0.121352 0.173960
H48   H     H_    0.035096 0.672164 0.039164 0.182827
H49   H     H_    0.026352 0.588435 0.902270 0.150691
H50   H     H_    0.815788 0.488989 0.847311 0.181076
C43   C     C_2   0.385128 0.244070 0.502756 -0.528015
C44   C     C_R   0.762261 0.770651 0.565278 -0.564628
C45   C     C_2   0.212172 0.123706 0.442954 -0.258354
C46   C     C_2   0.242070 0.209373 0.459467 0.315937
C47   C     C_2   0.505065 0.187070 0.511099 0.169012
C48   C     C_3   0.490037 0.086406 0.477092 0.008388
C49   C     C_3   0.316839 0.064406 0.473385 -0.007548
C50   C     C_2   0.604469 0.032215 0.509149 -0.090393
C51   C     C_2   0.560612 0.978732 0.542970 -0.152556
C52   C     C_R   0.832041 0.941319 0.583205 -0.003763
C53   C     C_R   0.678032 0.915868 0.561300 -0.012421
C54   C     C_R   0.952458 0.880066 0.591875 -0.290545
C55   C     C_R   0.918801 0.792843 0.579952 0.303838
C56   C     C_R   0.643765 0.827096 0.548954 0.232408
H51   H     H_    0.112252 0.096334 0.407576 0.177416
H52   H     H_    0.070360 0.900718 0.607773 0.168927
H53   H     H_    0.398160 0.315552 0.521226 0.174823
H54   H     H_    0.735184 0.705445 0.561783 0.148953
H55   H     H_    0.729209 0.031920 0.498235 0.167686
H56   H     H_    0.436299 0.974375 0.550880 0.151961
O25   O     O_3   0.890618 0.757415 0.324719 -0.668036
C57   C     C_3   0.864769 0.746599 0.392166 0.155205
H57   H     H_    0.791824 0.806664 0.427047 0.166603
H58   H     H_    0.970347 0.748047 0.428397 0.091172
C58   C     C_3   0.781299 0.660929 0.372378 -0.249966
H59   H     H_    0.660687 0.670116 0.355402 0.204292
H60   H     H_    0.807802 0.619455 0.315884 0.155743
C59   C     C_3   0.820152 0.608189 0.424703 -0.626062
H61   H     H_    0.901453 0.644999 0.465356 0.232183
H62   H     H_    0.883892 0.542757 0.399327 0.222733
H63   H     H_    0.730348 0.594702 0.456858 0.261661
N1    N     N_R   0.953175 0.824401 0.220892 0.284419
O26   O     O_R   0.814192 0.863910 0.246659 -0.357034
O27   O     O_R   0.990911 0.813831 0.152915 -0.409049
O28   O     O_3   0.821395 0.205111 0.768775 -0.571783
C60   C     C_3   0.818787 0.157966 0.817782 0.337643
H64   H     H_    0.709337 0.176369 0.852818 0.071114
H65   H     H_    0.919540 0.177320 0.857603 0.167720
C61   C     C_3   0.841281 0.055993 0.773495 -0.410274
H66   H     H_    0.739884 0.034640 0.734553 0.208796
H67   H     H_    0.951946 0.038962 0.739954 0.227525
C62   C     C_3   0.851820 0.003631 0.825447 -0.932578
H68   H     H_    0.954606 0.021801 0.864149 0.271923
H69   H     H_    0.867567 0.930230 0.791291 0.282656
H70   H     H_    0.741280 0.018423 0.858818 0.264911
N2    N     N_R   0.047602 0.387795 0.967633 0.224522
O29   O     O_R   0.021568 0.356168 0.895480 -0.394317
O30   O     O_R   0.959730 0.365412 0.010547 -0.442694

loop_
_geom_bond_atom_site_label_1
_geom_bond_atom_site_label_2
_geom_bond_distance
_ccdc_geom_bond_type
C11   O22   1.394193 S    
O5    C6    1.399910 S    
C4    H7    1.105059 S    
C61   H66   1.109782 S    
C39   H47   1.082331 S    
C5    H10   1.110622 S    
C2    C3    1.526925 S    
O25   C57   1.399012 S    
C4    C5    1.521387 S    
C15   C16   1.521035 S    
O8    Ba1   2.775905 S    
P1    C24   1.898465 S    
C37   C38   1.429919 A    
C8    H18   1.109379 S    
C16   H36   1.108525 S    
O14   P8    1.734384 S    
C26   H42   1.081695 S    
C3    H28   1.103349 S    
C7    H15   1.104269 S    
C44   C55   1.400115 A    
C4    H8    1.109290 S    
C2    H3    1.099497 S    
P1    O2    1.579854 S    
C32   H46   1.070356 S    
C45   H51   1.085334 S    
C29   C30   1.398046 A    
P8    C20   1.842899 S    
C23   H41   1.070818 S    
P1    Ba1   3.504387 S    
C31   C32   1.385229 A    
C51   C53   1.474549 S    
P1    O1    1.554006 D    
O2    Ba2   2.820209 S    
C58   C59   1.548946 S    
C11   H24   1.111669 S    
P2    C55   1.845097 S    
C33   C34   1.441886 A    
C35   C36   1.428311 A    
H1    C10   1.103551 S    
C36   C37   1.432936 A    
C62   H70   1.110828 S    
C7    H14   1.110366 S    
C48   C49   1.538463 S    
P6    C22   1.892843 S    
O3    P6    1.820219 S    
C58   H59   1.073776 S    
C57   C58   1.526490 S    
C41   H49   1.082132 S    
Ba1   Ba2   4.645230 S    
C1    H2    1.102378 S    
Ba1   O16   2.787775 S    
O6    C10   1.409524 S    
C59   H62   1.075558 S    
C37   C42   1.405208 A    
O16   P7    1.760614 S    
C29   C34   1.420095 A    
C36   C39   1.410071 A    
C62   H69   1.111064 S    
C24   C28   1.392890 A    
P2    Ba1   3.499932 S    
C61   H67   1.110778 S    
C3    H5    1.107444 S    
C41   C42   1.391659 A    
C5    H11   1.109544 S    
N1    O27   1.300295 A    
C11   H23   1.111504 S    
C25   C38   1.555683 S    
C9    H20   1.107580 S    
C13   C14   1.525423 S    
C28   H43   1.066656 S    
C23   C24   1.418405 A    
N2    O30   1.301133 A    
O28   C60   1.416502 S    
C8    C9    1.522442 S    
C60   H65   1.110883 S    
C30   N2    1.439305 S    
C16   H37   1.110700 S    
C4    O15   1.389013 S    
C53   C56   1.416621 A    
P4    O13   1.579854 S    
C23   C27   1.447954 A    
P1    O5    1.751449 S    
C6    C7    1.521614 S    
C7    H16   1.110782 S    
H35   C16   1.109745 S    
C59   H63   1.086948 S    
C13   H30   1.110905 S    
C54   H52   1.081808 S    
C20   C26   1.387143 A    
C19   H39   1.079895 S    
P5    C47   1.845066 S    
C10   O25   1.400809 S    
P7    O21   1.572488 D    
P5    O19   1.749330 S    
Ba2   O20   2.787009 S    
C27   C35   1.586233 S    
P5    O17   1.744027 S    
C9    H21   1.110833 S    
C6    H13   1.109940 S    
Ba1   O20   3.021545 S    
P3    O11   1.761025 S    
C11   C12   1.520244 S    
P7    C46   1.826533 S    
C14   H31   1.112025 S    
C12   H27   1.110996 S    
C18   C26   1.388224 A    
C19   C20   1.401925 A    
C60   C61   1.533115 S    
C44   H54   1.074280 S    
P2    O10   1.754094 S    
P8    O24   1.749145 S    
P3    O9    1.549692 D    
C30   C31   1.389158 A    
C51   H56   1.084212 S    
P3    C56   1.871997 S    
O11   C2    1.392128 S    
C43   H53   1.084987 S    
C57   H57   1.090369 S    
C21   C22   1.410498 A    
C14   H32   1.113350 S    
C59   H61   1.061714 S    
C17   C25   1.434190 A    
C31   H45   1.074957 S    
C45   C49   1.498926 S    
C57   H58   1.108265 S    
C52   C54   1.395461 A    
C62   H68   1.110755 S    
C17   C18   1.417459 A    
C21   C27   1.428490 A    
C61   C62   1.525161 S    
Ba1   O13   2.819630 S    
C3    H6    1.109584 S    
N1    O26   1.301913 A    
C19   C25   1.419280 A    
C9    H19   1.110454 S    
C47   C48   1.518555 S    
C8    H17   1.105419 S    
N2    O29   1.301647 A    
C45   C46   1.342365 D    
O17   Ba2   2.776526 S    
O13   Ba2   3.021604 S    
C50   H55   1.085884 S    
P4    O12   1.554292 D    
C1    C10   1.545806 S    
C29   H44   1.068781 S    
O7    Ba1   2.880706 S    
O19   C13   1.407879 S    
P3    O8    1.793729 S    
C13   H29   1.111734 S    
C15   O24   1.406938 S    
C50   C51   1.344831 D    
P4    C18   1.859945 S    
C60   H64   1.116172 S    
O14   Ba2   2.801070 S    
P4    O15   1.756337 S    
O4    P6    1.526429 D    
C14   O28   1.412418 S    
P5    O18   1.545407 D    
C12   H25   1.110637 S    
C43   C47   1.345104 D    
C22   C28   1.390437 A    
C44   C56   1.391671 A    
C43   C46   1.477168 S    
C32   C33   1.390818 A    
C6    H12   1.107100 S    
O2    Ba1   3.020774 S    
C15   H34   1.110014 S    
P2    O7    1.549068 D    
P8    O23   1.544793 D    
O16   Ba2   3.020610 S    
C1    N1    1.462008 S    
O1    Ba1   2.897263 S    
C39   C40   1.395760 A    
C2    H4    1.111700 S    
C58   H60   1.056394 S    
C21   H40   1.061272 S    
C33   C35   1.425060 A    
O3    Ba1   2.801697 S    
C54   C55   1.392747 A    
O10   C8    1.399982 S    
C15   H33   1.111625 S    
C42   H50   1.074040 S    
C40   H48   1.079847 S    
C17   H38   1.079858 S    
C48   C50   1.505305 S    
Ba2   O21   2.880816 S    
P4    Ba2   3.504947 S    
C5    H9    1.110851 S    
P7    O22   1.751987 S    
C52   C53   1.409194 A    
C34   C38   1.438161 A    
C1    H22   1.112471 S    
C40   C41   1.388180 A    
O6    P6    1.780967 S    
P2    O20   1.562662 S    
C12   H26   1.110786 S    
O12   Ba2   2.897800 S    
