data_mof_unit_36290.cif
_audit_creation_date              2012-12-11T16:26:33-0500
_audit_creation_method            fapswitch 2.2
_symmetry_space_group_name_H-M    P1
_symmetry_Int_Tables_number       1
_space_group_crystal_system       triclinic
_cell_length_a                    6.936097
_cell_length_b                    17.559598
_cell_length_c                    19.417764
_cell_angle_alpha                 108.646538
_cell_angle_beta                  89.576875
_cell_angle_gamma                 90.610052
_cell_volume                      2240.70070203

loop_
_atom_site_label
_atom_site_type_symbol
_atom_type_description
_atom_site_fract_x
_atom_site_fract_y
_atom_site_fract_z
_atom_type_partial_charge
O1    O     O_R   0.494330 0.415720 0.413720 -0.535322
O2    O     O_R   0.819330 0.430070 0.560210 -0.540185
O3    O     O_R   0.994320 0.584280 0.586280 -0.537038
C1    C     C_R   0.650177 0.414990 0.581841 0.709997
O4    O     O_R   0.823730 0.406300 0.412670 -0.537229
O5    O     O_R   0.998760 0.560340 0.437690 -0.542782
C2    C     C_R   0.654896 0.383560 0.385010 0.697230
O6    O     O_R   0.489890 0.439660 0.562310 -0.544560
O7    O     O_3   0.662340 0.550560 0.508380 -0.370325
V1    V     V_3+5 0.935370 0.490620 0.498450 1.428639
O8    O     O_R   0.328750 0.569930 0.439790 -0.545352
C3    C     C_R   0.160766 0.584892 0.417995 0.704445
O9    O     O_R   0.324340 0.593700 0.587330 -0.537991
C4    C     C_R   0.155558 0.616288 0.615182 0.695745
V2    V     V_3+5 0.435940 0.509380 0.501550 1.418428
O10   O     O_3   0.159100 0.449440 0.491620 -0.365866
H1    H     H_    0.924130 0.856941 0.566356 0.128872
C5    C     C_R   0.263284 0.598932 0.753355 -0.214057
C6    C     C_R   0.313311 0.587416 0.818982 -0.059274
C7    C     C_R   0.298769 0.651570 0.884945 -0.017515
C8    C     C_R   0.235465 0.726383 0.882695 -0.195807
C9    C     C_R   0.185753 0.739090 0.816752 0.052387
C10   C     C_R   0.199185 0.674090 0.750827 0.070188
C11   C     C_R   0.119642 0.815075 0.816159 -0.169575
C12   C     C_R   0.065854 0.825809 0.749590 0.067438
C13   C     C_R   0.078851 0.760613 0.683493 0.067232
C14   C     C_R   0.145726 0.684755 0.684041 -0.171323
C15   C     C_R   0.001545 0.901217 0.747266 -0.151466
C16   C     C_R   0.950452 0.911892 0.681722 -0.115571
C17   C     C_R   0.963141 0.848247 0.617191 -0.107790
C18   C     C_R   0.027031 0.773450 0.617708 -0.136801
H2    H     H_    0.274704 0.548002 0.704115 0.110893
H3    H     H_    0.222076 0.774747 0.933563 0.144350
H4    H     H_    0.990811 0.952834 0.795853 0.104292
H5    H     H_    0.901551 0.969991 0.681006 0.122719
H6    H     H_    0.036451 0.726163 0.565945 0.101213
C19   C     C_R   0.990678 0.629109 0.323809 -0.209007
C20   C     C_R   0.152942 0.633833 0.368265 -0.086135
C21   C     C_R   0.307643 0.684955 0.364453 -0.225645
C22   C     C_R   0.299996 0.731670 0.317765 0.088222
C23   C     C_R   0.137378 0.726051 0.273045 0.058128
C24   C     C_R   0.982718 0.674225 0.275826 0.089360
C25   C     C_R   0.451886 0.784155 0.315125 -0.169005
C26   C     C_R   0.443848 0.830098 0.268123 -0.176437
C27   C     C_R   0.283677 0.824433 0.222930 0.076254
C28   C     C_R   0.129269 0.772432 0.225544 0.051459
C29   C     C_R   0.966620 0.766842 0.180844 0.090583
C30   C     C_R   0.814978 0.714201 0.183346 -0.163520
C31   C     C_R   0.822837 0.668368 0.230449 -0.183241
C32   C     C_R   0.275047 0.870032 0.175394 -0.184722
C33   C     C_R   0.112547 0.865496 0.131104 -0.060530
C34   C     C_R   0.958472 0.813907 0.134469 -0.210939
H7    H     H_    0.871410 0.589406 0.325774 0.122711
H8    H     H_    0.433035 0.689236 0.398542 0.129921
H9    H     H_    0.577578 0.789424 0.349211 0.140041
H10   H     H_    0.563542 0.869833 0.266893 0.131854
H11   H     H_    0.394059 0.909922 0.173612 0.120909
H12   H     H_    0.833090 0.809638 0.100372 0.137911
H13   H     H_    0.689400 0.708889 0.149227 0.135368
H14   H     H_    0.703068 0.628680 0.231712 0.128485
C35   C     C_R   0.785112 0.180359 0.865019 -0.224972
C36   C     C_R   0.623141 0.132233 0.867057 -0.084604
C37   C     C_R   0.466822 0.129928 0.820462 -0.211122
C38   C     C_R   0.471322 0.174884 0.772288 0.091083
C39   C     C_R   0.632538 0.224259 0.771601 0.060138
C40   C     C_R   0.789654 0.227215 0.818326 0.086044
C41   C     C_R   0.317124 0.171572 0.724927 -0.183263
C42   C     C_R   0.320704 0.218026 0.678226 -0.175081
C43   C     C_R   0.478625 0.268568 0.677980 0.107899
C44   C     C_R   0.636217 0.271088 0.724393 0.070276
C45   C     C_R   0.796845 0.320903 0.724134 0.088743
C46   C     C_R   0.951304 0.323995 0.771257 -0.167532
C47   C     C_R   0.947848 0.277540 0.817898 -0.167075
C48   C     C_R   0.481728 0.316697 0.632340 -0.185633
C49   C     C_R   0.642576 0.365802 0.631248 -0.057399
C50   C     C_R   0.799845 0.367146 0.677117 -0.180498
H15   H     H_    0.905749 0.182638 0.900842 0.129096
H16   H     H_    0.342145 0.092364 0.821138 0.122587
H17   H     H_    0.192633 0.133596 0.724498 0.131276
H18   H     H_    0.198937 0.214963 0.642759 0.136383
H19   H     H_    0.360658 0.314935 0.596845 0.126588
H20   H     H_    0.923929 0.405218 0.676996 0.116979
H21   H     H_    0.075371 0.362163 0.771823 0.152290
H22   H     H_    0.069392 0.280820 0.853512 0.144242
C51   C     C_R   0.559799 0.408155 0.249096 -0.149420
C52   C     C_R   0.513289 0.422035 0.184476 -0.112973
C53   C     C_R   0.501803 0.358251 0.119982 -0.103223
C54   C     C_R   0.536661 0.280101 0.119617 -0.140616
C55   C     C_R   0.582932 0.264035 0.184480 0.066976
C56   C     C_R   0.594839 0.329366 0.250552 0.069073
C57   C     C_R   0.620370 0.184673 0.184093 -0.176556
C58   C     C_R   0.669477 0.170621 0.249817 0.078206
C59   C     C_R   0.681055 0.235846 0.315859 0.050833
C60   C     C_R   0.644125 0.315267 0.316179 -0.171418
C61   C     C_R   0.704339 0.091992 0.251344 -0.174595
C62   C     C_R   0.749909 0.077898 0.315953 -0.163204
C63   C     C_R   0.761092 0.141541 0.381338 0.030993
C64   C     C_R   0.726240 0.219892 0.380888 -0.195833
H23   H     H_    0.569025 0.459949 0.297623 0.101173
H24   H     H_    0.486923 0.482687 0.184427 0.121773
H25   H     H_    0.466550 0.369391 0.069847 0.134561
H26   H     H_    0.527981 0.232696 0.067894 0.102375
H27   H     H_    0.695520 0.040266 0.202739 0.109442
H28   H     H_    0.775449 0.016690 0.314642 0.149471
H29   H     H_    0.733375 0.268287 0.431984 0.139193
O11   O     O_R   0.775200 0.060470 0.937800 -0.543148
O12   O     O_R   0.441110 0.093720 0.087350 -0.539114
O13   O     O_R   0.266330 0.939630 0.062280 -0.536377
C65   C     C_R   0.609862 0.116472 0.115125 0.695597
O14   O     O_R   0.445750 0.069950 0.939820 -0.545513
O15   O     O_R   0.271000 0.915700 0.913700 -0.534988
C66   C     C_R   0.614880 0.084465 0.917696 0.702696
O16   O     O_R   0.770530 0.084400 0.086380 -0.536552
O17   O     O_3   0.602830 0.949510 0.991680 -0.363511
V3    V     V_3+5 0.329710 0.009370 0.001550 1.428040
O18   O     O_R   0.940990 0.906170 0.912570 -0.537580
C67   C     C_R   0.109809 0.883674 0.884811 0.694534
O19   O     O_R   0.936350 0.929940 0.060100 -0.547171
C68   C     C_R   0.104387 0.914848 0.081767 0.715885
V4    V     V_3+5 0.829160 0.990450 0.998310 1.426505
O20   O     O_3   0.105910 0.050480 0.008320 -0.370748
C69   C     C_2   0.807982 0.126527 0.450392 0.749806
O21   O     O_2   0.837942 0.058123 0.450742 -0.561265
O22   O     O_R   0.818050 0.190643 0.515437 -0.675822
H30   H     H_    0.850320 0.172776 0.558737 0.292458
C70   C     C_1   0.381412 0.509055 0.816259 0.352266
N1    N     N_1   0.436017 0.446337 0.814215 -0.342912
C71   C     C_2   0.346470 0.643398 0.957213 0.754482
O23   O     O_2   0.366608 0.577227 0.964318 -0.548410
O24   O     O_R   0.365981 0.712211 0.018026 -0.674536
H31   H     H_    0.395646 0.699185 0.064059 0.292437

loop_
_geom_bond_atom_site_label_1
_geom_bond_atom_site_label_2
_ccdc_geom_bond_type
C42   H18   S    
C53   C54   A    
C59   C60   A    
V3    O20   S    
C23   C24   A    
C61   C62   A    
C1    O6    A    
C71   O23   D    
C63   C64   A    
O11   C66   A    
C51   C52   A    
V4    O20   S    
C12   C15   A    
C13   C14   A    
C19   C20   A    
C64   H29   S    
O13   V3    S    
C15   C16   A    
C7    C71   S    
C18   H6    S    
O5    C3    A    
C17   C18   A    
C21   H8    S    
C8    H3    S    
V2    O10   S    
O18   C67   A    
C5    C6    A    
C19   C24   A    
O19   C68   A    
C1    C49   S    
C53   H25   S    
O8    V2    S    
C35   C40   A    
C22   C25   A    
C6    C7    A    
C35   H15   S    
C42   C43   A    
C33   C68   S    
C23   C28   A    
C44   C45   A    
O1    V2    S    
C10   C14   A    
C4    C14   S    
C55   C57   A    
C52   H24   S    
O7    V1    S    
C47   H22   S    
C65   O16   A    
C19   H7    S    
C15   H4    S    
C13   C18   A    
O9    C4    A    
H1    C17   S    
O12   C65   A    
O13   C68   A    
C35   C36   A    
O4    V1    S    
C61   H27   S    
C56   C60   A    
O19   V4    S    
C20   C21   A    
C48   C49   A    
C41   C42   A    
C38   C41   A    
C41   H17   S    
C11   C12   A    
C50   H20   S    
C57   C58   A    
O4    C2    A    
C52   C53   A    
C12   C13   A    
C27   C28   A    
C40   C47   A    
C58   C61   A    
C5    C10   A    
O2    C1    A    
C49   C50   A    
C16   C17   A    
C51   H23   S    
O16   V4    S    
C26   H10   S    
C29   C30   A    
C51   C56   A    
C62   C63   A    
C36   C37   A    
C32   C33   A    
C11   C67   S    
C43   C48   A    
C7    C8    A    
C31   H14   S    
O12   V3    S    
O3    C4    A    
C34   H12   S    
C25   H9    S    
C30   C31   A    
O6    V2    S    
O9    V2    S    
C25   C26   A    
C9    C11   A    
C5    H2    S    
C48   H19   S    
C69   O22   S    
C63   C69   S    
O2    V1    S    
C21   C22   A    
C26   C27   A    
C30   H13   S    
C2    C60   S    
C28   C29   A    
C22   C23   A    
O11   V4    S    
O1    C2    A    
C32   H11   S    
C46   C47   A    
C71   O24   S    
O5    V1    S    
C54   H26   S    
O8    C3    A    
O17   V3    S    
C29   C34   A    
C16   H5    S    
C6    C70   S    
O15   C67   A    
C38   C39   A    
C57   C65   S    
C62   H28   S    
O24   H31   S    
C55   C56   A    
C33   C34   A    
O3    V1    S    
V1    O10   S    
C45   C50   A    
C27   C32   A    
C70   N1    T    
C59   C64   A    
C58   C59   A    
C3    C20   S    
C43   C44   A    
O14   C66   A    
C46   H21   S    
C24   C31   A    
C37   C38   A    
O18   V4    S    
C45   C46   A    
C36   C66   S    
C54   C55   A    
C39   C40   A    
C9    C10   A    
O15   V3    S    
C69   O21   D    
C8    C9    A    
O14   V3    S    
O17   V4    S    
C39   C44   A    
O7    V2    S    
O22   H30   S    
C37   H16   S    
