data_mof_unit_45254.cif
_audit_creation_date              2012-12-10T18:23:55-0500
_audit_creation_method            fapswitch 2.2
_symmetry_space_group_name_H-M    P1
_symmetry_Int_Tables_number       1
_space_group_crystal_system       triclinic
_cell_length_a                    15.777392
_cell_length_b                    14.982975
_cell_length_c                    14.098882
_cell_angle_alpha                 90.988957
_cell_angle_beta                  88.819146
_cell_angle_gamma                 90.070204
_cell_volume                      3331.66128613

loop_
_atom_site_label
_atom_site_type_symbol
_atom_type_description
_atom_site_fract_x
_atom_site_fract_y
_atom_site_fract_z
_atom_type_partial_charge
C1    C     C_R   0.500467 0.327420 0.499452 0.914580
C2    C     C_R   0.499541 0.672597 0.500882 0.914584
C3    C     C_R   0.499418 0.768099 0.504160 -0.200930
C4    C     C_R   0.499275 0.231941 0.499859 -0.178907
C5    C     C_R   0.577035 0.813120 0.510231 -0.088258
C6    C     C_R   0.420921 0.188141 0.507914 -0.087939
C7    C     C_R   0.577523 0.906924 0.520029 -0.014146
C8    C     C_R   0.418870 0.094195 0.515278 -0.012939
C9    C     C_R   0.498815 0.953260 0.515768 0.066785
C10   C     C_R   0.497662 0.047273 0.513239 0.069400
C11   C     C_R   0.421151 0.905799 0.513617 0.049350
C12   C     C_R   0.575810 0.094002 0.508907 0.049033
C13   C     C_R   0.653312 0.956752 0.532543 -0.050362
C14   C     C_R   0.342070 0.044630 0.524106 -0.054844
C15   C     C_R   0.651952 0.048225 0.521048 -0.179569
C16   C     C_R   0.344381 0.952352 0.517581 -0.191828
C17   C     C_R   0.443447 0.553305 0.800688 0.017498
C18   C     C_R   0.551186 0.440918 0.199369 0.021069
C19   C     C_R   0.557031 0.449273 0.795916 0.010106
C20   C     C_R   0.451067 0.559334 0.204063 0.004960
C21   C     C_R   0.558442 0.448747 0.895828 -0.021163
C22   C     C_R   0.450557 0.560790 0.104166 -0.020547
C23   C     C_R   0.338047 0.499851 0.500772 0.924788
C24   C     C_R   0.661924 0.499993 0.499005 0.948083
C25   C     C_R   0.503420 0.504799 0.949464 0.090580
C26   C     C_R   0.504510 0.503587 0.050543 0.089161
C27   C     C_R   0.447937 0.562357 0.901985 -0.069643
C28   C     C_R   0.559826 0.445852 0.098034 -0.069295
C29   C     C_R   0.616887 0.396050 0.942356 -0.154098
C30   C     C_R   0.399759 0.621638 0.057634 -0.151609
C31   C     C_R   0.621039 0.396388 0.042022 -0.027980
C32   C     C_R   0.400089 0.626086 0.957974 -0.027379
C33   C     C_3   0.967713 0.461591 0.575228 -0.120455
C34   C     C_3   0.032326 0.535853 0.418351 -0.116465
C35   C     C_3   0.025221 0.413514 0.500681 -0.114819
C36   C     C_3   0.974722 0.583984 0.492771 -0.122773
C37   C     C_1   0.249448 0.497683 0.502020 -0.062265
C38   C     C_1   0.750497 0.501165 0.496389 -0.081616
C39   C     C_3   0.026607 0.543952 0.573313 -0.137506
C40   C     C_3   0.973176 0.453624 0.420260 -0.108018
C41   C     C_3   0.083792 0.495822 0.498909 0.131197
C42   C     C_3   0.916168 0.501709 0.494752 0.135736
C43   C     C_1   0.174453 0.495760 0.501268 0.154640
C44   C     C_1   0.825505 0.502308 0.494717 0.147975
C45   C     C_R   0.421541 0.812452 0.508308 -0.066785
C46   C     C_R   0.576521 0.186600 0.499268 -0.048472
H1    H     H_    0.662465 0.357435 0.900192 0.197275
H2    H     H_    0.362440 0.669069 0.099778 0.197555
H3    H     H_    0.711110 0.084289 0.528127 0.190085
H4    H     H_    0.284485 0.917015 0.519154 0.194907
H5    H     H_    0.600774 0.408087 0.754315 0.170469
H6    H     H_    0.411458 0.604921 0.245652 0.175425
N1    N     N_R   0.500040 0.500070 0.750030 -0.134818
N2    N     N_R   0.499960 0.499930 0.249970 -0.139194
O1    O     O_R   0.500020 0.367860 0.580280 -0.574859
O2    O     O_R   0.499980 0.632140 0.419720 -0.601424
O3    O     O_R   0.500020 0.367840 0.419730 -0.630534
O4    O     O_R   0.499980 0.632160 0.580270 -0.636703
O5    O     O_R   0.376770 0.500000 0.580260 -0.622242
O6    O     O_R   0.623230 0.500000 0.419740 -0.660105
O7    O     O_R   0.376780 0.499980 0.419710 -0.583651
O8    O     O_R   0.623220 0.500020 0.580290 -0.577232
Zn1   Zn    Zn3+2 0.499990 0.500020 0.607200 1.025804
Zn2   Zn    Zn3+2 0.500010 0.499980 0.392800 1.009546
C47   C     C_2   0.049247 0.316971 0.504127 0.415452
H7    H     H_    0.000051 0.266606 0.509627 0.088397
O9    O     O_2   0.123418 0.294452 0.500101 -0.533970
C48   C     C_2   0.950779 0.680427 0.487067 0.406759
H8    H     H_    0.999411 0.731343 0.492732 0.092298
O10   O     O_2   0.877421 0.702173 0.475202 -0.530379
C49   C     C_2   0.696582 0.353788 0.083144 0.516957
H9    H     H_    0.723177 0.379801 0.148310 0.062108
O11   O     O_2   0.731460 0.290395 0.043215 -0.503197
C50   C     C_2   0.358561 0.705045 0.916813 0.524140
H10   H     H_    0.383003 0.733583 0.851610 0.040550
O12   O     O_2   0.297706 0.740665 0.956724 -0.502561
C51   C     C_2   0.934487 0.419449 0.664313 0.408115
H11   H     H_    0.978702 0.394061 0.715159 0.100860
O13   O     O_2   0.858406 0.413409 0.680135 -0.531242
C52   C     C_2   0.065979 0.577731 0.329334 0.423842
H12   H     H_    0.022042 0.603138 0.278199 0.097940
O14   O     O_2   0.142135 0.583520 0.313898 -0.519899
C53   C     C_2   0.945578 0.402893 0.333599 0.398853
H13   H     H_    0.992842 0.371836 0.286915 0.110268
O15   O     O_2   0.870612 0.396265 0.315098 -0.573231
C54   C     C_2   0.053283 0.595023 0.660098 0.409653
H14   H     H_    0.005515 0.625884 0.706274 0.096242
O16   O     O_2   0.128028 0.602169 0.679277 -0.504267
C55   C     C_2   0.341222 0.760056 0.506591 0.846870
O17   O     O_2   0.323961 0.715109 0.436384 -0.597259
O18   O     O_R   0.286415 0.761605 0.585769 -0.789308
H15   H     H_    0.234423 0.722906 0.576251 0.372684
C56   C     C_2   0.657736 0.236700 0.488198 0.855697
O19   O     O_2   0.677160 0.293609 0.547037 -0.624268
O20   O     O_R   0.711918 0.217578 0.410839 -0.745825
H16   H     H_    0.764945 0.255874 0.410932 0.366885
C57   C     C_2   0.656182 0.760202 0.500839 0.926041
O21   O     O_2   0.701776 0.767036 0.430167 -0.550364
O22   O     O_R   0.678055 0.703200 0.573788 -0.757772
H17   H     H_    0.735517 0.674609 0.562823 0.365431
C58   C     C_2   0.343247 0.243483 0.506238 0.920913
O23   O     O_2   0.301030 0.245706 0.434578 -0.546615
O24   O     O_R   0.320337 0.294472 0.586645 -0.739794
H18   H     H_    0.265603 0.328353 0.578808 0.371574
C59   C     C_2   0.733778 0.919492 0.566997 0.956621
O25   O     O_2   0.733719 0.875500 0.639252 -0.578703
O26   O     O_R   0.810118 0.938742 0.519517 -0.742074
H19   H     H_    0.860735 0.910361 0.550266 0.364218
C60   C     C_2   0.257551 0.083228 0.546161 0.964707
O27   O     O_2   0.244770 0.123159 0.621455 -0.560128
O28   O     O_R   0.191338 0.069150 0.483258 -0.742532
H20   H     H_    0.136230 0.097264 0.506813 0.370637
C61   C     C_2   0.371946 0.591728 0.749870 0.460510
H21   H     H_    0.382785 0.636226 0.691427 0.107123
O29   O     O_2   0.299179 0.573413 0.773460 -0.485540
C62   C     C_2   0.588485 0.365983 0.250318 0.457764
H22   H     H_    0.630803 0.377794 0.308447 0.106586
O30   O     O_2   0.571797 0.289146 0.227154 -0.506985

loop_
_geom_bond_atom_site_label_1
_geom_bond_atom_site_label_2
_ccdc_geom_bond_type
C14   C60   S    
C20   N2    A    
C58   O23   D    
O20   H16   S    
C36   C42   S    
O28   H20   S    
C57   O21   D    
C17   C61   S    
C39   C41   S    
C4    C46   A    
C51   H11   S    
C23   O5    A    
C59   O26   S    
C56   O19   D    
C36   C39   S    
C50   O12   D    
C29   H1    S    
C34   C40   S    
C33   C42   S    
C30   H2    S    
C19   C21   A    
C16   H4    S    
C60   O28   S    
C32   C50   S    
C8    C10   A    
C54   O16   D    
C35   C47   S    
C62   H22   S    
C6    C58   S    
C34   C52   S    
C53   H13   S    
C48   H8    S    
C47   O9    D    
O1    Zn1   S    
C24   C38   S    
O26   H19   S    
O2    Zn2   S    
C55   O18   S    
C45   C55   S    
C9    C10   A    
C19   N1    A    
C40   C42   S    
C56   O20   S    
C24   O8    A    
C41   C43   S    
C40   C53   S    
C34   C41   S    
C42   C44   S    
C57   O22   S    
C51   O13   D    
C50   H10   S    
C17   C27   A    
C18   C28   A    
C13   C59   S    
C18   C62   S    
O18   H15   S    
C49   O11   D    
C54   H14   S    
C6    C8    A    
C25   C26   A    
C23   C37   S    
C21   C29   A    
C3    C45   A    
C12   C46   A    
C37   C43   T    
O7    Zn2   S    
C38   C44   T    
O8    Zn1   S    
C1    O3    A    
C11   C16   A    
O22   H17   S    
C12   C15   A    
C7    C13   A    
C24   O6    A    
C36   C48   S    
C33   C39   S    
C9    C11   A    
C10   C12   A    
C4    C6    A    
C53   O15   D    
C5    C57   S    
C13   C15   A    
C14   C16   A    
C11   C45   A    
C17   N1    A    
O3    Zn2   S    
C5    C7    A    
C61   H21   S    
O4    Zn1   S    
C7    C9    A    
C21   C25   A    
C8    C14   A    
C22   C30   A    
C27   C32   A    
C29   C31   A    
C26   C28   A    
C28   C31   A    
C20   C22   A    
C52   H12   S    
C3    C5    A    
C2    O4    A    
C25   C27   A    
C59   O25   D    
O5    Zn1   S    
O6    Zn2   S    
C1    C4    S    
C2    C3    S    
C1    O1    A    
C49   H9    S    
C20   H6    S    
C2    O2    A    
C60   O27   D    
C30   C32   A    
N1    Zn1   S    
C33   C51   S    
C46   C56   S    
N2    Zn2   S    
C31   C49   S    
C33   C35   S    
C52   O14   D    
C62   O30   D    
C35   C40   S    
C34   C36   S    
C15   H3    S    
C35   C41   S    
C18   N2    A    
C19   H5    S    
C23   O7    A    
C58   O24   S    
C47   H7    S    
C22   C26   A    
O24   H18   S    
C48   O10   D    
C39   C54   S    
C55   O17   D    
C61   O29   D    
