data_mof_unit_18364.cif
_audit_creation_date              2012-12-11T14:35:54-0500
_audit_creation_method            fapswitch 2.2
_symmetry_space_group_name_H-M    P1
_symmetry_Int_Tables_number       1
_space_group_crystal_system       monoclinic
_cell_length_a                    14.508113
_cell_length_b                    16.022285
_cell_length_c                    6.925049
_cell_angle_alpha                 90.0
_cell_angle_beta                  80.958963
_cell_angle_gamma                 90.0
_cell_volume                      1589.74980142

loop_
_atom_site_label
_atom_site_type_symbol
_atom_type_description
_atom_site_fract_x
_atom_site_fract_y
_atom_site_fract_z
_atom_type_partial_charge
O1    O     O_R   0.337460 0.413110 0.524760 -0.532473
O2    O     O_R   0.662540 0.913110 0.475240 -0.532473
O3    O     O_R   0.348690 0.587910 0.191230 -0.546771
O4    O     O_R   0.651310 0.087910 0.808770 -0.546771
O5    O     O_R   0.166530 0.586890 0.082470 -0.547672
O6    O     O_R   0.833470 0.086890 0.917530 -0.547672
C1    C     C_R   0.370740 0.616547 0.353391 0.747071
C2    C     C_R   0.629260 0.116547 0.646609 0.747071
O7    O     O_R   0.348700 0.413830 0.191250 -0.545819
O8    O     O_R   0.651300 0.913830 0.808750 -0.545819
O9    O     O_R   0.166530 0.411570 0.082490 -0.543803
O10   O     O_R   0.833470 0.911570 0.917510 -0.543803
C3    C     C_R   0.371027 0.385319 0.353280 0.784597
C4    C     C_R   0.628973 0.885319 0.646720 0.784597
O11   O     O_R   0.337460 0.588430 0.524740 -0.543721
O12   O     O_R   0.662540 0.088430 0.475260 -0.543721
O13   O     O_3   0.192230 0.499460 0.407330 -0.376351
O14   O     O_3   0.807770 0.999460 0.592670 -0.376351
V1    V     V_3+5 0.263080 0.500100 0.108540 1.411233
V2    V     V_3+5 0.736920 0.000100 0.891460 1.411233
O15   O     O_R   0.155290 0.412090 0.756570 -0.538277
O16   O     O_R   0.844710 0.912090 0.243430 -0.538277
C5    C     C_R   0.132541 0.383032 0.933128 0.687654
C6    C     C_R   0.867459 0.883032 0.066872 0.687654
O17   O     O_R   0.155290 0.586170 0.756550 -0.539914
O18   O     O_R   0.844710 0.086170 0.243450 -0.539914
C7    C     C_R   0.133474 0.615912 0.932525 0.654535
C8    C     C_R   0.866526 0.115913 0.067475 0.654533
V3    V     V_3+5 0.240910 0.499900 0.616030 1.437506
V4    V     V_3+5 0.759090 0.999900 0.383970 1.437506
O19   O     O_3   0.311760 0.500540 0.867100 -0.369058
O20   O     O_3   0.688240 0.000540 0.132900 -0.369057
C9    C     C_3   0.096929 0.756480 0.093066 -0.357830
C10   C     C_3   0.903071 0.256480 0.906935 -0.357828
C11   C     C_3   0.023295 0.827162 0.137475 -0.328436
C12   C     C_3   0.976705 0.327162 0.862525 -0.328435
H1    H     H_    0.001061 0.832122 0.298157 0.140855
H2    H     H_    0.998939 0.332122 0.701843 0.140855
H3    H     H_    0.980558 0.636603 0.232043 0.071936
H4    H     H_    0.019442 0.136603 0.767957 0.071936
C13   C     C_3   0.966526 0.654347 0.083647 -0.142070
C14   C     C_3   0.033474 0.154347 0.916352 -0.142070
C15   C     C_3   0.044942 0.727399 0.772569 -0.299079
C16   C     C_3   0.955059 0.227398 0.227431 -0.299079
C17   C     C_3   0.061520 0.686101 0.967827 0.071784
C18   C     C_3   0.938480 0.186101 0.032173 0.071783
H5    H     H_    0.112363 0.750821 0.691690 0.124351
H6    H     H_    0.887638 0.250821 0.308311 0.124351
C19   C     C_3   0.937439 0.810933 0.033176 0.006514
C20   C     C_3   0.062561 0.310933 0.966823 0.006514
C21   C     C_3   0.891209 0.725574 0.104403 -0.147877
C22   C     C_3   0.108791 0.225575 0.895597 -0.147877
C23   C     C_3   0.975500 0.801089 0.810919 -0.326865
C24   C     C_3   0.024500 0.301088 0.189081 -0.326865
H7    H     H_    0.916842 0.790220 0.728346 0.149720
H8    H     H_    0.083159 0.290220 0.271654 0.149720
H9    H     H_    0.838229 0.711605 0.008384 0.172779
H10   H     H_    0.161771 0.211605 0.991615 0.172780
H11   H     H_    0.564030 0.808565 0.351435 0.163780
H12   H     H_    0.435970 0.308565 0.648565 0.163780
H13   H     H_    0.434693 0.694032 0.649021 0.150676
H14   H     H_    0.565307 0.194032 0.350979 0.150676
C25   C     C_2   0.439744 0.684550 0.342767 -0.319701
C26   C     C_2   0.560256 0.184550 0.657233 -0.319701
C27   C     C_2   0.464973 0.717339 0.505571 -0.128143
C28   C     C_2   0.535027 0.217339 0.494429 -0.128143
H15   H     H_    0.529177 0.793942 0.800569 0.118075
H16   H     H_    0.470823 0.293942 0.199431 0.118075
C29   C     C_2   0.559448 0.817742 0.657599 -0.310977
C30   C     C_2   0.440552 0.317742 0.342401 -0.310977
C31   C     C_2   0.533809 0.785235 0.494905 -0.062964
C32   C     C_2   0.466191 0.285235 0.505095 -0.062964
H17   H     H_    0.112420 0.730788 0.233816 0.144026
H18   H     H_    0.887580 0.230788 0.766185 0.144025
C33   C     C_2   0.931156 0.575555 0.999805 0.342761
H19   H     H_    0.929066 0.518026 0.082952 0.028539
O21   O     O_2   0.905113 0.575266 0.840513 -0.538582
C34   C     C_2   0.068844 0.075555 0.000193 0.342762
H20   H     H_    0.070933 0.018025 0.917047 0.028538
O22   O     O_2   0.094888 0.075266 0.159484 -0.538582
H21   H     H_    0.470148 0.708297 0.199825 0.129978
H22   H     H_    0.529852 0.208297 0.800175 0.129978
H23   H     H_    0.163309 0.782918 0.014397 0.144046
H24   H     H_    0.836691 0.282918 0.985604 0.144046
H25   H     H_    0.056106 0.887725 0.088339 0.159022
H26   H     H_    0.943894 0.387725 0.911662 0.159021
C35   C     C_2   0.839950 0.729072 0.311871 0.358816
H27   H     H_    0.877923 0.740097 0.432134 0.048764
O23   O     O_2   0.755589 0.718782 0.346030 -0.529511
C36   C     C_2   0.160049 0.229072 0.688128 0.358817
H28   H     H_    0.122076 0.240098 0.567865 0.048763
O24   O     O_2   0.244410 0.218782 0.653969 -0.529511
H29   H     H_    0.018264 0.681097 0.675530 0.184503
H30   H     H_    0.981736 0.181096 0.324470 0.184502
H31   H     H_    0.010769 0.859735 0.753358 0.142371
H32   H     H_    0.989231 0.359734 0.246643 0.142372

loop_
_geom_bond_atom_site_label_1
_geom_bond_atom_site_label_2
_ccdc_geom_bond_type
C35   H27   S    
C25   C27   D    
C23   H31   S    
O13   V3    S    
C22   C36   S    
O4    C2    A    
V1    O19   S    
H3    C13   S    
C28   C32   S    
C8    C18   S    
C20   C24   S    
C25   H21   S    
C11   H1    S    
O7    V1    S    
O3    C1    A    
C9    C11   S    
C34   O22   D    
C3    C30   S    
H12   C32   S    
O12   V4    S    
C9    H23   S    
C9    C17   S    
C14   C18   S    
C29   C31   D    
O7    C3    A    
O9    V1    S    
O13   V1    S    
O5    C7    A    
C15   C23   S    
O6    C8    A    
O8    V2    S    
C19   C21   S    
C11   C19   S    
C20   C22   S    
O3    V1    S    
C10   C18   S    
C24   H32   S    
C7    C17   S    
H4    C14   S    
C2    O12   A    
C10   H24   S    
C16   C18   S    
O11   V3    S    
C23   H7    S    
O17   V3    S    
C24   H8    S    
H14   C28   S    
O8    C4    A    
C21   C35   S    
C34   H20   S    
C5    C20   S    
C1    O11   A    
C12   H26   S    
C27   C31   S    
O15   V3    S    
H15   C29   S    
C26   C28   D    
C33   H19   S    
H13   C27   S    
C13   C33   S    
C33   O21   D    
C36   O24   D    
C1    C25   S    
O10   V2    S    
O1    V3    S    
C15   C17   S    
C26   H22   S    
C22   H10   S    
C2    C26   S    
O14   V4    S    
C9    H17   S    
C10   H18   S    
C14   C34   S    
O15   C5    A    
C4    C29   S    
O16   C6    A    
O1    C3    A    
C12   C20   S    
V2    O20   S    
C6    C19   S    
O16   V4    S    
O18   V4    S    
O5    V1    S    
O17   C7    A    
O6    V2    S    
O10   C6    A    
O18   C8    A    
O2    V4    S    
C12   H2    S    
V3    O19   S    
V4    O20   S    
C11   H25   S    
C36   H28   S    
C19   C23   S    
O9    C5    A    
C15   H29   S    
C10   C12   S    
O14   V2    S    
O2    C4    A    
C16   H30   S    
O4    V2    S    
C16   C24   S    
C21   H9    S    
H16   C30   S    
H11   C31   S    
C35   O23   D    
C13   C17   S    
C30   C32   D    
C15   H5    S    
C13   C21   S    
C16   H6    S    
C14   C22   S    
