data_mof_unit_37694.cif
_audit_creation_date              2012-12-11T14:46:05-0500
_audit_creation_method            fapswitch 2.2
_symmetry_space_group_name_H-M    P1
_symmetry_Int_Tables_number       1
_space_group_crystal_system       triclinic
_cell_length_a                    10.980116
_cell_length_b                    10.933406
_cell_length_c                    18.767561
_cell_angle_alpha                 90.154163
_cell_angle_beta                  89.755523
_cell_angle_gamma                 119.560275
_cell_volume                      1959.76572567

loop_
_atom_site_label
_atom_site_type_symbol
_atom_type_description
_atom_site_fract_x
_atom_site_fract_y
_atom_site_fract_z
_atom_type_partial_charge
C1    C     C_R   0.864773 0.636955 0.603530 0.565612
C2    C     C_R   0.438429 0.652002 0.776482 -0.190558
C3    C     C_R   0.411916 0.639557 0.704517 -0.170236
C4    C     C_R   0.311243 0.668834 0.677972 0.005658
C5    C     C_R   0.841576 0.162566 0.821655 -0.036429
C6    C     C_R   0.086236 0.219565 0.824030 -0.078342
C7    C     C_R   0.207231 0.243732 0.788560 -0.123974
C8    C     C_R   0.204315 0.220127 0.715558 -0.133902
C9    C     C_R   0.081487 0.178081 0.677160 -0.083866
C10   C     C_R   0.960959 0.166998 0.710696 -0.003977
C11   C     C_R   0.961586 0.178969 0.786179 -0.001546
C12   C     C_R   0.265660 0.630512 0.605076 0.598064
C13   C     C_R   0.717909 0.115386 0.708787 0.025029
C14   C     C_R   0.731149 0.157179 0.780394 -0.007549
C15   C     C_R   0.589175 0.073955 0.673566 0.060718
C16   C     C_R   0.504849 0.126976 0.698660 -0.148674
C17   C     C_R   0.529576 0.190503 0.765144 -0.162556
C18   C     C_R   0.636739 0.198661 0.807445 -0.101233
C19   C     C_R   0.841543 0.147774 0.671305 -0.002679
C20   C     C_R   0.816460 0.758652 0.701472 -0.160016
C21   C     C_R   0.805037 0.772803 0.774283 -0.133865
C22   C     C_R   0.802256 0.671658 0.821380 0.046279
C23   C     C_R   0.861318 0.222058 0.601816 0.569716
C24   C     C_R   0.806945 0.554758 0.796212 -0.103645
C25   C     C_R   0.816725 0.539423 0.723477 -0.060711
C26   C     C_R   0.825427 0.643386 0.676300 0.056027
C27   C     C_R   0.429594 0.668932 0.297064 -0.154552
C28   C     C_R   0.456397 0.684849 0.224762 -0.177858
C29   C     C_R   0.363341 0.697006 0.178132 0.043205
C30   C     C_R   0.246879 0.702875 0.203929 0.242371
C31   C     C_R   0.220350 0.687424 0.276899 -0.112310
C32   C     C_R   0.311137 0.669116 0.323001 -0.020422
C33   C     C_R   0.699438 0.081129 0.304306 -0.155078
C34   C     C_R   0.863717 0.640540 0.398857 0.561183
C35   C     C_R   0.677614 0.060487 0.231674 0.000550
C36   C     C_R   0.789851 0.078514 0.186692 0.036650
C37   C     C_R   0.922328 0.122930 0.216903 -0.153092
C38   C     C_R   0.945603 0.159540 0.288614 -0.143988
C39   C     C_R   0.834659 0.144917 0.331549 0.018273
C40   C     C_R   0.906086 0.788280 0.294926 -0.187572
C41   C     C_R   0.900010 0.795668 0.222404 -0.140608
C42   C     C_R   0.803318 0.679368 0.182927 0.007934
C43   C     C_R   0.702071 0.559357 0.218289 -0.132663
C44   C     C_R   0.706652 0.550514 0.293066 0.255913
C45   C     C_R   0.269415 0.633599 0.396139 0.557914
C46   C     C_R   0.817249 0.662998 0.330041 0.044568
C47   C     C_R   0.807888 0.105800 0.895339 0.540354
C48   C     C_R   0.396800 0.701387 0.896715 0.584855
C49   C     C_R   0.795664 0.693667 0.896439 0.559597
C50   C     C_R   0.768167 0.045048 0.110324 0.561770
C51   C     C_R   0.395747 0.704840 0.103542 0.578020
C52   C     C_R   0.794207 0.700027 0.107118 0.564402
C53   C     C_R   0.860805 0.223995 0.397659 0.556252
C54   C     C_R   0.239638 0.716247 0.724039 0.270191
C55   C     C_R   0.263888 0.724773 0.797266 0.265834
C56   C     C_R   0.362799 0.691185 0.822729 0.007583
Cr1   Cr    Cr6+3 0.791660 0.390250 0.499930 1.047716
Cr2   Cr    Cr6+3 0.098520 0.708290 0.500540 1.008908
Cr3   Cr    Cr6+3 0.109770 0.401430 0.499480 1.028338
Cr4   Cr    Cr6+3 0.874790 0.925890 0.000070 0.992995
Cr5   Cr    Cr6+3 0.574120 0.948670 0.999300 1.029131
Cr6   Cr    Cr6+3 0.551420 0.625320 0.000920 1.016319
H1    H     H_    0.421638 0.121197 0.666126 0.063655
H2    H     H_    0.464534 0.231232 0.784660 0.105026
H3    H     H_    0.824112 0.839430 0.665431 0.137435
H4    H     H_    0.800083 0.863351 0.794197 0.131934
H5    H     H_    0.809656 0.480181 0.832894 0.112883
H6    H     H_    0.827111 0.451374 0.704314 0.142043
H7    H     H_    0.499441 0.654764 0.332390 0.163275
H8    H     H_    0.549447 0.686712 0.204540 0.130821
H9    H     H_    0.126371 0.684534 0.297140 0.150426
H10   H     H_    0.612976 0.066447 0.338276 0.114533
H11   H     H_    0.010235 0.137525 0.184417 0.134313
H12   H     H_    0.051325 0.207083 0.309119 0.139428
H13   H     H_    0.987522 0.878348 0.322766 0.140951
H14   H     H_    0.972100 0.894393 0.197431 0.133048
H15   H     H_    0.618461 0.476470 0.187909 0.140404
H16   H     H_    0.515871 0.627110 0.796606 0.151170
H17   H     H_    0.466864 0.603237 0.669915 0.157241
H18   H     H_    0.303084 0.281927 0.818311 0.106793
H19   H     H_    0.297948 0.236715 0.688240 0.103258
H20   H     H_    0.093459 0.241623 0.880579 0.135660
H21   H     H_    0.082190 0.154121 0.621301 0.129342
H22   H     H_    0.651014 0.247551 0.859189 0.140956
O1    O     O_R   0.766500 0.250040 0.579790 -0.512278
O2    O     O_R   0.218690 0.701900 0.425960 -0.515569
O3    O     O_R   0.249490 0.516440 0.419420 -0.498367
O4    O     O_R   0.982880 0.281910 0.424890 -0.508772
O5    O     O_3   0.999980 0.499990 0.499980 -0.259071
O6    O     O_R   0.895110 0.806860 0.920430 -0.506910
O7    O     O_R   0.872260 0.046970 0.925000 -0.504730
O8    O     O_R   0.691430 0.085060 0.918550 -0.520676
O9    O     O_R   0.451490 0.822460 0.925250 -0.511563
O10   O     O_R   0.413330 0.603360 0.920440 -0.522949
O11   O     O_R   0.676110 0.626250 0.926750 -0.511375
O12   O     O_R   0.798570 0.516780 0.574780 -0.513008
O13   O     O_R   0.895350 0.809870 0.080950 -0.540982
O14   O     O_R   0.872490 0.049760 0.073800 -0.517672
O15   O     O_R   0.691680 0.088070 0.079070 -0.434866
O16   O     O_R   0.451720 0.825250 0.074050 -0.519881
O17   O     O_R   0.413580 0.606370 0.080960 -0.513867
O18   O     O_R   0.676340 0.629040 0.075550 -0.506206
O19   O     O_3   0.666780 0.833290 0.000090 -0.284248
O20   O     O_R   0.984000 0.732950 0.581090 -0.502199
O21   O     O_R   0.218600 0.700890 0.574760 -0.486146
O22   O     O_R   0.249390 0.515350 0.579940 -0.517104
O23   O     O_R   0.982790 0.280900 0.573700 -0.515223
O24   O     O_R   0.766600 0.251130 0.419260 -0.515537
O25   O     O_R   0.798660 0.517790 0.425980 -0.446057
O26   O     O_R   0.984100 0.734040 0.420570 -0.548770
O27   O     O_3   0.131236 0.734308 0.699713 -0.525140
C57   C     C_3   0.179762 0.879465 0.691899 -0.061111
H23   H     H_    0.246291 0.943860 0.736437 0.093065
H24   H     H_    0.089902 0.898333 0.691162 0.152848
H25   H     H_    0.234687 0.916272 0.640127 0.114733
C58   C     C_2   0.545815 0.984847 0.608570 0.236146
H26   H     H_    0.458067 0.973706 0.577249 0.095311
O28   O     O_2   0.605725 0.920868 0.590206 -0.536786
O29   O     O_3   0.154264 0.713430 0.158238 -0.560246
C59   C     C_3   0.199828 0.857236 0.147743 -0.112728
H27   H     H_    0.127303 0.867424 0.111205 0.170592
H28   H     H_    0.302412 0.911620 0.120581 0.175103
H29   H     H_    0.202855 0.911044 0.198696 0.100070
O30   O     O_3   0.171874 0.738140 0.843302 -0.546978
C60   C     C_3   0.232701 0.875519 0.871968 -0.083679
H30   H     H_    0.341246 0.949131 0.853147 0.103146
H31   H     H_    0.233987 0.868940 0.930929 0.149661
H32   H     H_    0.165813 0.921825 0.858212 0.144345
C61   C     C_2   0.539834 0.036713 0.207597 0.191776
H33   H     H_    0.447267 0.963133 0.236603 0.080973
O31   O     O_2   0.529792 0.113462 0.163783 -0.522829
O32   O     O_3   0.601392 0.441308 0.332325 -0.560056
C62   C     C_3   0.553739 0.309783 0.299249 -0.082017
H34   H     H_    0.503272 0.226509 0.340234 0.132726
H35   H     H_    0.641483 0.299877 0.275552 0.159901
H36   H     H_    0.473026 0.291256 0.258706 0.134576

loop_
_geom_bond_atom_site_label_1
_geom_bond_atom_site_label_2
_ccdc_geom_bond_type
C8    C9    A    
C55   C56   A    
C6    H20   S    
C21   H4    S    
C41   C42   A    
C14   C18   A    
C35   C36   A    
C49   O6    A    
C3    H17   S    
C57   H24   S    
C7    C8    A    
C39   C53   S    
C40   C46   A    
C5    C47   S    
C52   O18   A    
C50   O15   A    
C33   C39   A    
Cr1   O5    S    
C21   C22   A    
C28   C29   A    
Cr5   O19   S    
C29   C51   S    
C5    C11   A    
Cr4   O14   S    
C17   H2    S    
Cr3   O5    S    
C30   C31   A    
Cr5   O9    S    
C30   O29   S    
C15   C16   A    
C52   O13   A    
C58   H26   S    
C47   O8    A    
Cr3   O4    S    
C24   H5    S    
C55   O30   S    
Cr1   O25   S    
O27   C57   S    
C44   C46   A    
O32   C62   S    
Cr1   O12   S    
C62   H36   S    
C18   H22   S    
C34   C46   S    
C16   H1    S    
C4    C12   S    
Cr4   O19   S    
C9    C10   A    
C35   C61   S    
C33   H10   S    
Cr5   O8    S    
Cr6   O17   S    
C4    C54   A    
C31   H9    S    
C60   H30   S    
C13   C14   A    
Cr5   O15   S    
C25   H6    S    
Cr2   O2    S    
C57   H23   S    
C59   H28   S    
C50   O14   A    
Cr3   O22   S    
C48   O9    A    
C13   C19   A    
C8    H19   S    
C20   H3    S    
C24   C25   A    
Cr4   O13   S    
C6    C11   A    
C16   C17   A    
C25   C26   A    
C1    C26   S    
Cr3   O23   S    
C19   C23   S    
C43   C44   A    
C37   C38   A    
C2    H16   S    
C60   H32   S    
C31   C32   A    
C10   C19   A    
C23   O23   A    
C17   C18   A    
C32   C45   S    
C49   O11   A    
C1    O20   A    
C5    C14   A    
C48   O10   A    
C9    H21   S    
C22   C49   S    
C40   C41   A    
C13   C15   A    
C62   H34   S    
C34   O26   A    
C22   C24   A    
Cr5   O16   S    
C43   H15   S    
C42   C43   A    
C3    C4    A    
C36   C50   S    
C59   H27   S    
C60   H31   S    
C61   H33   S    
C38   H12   S    
Cr4   O7    S    
C51   O16   A    
C48   C56   S    
C37   H11   S    
C54   C55   A    
C36   C37   A    
C45   O3    A    
C27   C32   A    
Cr2   O26   S    
C47   O7    A    
C12   O21   A    
C28   H8    S    
C27   H7    S    
Cr6   O19   S    
O29   C59   S    
C59   H29   S    
C6    C7    A    
Cr4   O6    S    
C44   O32   S    
C40   H13   S    
Cr2   O21   S    
Cr6   O10   S    
C2    C3    A    
C2    C56   A    
C41   H14   S    
C12   O22   A    
C53   O24   A    
C38   C39   A    
C20   C26   A    
C1    O12   A    
C33   C35   A    
C58   O28   D    
C54   O27   S    
C45   O2    A    
C53   O4    A    
Cr2   O5    S    
Cr3   O3    S    
C10   C11   A    
C29   C30   A    
Cr1   O24   S    
Cr2   O20   S    
C20   C21   A    
C23   O1    A    
C27   C28   A    
C62   H35   S    
C34   O25   A    
C15   C58   S    
C7    H18   S    
C61   O31   D    
Cr6   O11   S    
Cr1   O1    S    
C57   H25   S    
C51   O17   A    
C42   C52   S    
O30   C60   S    
Cr6   O18   S    
