data_mof_unit_26900.cif
_audit_creation_date              2013-03-05T15:45:10-0500
_audit_creation_method            fapswitch 2.2
_symmetry_space_group_name_H-M    P1
_symmetry_Int_Tables_number       1
_space_group_crystal_system       triclinic
_cell_length_a                    10.77478
_cell_length_b                    11.038544
_cell_length_c                    9.85768
_cell_angle_alpha                 111.231731
_cell_angle_beta                  98.441059
_cell_angle_gamma                 90.868781
_cell_volume                      1078.05899388

loop_
_atom_site_label
_atom_site_type_symbol
_atom_site_description
_atom_site_fract_x
_atom_site_fract_y
_atom_site_fract_z
_atom_type_partial_charge
O1    O     O_R   0.511700 0.332330 0.577400 -0.609475
O2    O     O_R   0.474680 0.295500 0.332650 -0.568230
C1    C     C_R   0.491024 0.254121 0.440605 0.826582
O3    O     O_R   0.338160 0.518420 0.622400 -0.600067
O4    O     O_R   0.301140 0.481590 0.377650 -0.567703
C2    C     C_R   0.262493 0.495754 0.499937 0.780128
Cu1   Cu    Cu3+1 0.521920 0.521810 0.644910 1.025480
Cu2   Cu    Cu3+1 0.478080 0.478190 0.355090 0.958365
O5    O     O_R   0.525320 0.704500 0.667350 -0.535073
O6    O     O_R   0.488300 0.667670 0.422600 -0.591550
O7    O     O_R   0.698860 0.518410 0.622350 -0.536010
O8    O     O_R   0.661840 0.481580 0.377600 -0.572541
C3    C     C_R   0.509252 0.745895 0.559419 0.867410
C4    C     C_R   0.736978 0.494702 0.497859 0.784118
H1    H     H_    0.099622 0.623455 0.387321 0.162441
C5    C     C_R   0.141366 0.319752 0.612190 -0.184705
H2    H     H_    0.241272 0.313782 0.611597 0.140904
C6    C     C_R   0.082278 0.237731 0.666421 -0.138700
H3    H     H_    0.136944 0.173766 0.708709 0.137684
C7    C     C_R   0.952861 0.236125 0.663783 -0.105587
H4    H     H_    0.907050 0.170840 0.703913 0.145200
C8    C     C_R   0.881740 0.316608 0.607021 -0.135937
H5    H     H_    0.781017 0.308246 0.602362 0.148240
C9    C     C_R   0.939933 0.402753 0.554262 0.096022
C10   C     C_R   0.071568 0.404354 0.556922 0.100248
C11   C     C_R   0.128454 0.487337 0.499076 -0.097826
C12   C     C_R   0.056038 0.561662 0.433834 -0.182448
H6    H     H_    0.873655 0.621192 0.383584 0.170842
C13   C     C_R   0.927748 0.560087 0.431225 -0.167535
C14   C     C_R   0.869937 0.484276 0.494008 -0.096274
H7    H     H_    0.481952 0.864473 0.368773 0.187673
H8    H     H_    0.520803 0.135754 0.631403 0.181863
C15   C     C_2   0.486439 0.114687 0.407240 -0.331233
C16   C     C_2   0.503468 0.069700 0.516567 -0.166565
H9    H     H_    0.531490 0.951689 0.707563 0.162273
C17   C     C_2   0.514620 0.885396 0.592899 -0.342890
C18   C     C_2   0.498787 0.930488 0.483629 -0.148564
H10   H     H_    0.469092 0.048342 0.292609 0.163392
H11   H     H_    0.409949 0.427128 0.852293 0.104942
H12   H     H_    0.577163 0.590097 0.161499 0.197177
N1    N     N_2   0.445130 0.445430 0.137370 -0.304166
C19   C     C_2   0.508791 0.514216 0.084874 -0.013889
N2    N     N_2   0.554930 0.554500 0.862630 -0.050451
C20   C     C_2   0.488587 0.493572 0.922651 -0.009149
H13   H     H_    0.380055 0.373937 0.063421 0.193643
N3    N     N_R   0.666599 0.624821 0.945504 0.228848
O9    O     O_R   0.701627 0.730348 0.927323 -0.325087
O10   O     O_R   0.749786 0.570246 0.009981 -0.381822

loop_
_geom_bond_atom_site_label_1
_geom_bond_atom_site_label_2
_geom_bond_distance
_ccdc_geom_bond_type
O4    Cu2   1.950939 S    
N2    C20   1.308129 D    
H11   C20   1.084938 S    
Cu1   N2    2.018421 S    
C12   C13   1.378487 A    
C16   C18   1.449437 S    
N1    C19   1.299171 D    
H1    C12   1.084460 S    
C15   H10   1.087487 S    
Cu2   O8    1.957981 S    
H12   C19   1.083760 S    
O2    C1    1.292910 A    
Cu1   Cu2   2.686581 S    
C5    C6    1.394213 A    
O1    Cu1   1.947582 S    
C7    H4    1.082817 S    
Cu1   O7    1.950939 S    
C11   C12   1.396359 A    
C2    C11   1.444406 S    
C19   C20   1.512914 S    
C4    C14   1.443899 S    
O3    Cu1   1.957981 S    
C8    C9    1.415533 A    
O3    C2    1.292564 A    
C17   C18   1.331939 D    
N2    N3    1.393363 S    
C7    C8    1.394422 A    
C15   C16   1.331943 D    
C6    C7    1.390588 A    
O4    C2    1.289897 A    
O7    C4    1.289110 A    
C9    C14   1.416897 A    
C1    C15   1.451151 S    
C13   C14   1.394213 A    
N3    O10   1.302591 A    
H7    C18   1.088096 S    
C9    C10   1.414452 A    
C3    C17   1.451597 S    
Cu2   O6    1.947582 S    
C6    H3    1.083044 S    
C5    C10   1.415656 A    
Cu1   O5    1.946628 S    
O5    C3    1.292747 A    
C8    H5    1.080595 S    
H6    C13   1.084530 S    
N1    H13   1.030694 S    
Cu2   N1    2.018249 S    
C10   C11   1.415558 A    
N3    O9    1.299697 A    
O2    Cu2   1.946628 S    
H9    C17   1.087529 S    
O8    C4    1.293091 A    
C5    H2    1.080222 S    
O1    C1    1.294661 A    
O6    C3    1.294923 A    
H8    C16   1.088103 S    
