data_mof_unit_11884.cif
_audit_creation_date              2012-12-11T17:07:24-0500
_audit_creation_method            fapswitch 2.2
_symmetry_space_group_name_H-M    P1
_symmetry_Int_Tables_number       1
_space_group_crystal_system       triclinic
_cell_length_a                    6.958168
_cell_length_b                    14.471713
_cell_length_c                    16.102649
_cell_angle_alpha                 89.958602
_cell_angle_beta                  90.087414
_cell_angle_gamma                 89.958985
_cell_volume                      1621.47944408

loop_
_atom_site_label
_atom_site_type_symbol
_atom_type_description
_atom_site_fract_x
_atom_site_fract_y
_atom_site_fract_z
_atom_type_partial_charge
O1    O     O_R   0.505720 0.583900 0.413310 -0.519805
O2    O     O_R   0.175940 0.594920 0.586080 -0.536312
O3    O     O_R   0.005640 0.416100 0.586690 -0.541107
C1    C     C_R   0.344641 0.616866 0.614778 0.717305
O4    O     O_R   0.176000 0.594930 0.413930 -0.541961
O5    O     O_R   0.005700 0.416110 0.413310 -0.539233
C2    C     C_R   0.344666 0.616853 0.385090 0.707954
O6    O     O_R   0.505660 0.583890 0.586690 -0.542370
O7    O     O_3   0.339200 0.441330 0.500000 -0.366849
V1    V     V_3+5 0.064350 0.510880 0.500000 1.484941
O8    O     O_R   0.675980 0.405080 0.413920 -0.535468
C3    C     C_R   0.844926 0.383269 0.385113 0.739916
O9    O     O_R   0.675920 0.405070 0.586070 -0.540646
C4    C     C_R   0.844895 0.382862 0.614332 0.671709
V2    V     V_3+5 0.564340 0.489120 0.500000 1.493136
O10   O     O_3   0.839360 0.558670 0.500000 -0.357464
C5    C     C_R   0.717807 0.429072 0.780124 -0.153954
C6    C     C_R   0.655904 0.454593 0.859231 0.405471
C7    C     C_R   0.667983 0.390552 0.924337 -0.201021
C8    C     C_R   0.741156 0.302275 0.910320 -0.166623
C9    C     C_R   0.803118 0.274869 0.830422 0.070143
C10   C     C_R   0.791051 0.339549 0.763952 -0.005973
C11   C     C_R   0.879527 0.185259 0.816479 -0.140761
C12   C     C_R   0.943472 0.160360 0.735875 -0.005531
C13   C     C_R   0.931210 0.225008 0.669386 0.067439
C14   C     C_R   0.855111 0.314663 0.683376 -0.138707
C15   C     C_R   0.016629 0.070835 0.719674 -0.158037
C16   C     C_R   0.077568 0.045160 0.640458 0.390131
C17   C     C_R   0.065223 0.109163 0.575327 -0.207212
C18   C     C_R   0.992599 0.197528 0.589419 -0.169814
H1    H     H_    0.621714 0.409075 0.986320 0.110957
C19   C     C_R   0.745174 0.176295 0.246528 -0.127990
C20   C     C_R   0.883386 0.184827 0.183762 -0.125953
C21   C     C_R   0.022304 0.255864 0.192145 0.360609
C22   C     C_R   0.010776 0.318675 0.259764 -0.215775
C23   C     C_R   0.859017 0.314342 0.317569 -0.130515
C24   C     C_R   0.732069 0.239877 0.311189 -0.062898
C25   C     C_3   0.516395 0.237070 0.311124 0.214627
C26   C     C_3   0.530842 0.166522 0.240586 0.204000
H2    H     H_    0.449927 0.303678 0.292138 0.075529
C27   C     C_R   0.494295 0.753517 0.686446 0.040035
C28   C     C_R   0.351587 0.685722 0.682562 -0.168367
C29   C     C_R   0.210060 0.686425 0.744976 -0.096889
C30   C     C_R   0.224002 0.745773 0.814319 0.346921
C31   C     C_R   0.376514 0.811601 0.819248 -0.157382
C32   C     C_R   0.505371 0.815369 0.752502 0.016221
C33   C     C_3   0.720108 0.813718 0.752986 -0.418318
C34   C     C_3   0.708309 0.745340 0.681133 0.234845
H3    H     H_    0.782695 0.881858 0.736199 0.185313
C35   C     C_R   0.513588 0.744570 0.308492 0.037465
C36   C     C_R   0.353253 0.687337 0.318436 -0.101422
C37   C     C_R   0.201467 0.698112 0.261703 -0.196884
H4    H     H_    0.080163 0.652372 0.264933 0.189008
C38   C     C_R   0.212587 0.762274 0.196160 -0.188542
H5    H     H_    0.096436 0.765648 0.151604 0.135066
C39   C     C_R   0.377936 0.816728 0.184628 -0.077340
C40   C     C_R   0.525594 0.808351 0.243347 0.060751
C41   C     C_3   0.732492 0.787723 0.228243 -0.479257
C42   C     C_3   0.718852 0.716929 0.297952 0.196258
H6    H     H_    0.825595 0.847574 0.244090 0.162728
H7    H     H_    0.757706 0.757671 0.165658 0.175095
O11   O     O_R   0.229140 0.916090 0.913340 -0.541868
O12   O     O_R   0.558860 0.905090 0.086080 -0.540263
O13   O     O_R   0.729100 0.083920 0.086690 -0.545434
C43   C     C_R   0.390057 0.882911 0.114692 0.721727
O14   O     O_R   0.558860 0.905090 0.913930 -0.537905
O15   O     O_R   0.729100 0.083920 0.913310 -0.539622
C44   C     C_R   0.389511 0.881049 0.886853 0.685477
O16   O     O_R   0.229140 0.916080 0.086720 -0.544582
O17   O     O_3   0.395570 0.058660 0.000020 -0.358741
V3    V     V_3+5 0.670450 0.989140 0.000000 1.448412
O18   O     O_R   0.058810 0.094980 0.913910 -0.536235
C45   C     C_R   0.889828 0.117083 0.885568 0.683473
O19   O     O_R   0.058810 0.094980 0.086060 -0.504628
C46   C     C_R   0.890154 0.117772 0.114187 0.749233
V4    V     V_3+5 0.170450 0.010950 0.999970 1.496778
O20   O     O_3   0.895460 0.941370 0.999990 -0.377983
H8    H     H_    0.110927 0.090564 0.513278 0.139583
H9    H     H_    0.114575 0.374202 0.264454 0.108920
O21   O     O_3   0.436239 0.201630 0.384937 -0.615906
H10   H     H_    0.528399 0.157646 0.410675 0.297681
H11   H     H_    0.473076 0.191366 0.180343 0.128020
O22   O     O_3   0.462498 0.077749 0.261358 -0.618049
H12   H     H_    0.554299 0.047815 0.300274 0.295364
H13   H     H_    0.095951 0.635553 0.743517 0.128314
O23   O     O_3   0.094209 0.732007 0.877842 -0.652188
H14   H     H_    0.150905 0.754184 0.930558 0.279896
H15   H     H_    0.778058 0.782679 0.810850 0.208504
H16   H     H_    0.762595 0.675052 0.696294 0.123621
H17   H     H_    0.708569 0.480835 0.731754 0.115736
O24   O     O_3   0.783544 0.779966 0.606181 -0.622090
H18   H     H_    0.721897 0.840447 0.593999 0.303695
H19   H     H_    0.809056 0.733228 0.353046 0.133036
O25   O     O_3   0.739344 0.624692 0.271010 -0.647636
H20   H     H_    0.657317 0.614923 0.221220 0.292416
O26   O     O_3   0.585423 0.542783 0.870843 -0.651250
H21   H     H_    0.547777 0.550091 0.929857 0.283210
H22   H     H_    0.749724 0.256148 0.963101 0.120858
H23   H     H_    0.026441 0.019183 0.768110 0.126636
O27   O     O_3   0.147411 0.956870 0.628771 -0.641970
H24   H     H_    0.184192 0.949434 0.569671 0.288791
H25   H     H_    0.983859 0.243645 0.536634 0.130967
O28   O     O_3   0.159261 0.266955 0.130975 -0.652331
H26   H     H_    0.240921 0.320961 0.144761 0.261139

loop_
_geom_bond_atom_site_label_1
_geom_bond_atom_site_label_2
_ccdc_geom_bond_type
O14   C44   A    
O12   C43   A    
C6    O26   S    
C27   C28   A    
C7    C8    A    
C12   C15   A    
O18   V4    S    
C7    H1    S    
C33   H3    S    
C31   C32   A    
C37   H4    S    
C15   H23   S    
C17   C18   A    
O19   V4    S    
O22   H12   S    
C35   C42   S    
C23   C24   A    
C21   C22   A    
O5    C3    A    
C25   C26   S    
C19   C26   S    
C41   H6    S    
C39   C43   S    
C39   C40   A    
O16   V4    S    
C6    C7    A    
O13   V3    S    
C38   H5    S    
O8    V2    S    
C20   C46   S    
C17   H8    S    
C33   C34   S    
C25   O21   S    
C34   O24   S    
C27   C32   A    
O17   V3    S    
O15   C45   A    
C42   O25   S    
C3    C23   S    
O7    V1    S    
C1    O6    A    
C16   O27   S    
C41   H7    S    
O9    C4    A    
O11   V4    S    
C11   C45   S    
C30   O23   S    
C37   C38   A    
C20   C21   A    
C38   C39   A    
O19   C46   A    
C36   C37   A    
C29   H13   S    
C12   C13   A    
O24   H18   S    
O4    C2    A    
O23   H14   S    
O21   H10   S    
C35   C36   A    
C41   C42   S    
C4    C14   S    
C22   C23   A    
O2    C1    A    
C29   C30   A    
C24   C25   S    
O14   V3    S    
C11   C12   A    
O26   H21   S    
C18   H25   S    
C31   C44   S    
C5    C6    A    
O13   C46   A    
C19   C24   A    
V4    O20   S    
O3    C4    A    
O1    V2    S    
O12   V3    S    
O6    V2    S    
C34   H16   S    
C9    C11   A    
O17   V4    S    
C28   C29   A    
O2    V1    S    
V3    O20   S    
C30   C31   A    
C13   C18   A    
C32   C33   S    
C16   C17   A    
O1    C2    A    
C35   C40   A    
C5    H17   S    
C5    C10   A    
C26   H11   S    
O18   C45   A    
O5    V1    S    
O8    C3    A    
C21   O28   S    
O11   C44   A    
C33   H15   S    
O9    V2    S    
C13   C14   A    
C26   O22   S    
O4    V1    S    
O3    V1    S    
V1    O10   S    
C19   C20   A    
C25   H2    S    
C40   C41   S    
C1    C28   S    
C43   O16   A    
C22   H9    S    
O27   H24   S    
C27   C34   S    
O15   V3    S    
O7    V2    S    
O25   H20   S    
C2    C36   S    
C8    H22   S    
C8    C9    A    
C10   C14   A    
O28   H26   S    
C42   H19   S    
C9    C10   A    
V2    O10   S    
C15   C16   A    
