data_mof_unit_24096.cif
_audit_creation_date              2013-03-05T16:11:15-0500
_audit_creation_method            fapswitch 2.2
_symmetry_space_group_name_H-M    P1
_symmetry_Int_Tables_number       1
_space_group_crystal_system       triclinic
_cell_length_a                    6.951133
_cell_length_b                    20.538272
_cell_length_c                    24.48457
_cell_angle_alpha                 90.090195
_cell_angle_beta                  90.287151
_cell_angle_gamma                 89.302457
_cell_volume                      3495.21458183

loop_
_atom_site_label
_atom_site_type_symbol
_atom_site_description
_atom_site_fract_x
_atom_site_fract_y
_atom_site_fract_z
_atom_type_partial_charge
O1    O     O_R   0.507280 0.423750 0.460310 -0.588288
O2    O     O_R   0.171030 0.555650 0.437630 -0.581860
O3    O     O_R   0.004080 0.576250 0.539690 -0.581558
C1    C     C_R   0.339016 0.575607 0.421739 0.981366
O4    O     O_R   0.177330 0.422980 0.453960 -0.592550
O5    O     O_R   0.010420 0.442640 0.556140 -0.590922
C2    C     C_R   0.347350 0.399228 0.443063 0.921572
O6    O     O_R   0.500930 0.557360 0.443860 -0.589912
O7    O     O_3   0.340310 0.506600 0.533500 -0.274859
V1    V     V_3+5 0.064140 0.498780 0.493780 1.178257
O8    O     O_R   0.680890 0.444350 0.562370 -0.593638
C3    C     C_R   0.850591 0.424447 0.578205 0.972635
O9    O     O_R   0.674590 0.577020 0.546040 -0.606054
C4    C     C_R   0.842895 0.600846 0.556800 1.011497
V2    V     V_3+5 0.564550 0.501220 0.506220 1.165245
O10   O     O_3   0.838250 0.493400 0.466500 -0.270855
C5    C     C_R   0.972029 0.838563 0.910864 -0.097208
C6    C     C_R   0.851867 0.661900 0.588496 -0.263260
C7    C     C_R   0.963692 0.721038 0.908265 -0.160517
C8    C     C_R   0.978504 0.778759 0.937755 -0.162344
C9    C     C_R   0.951630 0.840383 0.853707 -0.243075
C10   C     C_R   0.937466 0.782001 0.822419 0.112035
C11   C     C_R   0.942566 0.722072 0.851209 0.172591
C12   C     C_R   0.918107 0.780820 0.763928 0.058122
C13   C     C_R   0.900922 0.719770 0.735610 0.072797
C14   C     C_R   0.904988 0.661978 0.766724 -0.196124
C15   C     C_R   0.926142 0.663306 0.823118 -0.225646
C16   C     C_R   0.917224 0.838555 0.732767 -0.204071
C17   C     C_R   0.901132 0.837139 0.676271 -0.198815
C18   C     C_R   0.884241 0.778390 0.648180 0.134348
C19   C     C_R   0.882331 0.718609 0.677076 0.129503
C20   C     C_R   0.871812 0.779386 0.590980 -0.348567
C21   C     C_R   0.854046 0.721706 0.561078 0.537931
C22   C     C_R   0.864508 0.660350 0.645847 -0.321064
H1    H     H_    0.929466 0.617502 0.845087 0.145446
H2    H     H_    0.862147 0.612909 0.664493 0.126566
H3    H     H_    0.902645 0.882870 0.654208 0.130711
H4    H     H_    0.968026 0.675263 0.930238 0.130759
H5    H     H_    0.993473 0.776812 0.981795 0.114256
H6    H     H_    0.945734 0.887968 0.835310 0.098407
H7    H     H_    0.893454 0.614351 0.748710 0.135332
H8    H     H_    0.930811 0.886136 0.750738 0.129733
H9    H     H_    0.878356 0.825186 0.569143 0.142208
H10   H     H_    0.622051 0.196748 0.786563 0.122836
C23   C     C_R   0.731705 0.264742 0.727878 -0.169763
H11   H     H_    0.590664 0.275064 0.710725 0.118002
C24   C     C_R   0.894684 0.295649 0.706979 0.182433
C25   C     C_R   0.075795 0.281312 0.730027 -0.176605
H12   H     H_    0.203385 0.304592 0.714524 0.121110
C26   C     C_R   0.093708 0.236672 0.773280 -0.165867
H13   H     H_    0.234710 0.226369 0.790486 0.121210
C27   C     C_R   0.930762 0.205627 0.794043 0.183476
C28   C     C_R   0.749636 0.220059 0.771078 -0.187686
C29   C     C_1   0.876622 0.341482 0.661807 -0.031428
C30   C     C_1   0.948746 0.159387 0.838884 -0.035300
C31   C     C_1   0.961533 0.121022 0.876540 -0.279543
C32   C     C_1   0.863240 0.379484 0.623876 -0.289370
H14   H     H_    0.698049 0.699321 0.294244 0.123705
C33   C     C_R   0.596072 0.765797 0.232246 -0.172517
H15   H     H_    0.740038 0.777516 0.219032 0.117977
C34   C     C_R   0.435537 0.794960 0.206661 0.181700
C35   C     C_R   0.250622 0.778676 0.224788 -0.176787
H16   H     H_    0.124622 0.800504 0.205700 0.120465
C36   C     C_R   0.226595 0.734016 0.267706 -0.171406
H17   H     H_    0.082652 0.722356 0.280986 0.120119
C37   C     C_R   0.387135 0.704759 0.293200 0.181693
C38   C     C_R   0.572041 0.721114 0.275134 -0.175355
C39   C     C_1   0.459512 0.841007 0.161776 -0.028539
C40   C     C_1   0.363319 0.658675 0.338035 -0.032360
C41   C     C_1   0.348501 0.620618 0.375905 -0.277131
C42   C     C_1   0.475075 0.879208 0.124017 -0.289003
C43   C     C_R   0.461880 0.163279 0.086983 -0.312086
C44   C     C_R   0.362590 0.338731 0.410692 -0.097777
C45   C     C_R   0.359234 0.276942 0.088539 0.236472
C46   C     C_R   0.408141 0.220411 0.059033 0.393428
C47   C     C_R   0.474211 0.163570 0.144222 -0.303422
C48   C     C_R   0.429350 0.220345 0.175333 0.109064
C49   C     C_R   0.374627 0.277627 0.146331 -0.068197
C50   C     C_R   0.432448 0.221793 0.234189 0.107938
C51   C     C_R   0.388631 0.281187 0.262903 0.058182
C52   C     C_R   0.343259 0.337020 0.231931 -0.219125
C53   C     C_R   0.336424 0.335157 0.175347 -0.091527
C54   C     C_R   0.475001 0.165601 0.265361 -0.203985
C55   C     C_R   0.474570 0.166987 0.322044 -0.241236
C56   C     C_R   0.433892 0.224342 0.350437 0.183392
C57   C     C_R   0.391064 0.282697 0.321667 0.108726
C58   C     C_R   0.438089 0.223588 0.407759 -0.174809
C59   C     C_R   0.404066 0.280308 0.437511 -0.162612
C60   C     C_R   0.354928 0.340029 0.353235 -0.239756
H18   H     H_    0.301656 0.380159 0.154380 0.175413
H19   H     H_    0.326116 0.386718 0.334762 0.102755
H20   H     H_    0.412970 0.278851 0.481690 0.109439
H21   H     H_    0.507592 0.122390 0.344003 0.134880
H22   H     H_    0.514025 0.117989 0.163034 0.130524
H23   H     H_    0.309789 0.383446 0.250222 0.132869
H24   H     H_    0.507864 0.119027 0.247296 0.131969
H25   H     H_    0.471029 0.179010 0.429718 0.116674
O11   O     O_R   0.323320 0.942780 0.056240 -0.590995
O12   O     O_R   0.647300 0.077050 0.046060 -0.608770
O13   O     O_R   0.813840 0.057330 0.943840 -0.596911
C61   C     C_R   0.477360 0.101202 0.056567 1.016596
O14   O     O_R   0.653250 0.944380 0.062400 -0.592106
O15   O     O_R   0.819830 0.923720 0.960300 -0.588489
C62   C     C_R   0.485153 0.924450 0.078318 0.972361
O16   O     O_R   0.317330 0.076390 0.039790 -0.571847
O17   O     O_3   0.483830 0.993470 0.966560 -0.274909
V3    V     V_3+5 0.760140 0.001210 0.006210 1.162222
O18   O     O_R   0.149290 0.922840 0.953850 -0.593077
C63   C     C_R   0.980960 0.899067 0.943145 0.922709
O19   O     O_R   0.143340 0.055500 0.937510 -0.583617
C64   C     C_R   0.973744 0.075668 0.921892 0.990724
V4    V     V_3+5 0.259690 0.998600 0.993650 1.180082
O20   O     O_3   0.986130 0.006520 0.033440 -0.272442
N1    N     N_R   0.281474 0.332182 0.059598 0.248641
O21   O     O_R   0.375472 0.357689 0.019298 -0.374572
O22   O     O_R   0.107679 0.352837 0.069901 -0.392095
O23   O     O_3   0.378077 0.219060 0.003091 -0.611901
C65   C     C_3   0.556288 0.226442 0.976429 0.319141
H26   H     H_    0.651626 0.183358 0.983265 0.080735
H27   H     H_    0.632166 0.270838 0.990773 0.140864
C66   C     C_3   0.520521 0.232941 0.915336 -0.833513
H28   H     H_    0.422262 0.274868 0.907091 0.275244
H29   H     H_    0.658756 0.241215 0.894130 0.210783
H30   H     H_    0.454740 0.187780 0.899124 0.240050
O24   O     O_3   0.856756 0.723348 0.504643 -0.641638
C67   C     C_3   0.672450 0.741934 0.485438 0.255231
H31   H     H_    0.628357 0.790627 0.501526 0.091414
H32   H     H_    0.563539 0.705225 0.497266 0.101469
C68   C     C_3   0.676916 0.746043 0.423475 -0.870201
H33   H     H_    0.717111 0.697885 0.405937 0.257298
H34   H     H_    0.532855 0.760907 0.407790 0.215497
H35   H     H_    0.783724 0.782601 0.410441 0.252630

loop_
_geom_bond_atom_site_label_1
_geom_bond_atom_site_label_2
_geom_bond_distance
_ccdc_geom_bond_type
C13   C19   1.438542 A    
C50   C54   1.412136 A    
C58   C59   1.391403 A    
C67   H31   1.114342 S    
C4    C6    1.475423 S    
O2    C1    1.303692 A    
C7    C8    1.391722 A    
C46   O23   1.384805 S    
C43   C47   1.403660 A    
C1    C41   1.457315 S    
N1    O21   1.300541 A    
C2    C44   1.475722 S    
O17   V4    1.698422 S    
C56   C57   1.418856 A    
C14   C15   1.388113 A    
C35   H16   1.083286 S    
C16   C17   1.387537 A    
O5    C3    1.297133 A    
C18   C19   1.418252 A    
C52   H23   1.076190 S    
C37   C40   1.461939 S    
O17   V3    2.155219 S    
V2    O10   2.145184 S    
C45   N1    1.437098 S    
C5    C8    1.394649 A    
O18   C63   1.298703 A    
C16   H8    1.076089 S    
C65   H26   1.111412 S    
V3    O20   1.708079 S    
C66   H30   1.110992 S    
C35   C36   1.407830 A    
C47   H22   1.076525 S    
O19   C64   1.300640 A    
O8    V2    1.969581 S    
H10   C28   1.083396 S    
C24   C25   1.405144 A    
C42   C62   1.458041 S    
C26   C27   1.404386 A    
O1    V2    1.989710 S    
C11   C15   1.393834 A    
C60   H19   1.077012 S    
O7    V1    2.155257 S    
C31   C64   1.452007 S    
C27   C30   1.456683 S    
C1    O6    1.297996 A    
C68   H35   1.110628 S    
C33   C38   1.407602 A    
C23   C24   1.404480 A    
C37   C38   1.406124 A    
C23   C28   1.405522 A    
C33   H15   1.083240 S    
O9    C4    1.299229 A    
C34   C35   1.406301 A    
C43   C46   1.405009 A    
V4    O20   2.145239 S    
C52   C53   1.386500 A    
C65   H27   1.114354 S    
C48   C50   1.441404 A    
C61   O16   1.293992 A    
C33   C34   1.405102 A    
O11   V4    1.960838 S    
C45   C46   1.405603 A    
C56   C58   1.403772 A    
C59   H20   1.083600 S    
C55   C56   1.393610 A    
C12   C13   1.437795 A    
O4    C2    1.301767 A    
C8    H5    1.083534 S    
C67   C68   1.520114 S    
C15   H1    1.084340 S    
C13   C14   1.411328 A    
C48   C49   1.421979 A    
C5    C9    1.406452 A    
O18   V4    1.994091 S    
C65   C66   1.520943 S    
C36   C37   1.404948 A    
C7    C11   1.404108 A    
C44   C59   1.395085 A    
C17   C18   1.393828 A    
C7    H4    1.083959 S    
C49   C53   1.401053 A    
C54   C55   1.388141 A    
C30   C31   1.215974 T    
C21   O24   1.382480 S    
C26   H13   1.083513 S    
C19   C22   1.425298 A    
O14   V3    1.960509 S    
C47   C48   1.424048 A    
O14   C62   1.304409 A    
C6    C22   1.406924 A    
C66   H28   1.110674 S    
O3    C4    1.294713 A    
C24   C29   1.457462 S    
C3    C32   1.453011 S    
C25   H12   1.083319 S    
O12   C61   1.302317 A    
O16   V4    1.998680 S    
O6    V2    1.960274 S    
O9    V2    1.993998 S    
C45   C49   1.418563 A    
O24   C67   1.410937 S    
C10   C12   1.437968 A    
O2    V1    1.960316 S    
C27   C28   1.404820 A    
C68   H33   1.110800 S    
O13   V3    1.954895 S    
C67   H32   1.114538 S    
O1    C2    1.294644 A    
C12   C16   1.410964 A    
C51   C52   1.407501 A    
C57   C60   1.427891 A    
C5    C63   1.473444 S    
O5    V1    1.954973 S    
N1    O22   1.301256 A    
O8    C3    1.301182 A    
O12   V3    1.991624 S    
C51   C57   1.439116 A    
C53   H18   1.082150 S    
O15   C63   1.295186 A    
C20   C21   1.398065 A    
O7    V2    1.701170 S    
C44   C60   1.407835 A    
O4    V1    1.991567 S    
O3    V1    1.988055 S    
V1    O10   1.708021 S    
O23   C65   1.413041 S    
C36   H17   1.083312 S    
C18   C20   1.402918 A    
C34   C39   1.462485 S    
C9    H6    1.077002 S    
C39   C42   1.219584 T    
O11   C62   1.297549 A    
C54   H24   1.075710 S    
C25   C26   1.405901 A    
C20   H9    1.084280 S    
C22   H2    1.077000 S    
C55   H21   1.084386 S    
C40   C41   1.219224 T    
C6    C21   1.401005 A    
O19   V4    1.969800 S    
C66   H29   1.109526 S    
C50   C51   1.437168 A    
C23   H11   1.083325 S    
H14   C38   1.083265 S    
O13   C64   1.297275 A    
C43   C61   1.478563 S    
C17   H3    1.084420 S    
C10   C11   1.419352 A    
O15   V3    1.987863 S    
C68   H34   1.110202 S    
C9    C10   1.426021 A    
C14   H7    1.076110 S    
C58   H25   1.083943 S    
C29   C32   1.216552 T    
