data_mof_unit_21365.cif
_audit_creation_date              2013-03-05T16:48:18-0500
_audit_creation_method            fapswitch 2.2
_symmetry_space_group_name_H-M    P1
_symmetry_Int_Tables_number       1
_space_group_crystal_system       triclinic
_cell_length_a                    23.506844
_cell_length_b                    8.926992
_cell_length_c                    8.087816
_cell_angle_alpha                 89.912695
_cell_angle_beta                  90.000302
_cell_angle_gamma                 89.999135
_cell_volume                      1697.18908052

loop_
_atom_site_label
_atom_site_type_symbol
_atom_site_description
_atom_site_fract_x
_atom_site_fract_y
_atom_site_fract_z
_atom_type_partial_charge
O1    O     O_R   0.500000 0.285350 0.636850 -0.609503
O2    O     O_R   0.500000 0.714650 0.363150 -0.609487
O3    O     O_R   0.500000 0.714650 0.636850 -0.608372
O4    O     O_R   0.500000 0.285350 0.363150 -0.608356
H1    H     H_    0.947809 0.126026 0.569398 0.190724
H2    H     H_    0.051053 0.874752 0.437010 0.191246
H3    H     H_    0.947757 0.873848 0.429744 0.190746
H4    H     H_    0.051105 0.125213 0.562130 0.191286
C1    C     C_R   0.500028 0.217932 0.500080 0.945440
C2    C     C_R   0.500029 0.782068 0.499920 0.945433
O5    O     O_R   0.416160 0.500000 0.636910 -0.597071
O6    O     O_R   0.583840 0.500000 0.363090 -0.599760
O7    O     O_R   0.583840 0.500000 0.636910 -0.599755
O8    O     O_R   0.416160 0.500000 0.363090 -0.597082
C3    C     C_R   0.207746 0.500070 0.499796 0.210543
C4    C     C_R   0.791303 0.499908 0.499789 0.212175
C5    C     C_R   0.388963 0.500019 0.499997 0.915178
C6    C     C_R   0.610844 0.499985 0.499999 0.920260
Zn1   Zn    Zn3+2 0.500000 0.500000 0.682780 1.061426
Zn2   Zn    Zn3+2 0.500000 0.500000 0.317220 1.061430
H5    H     H_    0.214282 0.617475 0.267975 0.183120
H6    H     H_    0.784936 0.340770 0.301004 0.182645
H7    H     H_    0.214207 0.382684 0.731656 0.183085
H8    H     H_    0.785011 0.659038 0.698609 0.182624
C7    C     C_R   0.296443 0.570717 0.369953 0.125167
C8    C     C_R   0.702703 0.407617 0.388217 0.114470
C9    C     C_R   0.296404 0.429469 0.629935 0.125178
C10   C     C_R   0.702742 0.592211 0.611669 0.114475
C11   C     C_R   0.326778 0.500079 0.499974 -0.168326
C12   C     C_R   0.672686 0.499928 0.499980 -0.157836
C13   C     C_R   0.880338 0.631523 0.471314 0.520567
C14   C     C_R   0.118439 0.366644 0.514474 0.518616
C15   C     C_R   0.880357 0.368312 0.527961 0.520562
C16   C     C_R   0.118418 0.633396 0.484797 0.518608
N1    N     N_R   0.852025 0.499912 0.499678 -0.348789
N2    N     N_R   0.146884 0.500036 0.499680 -0.347334
C17   C     C_R   0.939727 0.365091 0.525422 -0.016664
C18   C     C_R   0.059058 0.635521 0.479381 -0.016337
C19   C     C_R   0.939708 0.634780 0.473751 -0.016687
C20   C     C_R   0.059078 0.364455 0.519790 -0.016365
C21   C     C_R   0.969512 0.499947 0.499575 -0.020068
C22   C     C_R   0.029270 0.499974 0.499575 -0.019843
C23   C     C_R   0.969833 0.230909 0.548654 -0.157205
C24   C     C_R   0.028978 0.769550 0.454817 -0.156820
C25   C     C_R   0.969796 0.768984 0.450483 -0.157186
C26   C     C_R   0.029015 0.230395 0.544318 -0.156806
C27   C     C_1   0.500063 0.065188 0.500114 -0.136961
C28   C     C_1   0.500063 0.934812 0.499886 -0.136961
C29   C     C_R   0.237418 0.566423 0.369295 -0.109749
C30   C     C_R   0.761744 0.410195 0.387612 -0.105833
C31   C     C_R   0.237377 0.433747 0.630411 -0.109832
C32   C     C_R   0.761785 0.589618 0.612079 -0.105904
N3    N     N_1   0.500000 0.500000 0.073640 0.004356
N4    N     N_1   0.500000 0.500000 0.926360 0.004348
O9    O     O_2   0.851034 0.758423 0.439596 -0.524169
O10   O     O_2   0.147544 0.236425 0.522284 -0.522434
O11   O     O_2   0.851075 0.241393 0.559726 -0.524204
O12   O     O_2   0.147500 0.763647 0.477020 -0.522490
I1    I     I_    0.334090 0.696623 0.174007 -0.237191
I2    I     I_    0.663279 0.253187 0.223705 -0.237587
I3    I     I_    0.333995 0.303613 0.826021 -0.237200
I4    I     I_    0.663374 0.746634 0.776328 -0.237542

loop_
_geom_bond_atom_site_label_1
_geom_bond_atom_site_label_2
_geom_bond_distance
_ccdc_geom_bond_type
H8    C32   1.083146 S    
C10   I4    2.129752 S    
C18   C24   1.403656 A    
C6    C12   1.453703 S    
C3    C31   1.396320 A    
C9    C11   1.417719 A    
C5    C11   1.461771 S    
C21   C22   1.404729 A    
H7    C31   1.083432 S    
C27   C28   1.163865 T    
C19   C25   1.403656 A    
H6    C30   1.083177 S    
O3    Zn1   1.951297 S    
O6    Zn2   2.005426 S    
H5    C29   1.083437 S    
H1    C23   1.082755 S    
C19   C21   1.407989 A    
O3    C2    1.259628 A    
H2    C24   1.082399 S    
N3    N4    1.191173 T    
C3    C29   1.396248 A    
C20   C26   1.403658 A    
C10   C32   1.388113 A    
O8    C5    1.278595 A    
O5    Zn1   2.005428 S    
O7    C6    1.276361 A    
C17   C21   1.407989 A    
H3    C25   1.082752 S    
Zn1   N4    1.970030 S    
C10   C12   1.412842 A    
C15   N1    1.369373 A    
C9    C31   1.388074 A    
C18   C22   1.407335 A    
C16   N2    1.370802 A    
C8    C30   1.388072 A    
C4    N1    1.427383 S    
C2    C28   1.363545 S    
C4    C30   1.396267 A    
C23   C26   1.391648 A    
C7    C29   1.388032 A    
C17   C23   1.403653 A    
O1    Zn1   1.952410 S    
C1    C27   1.363546 S    
O7    Zn1   2.005430 S    
O2    Zn2   1.952409 S    
O4    Zn2   1.951298 S    
C14   N2    1.370769 A    
C3    N2    1.430660 S    
C14   C20   1.396188 A    
O1    C1    1.260100 A    
C24   C25   1.391642 A    
O8    Zn2   2.005432 S    
Zn2   N3    1.970030 S    
O6    C6    1.276337 A    
C16   O12   1.350214 S    
C13   N1    1.369355 A    
C20   C22   1.407340 A    
O5    C5    1.278623 A    
C15   O11   1.350058 S    
C7    I1    2.133677 S    
H4    C26   1.082399 S    
C13   O9    1.350071 S    
O4    C1    1.259627 A    
C16   C18   1.396170 A    
C8    I2    2.129626 S    
C14   O10   1.350248 S    
O2    C2    1.260100 A    
C15   C17   1.396051 A    
C4    C32   1.396351 A    
C13   C19   1.396061 A    
C7    C11   1.417718 A    
C8    C12   1.412895 A    
C9    I3    2.133715 S    
