data_mof_unit_38292.cif
_audit_creation_date              2012-12-10T19:52:21-0500
_audit_creation_method            fapswitch 2.2
_symmetry_space_group_name_H-M    P1
_symmetry_Int_Tables_number       1
_space_group_crystal_system       triclinic
_cell_length_a                    14.995922
_cell_length_b                    14.23936
_cell_length_c                    10.683154
_cell_angle_alpha                 88.909386
_cell_angle_beta                  91.734997
_cell_angle_gamma                 90.020329
_cell_volume                      2279.73985676

loop_
_atom_site_label
_atom_site_type_symbol
_atom_type_description
_atom_site_fract_x
_atom_site_fract_y
_atom_site_fract_z
_atom_type_partial_charge
C1    C     C_R   0.328051 0.499807 0.513595 0.844712
C2    C     C_R   0.901836 0.548278 0.619750 0.016276
C3    C     C_R   0.813564 0.439234 0.437768 -0.223952
C4    C     C_R   0.809664 0.552797 0.604285 -0.241026
C5    C     C_R   0.766653 0.498644 0.513596 -0.024763
C6    C     C_R   0.950298 0.493465 0.535755 0.014959
C7    C     C_R   0.441949 0.100575 0.444211 -0.299930
C8    C     C_R   0.486493 0.903702 0.408583 -0.290429
C9    C     C_R   0.507678 0.500688 0.258190 0.863281
C10   C     C_R   0.447554 0.197811 0.422367 0.177314
C11   C     C_R   0.478006 0.805750 0.398627 0.188470
C12   C     C_3   0.600115 0.530936 0.923062 -0.451330
C13   C     C_R   0.552071 0.209008 0.591650 0.001537
C14   C     C_R   0.528343 0.788232 0.609940 0.008322
C15   C     C_R   0.555715 0.109701 0.604733 -0.285503
C16   C     C_R   0.530584 0.887127 0.623910 -0.292231
C17   C     C_R   0.500914 0.053272 0.527907 0.109229
C18   C     C_R   0.507467 0.946971 0.522079 0.122358
C19   C     C_R   0.671689 0.499876 0.502553 0.896226
C20   C     C_R   0.501250 0.499091 0.742118 0.813823
C21   C     C_3   0.434073 0.561817 0.068028 -0.412363
C22   C     C_3   0.494990 0.400372 0.073344 -0.339857
C23   C     C_R   0.090550 0.580935 0.529833 -0.197536
C24   C     C_3   0.432758 0.563504 0.925380 -0.395111
C25   C     C_3   0.491567 0.397910 0.931490 -0.406453
C26   C     C_3   0.604227 0.542618 0.068959 -0.069817
C27   C     C_3   0.512787 0.501693 0.120816 -0.007227
C28   C     C_3   0.506204 0.497945 0.878068 0.156486
C29   C     C_R   0.407013 0.230813 0.301209 0.132275
C30   C     C_R   0.326439 0.280695 0.294682 -0.111231
C31   C     C_R   0.277553 0.289867 0.181672 -0.204275
C32   C     C_R   0.306272 0.245516 0.074666 -0.141140
C33   C     C_R   0.385864 0.194547 0.079812 -0.149118
C34   C     C_R   0.093721 0.413145 0.564716 -0.208100
C35   C     C_R   0.436628 0.188593 0.191525 -0.207073
C36   C     C_R   0.433832 0.774484 0.279948 0.137590
C37   C     C_R   0.460262 0.814646 0.165021 -0.158558
C38   C     C_R   0.403925 0.812351 0.058298 -0.147755
C39   C     C_R   0.320595 0.768859 0.064068 -0.139558
C40   C     C_R   0.294290 0.726949 0.176267 -0.200433
C41   C     C_R   0.350528 0.730213 0.283052 -0.129526
C42   C     C_2   0.616043 0.647111 0.100776 0.923890
C43   C     C_2   0.687106 0.489996 0.121099 0.837359
C44   C     C_R   0.221866 0.679287 0.566623 0.138209
C45   C     C_R   0.182803 0.585139 0.540756 -0.013007
C46   C     C_R   0.280506 0.691163 0.670247 -0.070138
C47   C     C_R   0.315267 0.779702 0.697522 -0.150167
C48   C     C_R   0.290185 0.857803 0.623736 -0.109341
C49   C     C_R   0.229382 0.847731 0.523371 -0.137891
C50   C     C_R   0.194381 0.759237 0.495714 -0.206345
C51   C     C_R   0.230367 0.322315 0.604543 0.121658
C52   C     C_R   0.200875 0.236962 0.552568 -0.206004
C53   C     C_R   0.240695 0.151935 0.590422 -0.139353
C54   C     C_R   0.309888 0.150964 0.680741 -0.106913
C55   C     C_R   0.338870 0.234759 0.733768 -0.141797
C56   C     C_R   0.186377 0.412832 0.566664 -0.009382
C57   C     C_R   0.297754 0.319742 0.698630 -0.079751
C58   C     C_R   0.953029 0.385111 0.349298 0.114135
C59   C     C_R   0.001278 0.432524 0.256879 -0.129223
C60   C     C_R   0.040442 0.382216 0.161857 -0.157342
C61   C     C_R   0.032748 0.284418 0.159454 -0.112114
C62   C     C_R   0.985552 0.236772 0.251871 -0.125139
C63   C     C_R   0.945154 0.286926 0.346062 -0.167516
C64   C     C_R   0.945703 0.600537 0.723973 0.112599
C65   C     C_R   0.003700 0.554242 0.810843 -0.116145
C66   C     C_R   0.048107 0.604648 0.904927 -0.141838
C67   C     C_R   0.232258 0.499297 0.542664 -0.166551
C68   C     C_R   0.034178 0.701215 0.914213 -0.099620
C69   C     C_R   0.975516 0.747519 0.829725 -0.112393
C70   C     C_R   0.931256 0.697513 0.735090 -0.166290
C71   C     C_R   0.046868 0.495569 0.540442 0.072609
C72   C     C_R   0.905777 0.438710 0.444349 0.001857
H1    H     H_    0.441798 0.633837 0.100879 0.228429
H2    H     H_    0.548945 0.915933 0.714085 0.137828
H3    H     H_    0.369203 0.534780 0.102054 0.171905
H4    H     H_    0.429091 0.378041 0.106543 0.208540
H5    H     H_    0.366076 0.539823 0.890001 0.140242
H6    H     H_    0.425335 0.371414 0.900138 0.164710
H7    H     H_    0.443107 0.636917 0.891037 0.205438
H8    H     H_    0.543220 0.348468 0.899182 0.191324
H9    H     H_    0.619466 0.595304 0.870450 0.205090
H10   H     H_    0.649593 0.477935 0.893549 0.161725
H11   H     H_    0.051544 0.644932 0.520957 0.144637
H12   H     H_    0.543719 0.348078 0.111816 0.233291
H13   H     H_    0.057047 0.349099 0.584153 0.137355
H14   H     H_    0.298220 0.308090 0.376870 0.170671
H15   H     H_    0.216299 0.329549 0.178120 0.148304
H16   H     H_    0.267067 0.250921 0.988132 0.137705
H17   H     H_    0.408161 0.158913 0.997969 0.128790
H18   H     H_    0.496803 0.146399 0.194475 0.137954
H19   H     H_    0.522331 0.853137 0.160254 0.133065
H20   H     H_    0.424577 0.845467 0.971931 0.132571
H21   H     H_    0.276659 0.767263 0.981892 0.135769
H22   H     H_    0.229500 0.693787 0.181392 0.132587
H23   H     H_    0.778232 0.396810 0.369063 0.178561
H24   H     H_    0.326354 0.704223 0.369686 0.181046
H25   H     H_    0.628454 0.781520 0.038935 0.332628
H26   H     H_    0.815178 0.498090 0.184664 0.344909
H27   H     H_    0.299575 0.631610 0.729227 0.099066
H28   H     H_    0.362075 0.787637 0.775488 0.115314
H29   H     H_    0.317817 0.926075 0.644410 0.122579
H30   H     H_    0.209718 0.908391 0.466521 0.128404
H31   H     H_    0.148126 0.752664 0.416549 0.127179
H32   H     H_    0.148423 0.236456 0.480598 0.143097
H33   H     H_    0.218544 0.086951 0.548763 0.126333
H34   H     H_    0.771000 0.595328 0.666083 0.144864
H35   H     H_    0.341710 0.085497 0.709098 0.120451
H36   H     H_    0.393535 0.233482 0.801718 0.115995
H37   H     H_    0.319041 0.384021 0.742760 0.096235
H38   H     H_    0.006982 0.508361 0.257111 0.133166
H39   H     H_    0.076921 0.418921 0.090097 0.116286
H40   H     H_    0.063531 0.245586 0.086091 0.125041
H41   H     H_    0.979658 0.161057 0.249931 0.128780
H42   H     H_    0.907650 0.249472 0.416253 0.129825
H43   H     H_    0.015031 0.479362 0.805124 0.125439
H44   H     H_    0.093595 0.568986 0.970421 0.111866
H45   H     H_    0.393891 0.061526 0.388201 0.143449
H46   H     H_    0.068813 0.740131 0.986917 0.117218
H47   H     H_    0.964766 0.822343 0.837050 0.128134
H48   H     H_    0.887102 0.734649 0.669086 0.135624
H49   H     H_    0.472703 0.947042 0.326165 0.133803
H50   H     H_    0.593100 0.251391 0.653518 0.132488
H51   H     H_    0.547833 0.744376 0.689643 0.154278
H52   H     H_    0.601842 0.077874 0.672856 0.139618
N1    N     N_R   0.499980 0.252470 0.500000 -0.106755
N2    N     N_R   0.499980 0.747530 0.500000 -0.106179
O1    O     O_R   0.369070 0.579480 0.500010 -0.629031
O2    O     O_R   0.611104 0.717276 0.007176 -0.844939
O3    O     O_2   0.691377 0.404417 0.116932 -0.657749
O4    O     O_R   0.761905 0.540037 0.164639 -0.778967
O5    O     O_R   0.369070 0.420520 0.500010 -0.619541
O6    O     O_R   0.499990 0.579480 0.314790 -0.589140
O7    O     O_R   0.499990 0.420520 0.314790 -0.619704
O8    O     O_R   0.630940 0.579480 0.499990 -0.586511
O9    O     O_R   0.630940 0.420520 0.499990 -0.632996
O10   O     O_R   0.500020 0.579480 0.685200 -0.649341
O11   O     O_R   0.500020 0.420520 0.685200 -0.639971
O12   O     O_2   0.632399 0.669734 0.208992 -0.587179
Zn1   Zn    Zn3+2 0.500010 0.606140 0.500000 0.973251
Zn2   Zn    Zn3+2 0.500010 0.393860 0.500000 0.948528

loop_
_geom_bond_atom_site_label_1
_geom_bond_atom_site_label_2
_ccdc_geom_bond_type
C7    C10   A    
C66   C68   A    
C46   H27   S    
C34   C56   A    
C23   C45   A    
C21   H1    S    
C42   O12   D    
C25   H8    S    
C7    H45   S    
C22   H4    S    
C53   C54   A    
C52   C53   A    
C19   O8    A    
C6    C72   A    
C26   C42   S    
C26   C27   S    
C37   C38   A    
C23   H11   S    
C54   H35   S    
C12   C28   S    
C16   H2    S    
C11   C36   S    
H25   O2    S    
C30   C31   A    
C8    H49   S    
C41   H24   S    
C19   O9    A    
C32   H16   S    
C38   H20   S    
C59   H38   S    
C51   C56   S    
C39   H21   S    
O5    Zn2   S    
C68   H46   S    
C54   C55   A    
C63   H42   S    
C57   H37   S    
C47   C48   A    
C44   C46   A    
C68   C69   A    
C7    C17   A    
C22   C25   S    
C45   C67   A    
C51   C57   A    
C64   C70   A    
C30   H14   S    
C10   N1    A    
C61   C62   A    
C42   O2    S    
C13   N1    A    
C21   C27   S    
C1    C67   S    
C59   C60   A    
C65   H43   S    
C1    O1    A    
C36   C41   A    
C2    C6    A    
O1    Zn1   S    
O10   Zn1   S    
C2    C64   S    
C26   C43   S    
N1    Zn2   S    
O9    Zn2   S    
O11   Zn2   S    
N2    Zn1   S    
C31   H15   S    
C15   H52   S    
C37   H19   S    
C51   C52   A    
C23   C71   A    
C43   O3    D    
C11   N2    A    
C62   H41   S    
C70   H48   S    
C49   H30   S    
C20   C28   S    
C1    O5    A    
C58   C59   A    
C4    H34   S    
C69   H47   S    
C8    C18   A    
C47   H28   S    
C25   H6    S    
C12   C26   S    
C60   C61   A    
C25   C28   S    
C34   H13   S    
C22   H12   S    
C20   O11   A    
C2    C4    A    
C62   C63   A    
C33   H17   S    
C24   H7    S    
C31   C32   A    
H26   O4    S    
C17   C18   S    
C12   H10   S    
C20   O10   A    
C66   H44   S    
C40   C41   A    
C49   C50   A    
C22   C27   S    
C55   C57   A    
C14   C16   A    
O8    Zn1   S    
C44   C45   S    
C9    C27   S    
C9    O6    A    
C44   C50   A    
C58   C63   A    
C15   C17   A    
C29   C35   A    
C46   C47   A    
C36   C37   A    
C14   H51   S    
C43   O4    S    
C24   C28   S    
C40   H22   S    
C4    C5    A    
C3    C5    A    
C5    C19   S    
C56   C67   A    
C21   H3    S    
C14   N2    A    
C55   H36   S    
C64   C65   A    
C13   C15   A    
O6    Zn1   S    
C60   H39   S    
C32   C33   A    
C13   H50   S    
C10   C29   S    
C58   C72   S    
C38   C39   A    
C8    C11   A    
C48   C49   A    
C48   H29   S    
C33   C35   A    
C52   H32   S    
C12   H9    S    
C3    C72   A    
C69   C70   A    
C29   C30   A    
C39   C40   A    
C35   H18   S    
C53   H33   S    
C24   H5    S    
C50   H31   S    
O7    Zn2   S    
C16   C18   A    
C65   C66   A    
C21   C24   S    
C3    H23   S    
C61   H40   S    
C34   C71   A    
C6    C71   S    
C9    O7    A    
