data_mof_unit_21529.cif
_audit_creation_date              2012-12-10T20:30:10-0500
_audit_creation_method            fapswitch 2.2
_symmetry_space_group_name_H-M    P1
_symmetry_Int_Tables_number       1
_space_group_crystal_system       triclinic
_cell_length_a                    9.893122
_cell_length_b                    10.709126
_cell_length_c                    13.129371
_cell_angle_alpha                 90.467611
_cell_angle_beta                  70.162101
_cell_angle_gamma                 88.943089
_cell_volume                      1308.08938328

loop_
_atom_site_label
_atom_site_type_symbol
_atom_type_description
_atom_site_fract_x
_atom_site_fract_y
_atom_site_fract_z
_atom_type_partial_charge
C1    C     C_R   0.501266 0.740276 0.495704 0.888542
C2    C     C_R   0.435392 0.460806 0.982563 0.089594
C3    C     C_R   0.469792 0.432331 0.871780 0.086826
C4    C     C_R   0.546691 0.454367 0.027164 0.083077
C5    C     C_R   0.682051 0.398571 0.967556 0.178771
C6    C     C_R   0.706220 0.352668 0.863243 -0.257986
C7    C     C_R   0.601369 0.369049 0.815828 -0.198640
C8    C     C_R   0.527501 0.504606 0.129018 -0.236593
C9    C     C_R   0.762115 0.427088 0.121122 -0.204733
C10   C     C_R   0.371327 0.468715 0.820256 -0.135072
C11   C     C_R   0.400175 0.939333 0.458111 0.131086
C12   C     C_R   0.421020 0.489327 0.703455 0.869202
C13   C     C_R   0.511644 0.871672 0.475721 -0.111504
C14   C     C_R   0.639063 0.932974 0.468781 -0.215300
C15   C     C_R   0.640599 0.062209 0.468736 -0.230030
C16   C     C_R   0.514914 0.128978 0.474967 -0.104737
C17   C     C_R   0.401800 0.067021 0.458280 0.164946
C18   C     C_3   0.243961 0.080293 0.516430 -0.465509
C19   C     C_3   0.241744 0.939336 0.515779 -0.515121
C20   C     C_R   0.888901 0.549877 0.585534 0.216173
C21   C     C_R   0.963071 0.435806 0.423273 -0.192157
C22   C     C_R   0.106472 0.433924 0.423883 0.016568
C23   C     C_R   0.503290 0.260099 0.495385 0.871055
C24   C     C_R   0.031461 0.550384 0.585751 0.131832
C25   C     C_3   0.012934 0.683794 0.622325 -0.252896
C26   C     C_3   0.858273 0.680746 0.625728 -0.515602
C27   C     C_R   0.579840 0.499635 0.295822 0.872912
C28   C     C_R   0.789942 0.387382 0.014358 -0.195892
C29   C     C_R   0.628764 0.483112 0.179001 -0.051582
C30   C     C_R   0.228427 0.498233 0.882664 -0.181210
C31   C     C_R   0.187844 0.507303 0.994598 -0.145602
C32   C     C_R   0.290891 0.493311 0.044342 -0.184702
H1    H     H_    0.841729 0.409647 0.159427 0.149181
H2    H     H_    0.735189 0.108604 0.472569 0.171532
H3    H     H_    0.216828 0.121897 0.599059 0.205235
H4    H     H_    0.186573 0.123052 0.465403 0.208937
H5    H     H_    0.212613 0.899921 0.598319 0.214135
H6    H     H_    0.184387 0.902982 0.462582 0.200713
H7    H     H_    0.936759 0.385806 0.360672 0.145568
H8    H     H_    0.080116 0.744313 0.558984 0.163571
H9    H     H_    0.775847 0.685951 0.708213 0.209629
H10   H     H_    0.806911 0.305747 0.817652 0.147366
H11   H     H_    0.836839 0.743598 0.565939 0.199788
H12   H     H_    0.893203 0.343826 0.969974 0.139769
H13   H     H_    0.431293 0.557808 0.172941 0.149316
H14   H     H_    0.148910 0.516558 0.844785 0.174097
H15   H     H_    0.253655 0.503714 0.131365 0.134809
H16   H     H_    0.077400 0.530261 0.042616 0.150173
H17   H     H_    0.623401 0.328986 0.735796 0.175218
H18   H     H_    0.733458 0.882719 0.471721 0.165259
N1    N     N_R   0.856940 0.500860 0.500710 -0.107322
N2    N     N_R   0.142580 0.500820 0.500710 -0.133618
O1    O     O_R   0.385310 0.683210 0.499990 -0.614745
O2    O     O_R   0.614650 0.683240 0.500000 -0.618437
O3    O     O_R   0.328390 0.499940 0.653610 -0.610692
O4    O     O_R   0.557730 0.499980 0.653620 -0.610601
O5    O     O_R   0.385350 0.316760 0.500000 -0.613717
O6    O     O_R   0.614690 0.316790 0.500010 -0.631978
O7    O     O_R   0.442270 0.500020 0.346380 -0.610270
O8    O     O_R   0.671610 0.500060 0.346390 -0.620083
Zn1   Zn    Zn3+2 0.346870 0.499980 0.499990 0.951193
Zn2   Zn    Zn3+2 0.653130 0.500020 0.500010 0.935941
C33   C     C_1   0.211752 0.357648 0.343899 0.199748
N3    N     N_1   0.295382 0.295375 0.279486 -0.216138
C34   C     C_1   0.025513 0.704775 0.729407 0.217760
N4    N     N_1   0.034364 0.723486 0.813797 -0.227057

loop_
_geom_bond_atom_site_label_1
_geom_bond_atom_site_label_2
_ccdc_geom_bond_type
O6    Zn2   S    
C23   O6    A    
C2    C4    A    
C1    O2    A    
C24   N2    A    
C6    C7    A    
C19   H6    S    
C27   C29   S    
C5    C28   A    
C19   H5    S    
C18   H3    S    
C10   C30   A    
C15   H2    S    
C31   C32   A    
C21   H7    S    
C9    C29   A    
C30   C31   A    
C31   H16   S    
C16   C23   S    
C14   C15   A    
C17   C18   S    
C22   C33   S    
C3    C10   A    
C27   O7    A    
C13   C14   A    
O8    Zn2   S    
O5    Zn1   S    
C11   C13   A    
C11   C19   S    
C27   O8    A    
C12   O4    A    
N1    Zn2   S    
C10   C12   S    
C9    H1    S    
C8    C29   A    
O3    Zn1   S    
C22   N2    A    
C26   H9    S    
C28   H12   S    
C26   H11   S    
C2    C3    A    
C20   N1    A    
C3    C7    A    
N2    Zn1   S    
C25   H8    S    
C5    C6    A    
C32   H15   S    
O4    Zn2   S    
O7    Zn1   S    
C12   O3    A    
C1    C13   S    
C14   H18   S    
O1    Zn1   S    
C15   C16   A    
C16   C17   A    
C20   C24   A    
C21   N1    A    
C25   C34   S    
C24   C25   S    
C7    H17   S    
C2    C32   A    
C34   N4    T    
C6    H10   S    
C4    C8    A    
C23   O5    A    
C1    O1    A    
C8    H13   S    
C18   C19   S    
O2    Zn2   S    
C25   C26   S    
C21   C22   A    
C18   H4    S    
C30   H14   S    
C11   C17   A    
C33   N3    T    
C9    C28   A    
C4    C5    A    
C20   C26   S    
