data_mof_unit_66649.cif
_audit_creation_date              2012-12-10T17:49:41-0500
_audit_creation_method            fapswitch 2.2
_symmetry_space_group_name_H-M    P1
_symmetry_Int_Tables_number       1
_space_group_crystal_system       triclinic
_cell_length_a                    10.774551
_cell_length_b                    10.709831
_cell_length_c                    10.038974
_cell_angle_alpha                 88.382792
_cell_angle_beta                  88.232579
_cell_angle_gamma                 93.116888
_cell_volume                      1155.65065337

loop_
_atom_site_label
_atom_site_type_symbol
_atom_type_description
_atom_site_fract_x
_atom_site_fract_y
_atom_site_fract_z
_atom_type_partial_charge
C1    C     C_R   0.524544 0.264956 0.501910 0.913319
C2    C     C_R   0.525133 0.060497 0.625235 -0.073966
C3    C     C_R   0.557359 0.134381 0.508712 -0.176998
C4    C     C_R   0.257011 0.496783 0.501714 1.066343
C5    C     C_R   0.587500 0.075141 0.389262 0.268475
C6    C     C_R   0.568583 0.945469 0.383021 0.407464
C7    C     C_R   0.506418 0.878357 0.490813 -0.161884
C8    C     C_R   0.347587 0.305206 0.135522 0.445681
C9    C     C_R   0.288782 0.215569 0.048780 0.087443
C10   C     C_R   0.274669 0.248976 0.915446 0.262609
C11   C     C_R   0.312498 0.368349 0.872258 0.483031
C12   C     C_3   0.955898 0.435388 0.397695 0.349687
C13   C     C_R   0.414434 0.425731 0.932725 -0.213608
C14   C     C_R   0.421903 0.412027 0.074807 -0.062790
C15   C     C_R   0.586015 0.569112 0.066702 0.428949
C16   C     C_R   0.500510 0.741277 0.497148 0.933350
C17   C     C_R   0.585551 0.569851 0.922559 0.498991
C18   C     C_R   0.741933 0.503113 0.498588 0.992583
C19   C     C_3   0.038474 0.562296 0.602961 0.453857
C20   C     C_3   0.947561 0.447207 0.613165 0.309053
C21   C     C_3   0.876013 0.503525 0.497666 -0.412666
C22   C     C_3   0.967467 0.618975 0.487915 0.192494
C23   C     C_3   0.027772 0.378452 0.512800 0.221350
C24   C     C_3   0.048202 0.550788 0.387068 0.251414
C25   C     C_3   0.358936 0.805687 0.014243 -0.133976
C26   C     C_3   0.728426 0.869758 0.263445 -0.027185
C27   C     C_3   0.792978 0.581684 0.108185 -0.148182
C28   C     C_3   0.284627 0.192771 0.335961 -0.073543
C29   C     C_3   0.160911 0.495813 0.944676 -0.069875
C30   C     C_3   0.664056 0.763946 0.852806 -0.297013
C31   C     C_3   0.989808 0.695430 0.773632 -0.093999
C32   C     C_3   0.984747 0.302401 0.222250 -0.089171
C33   C     C_3   0.120729 0.494445 0.503782 -0.363457
C34   C     C_R   0.532835 0.099228 0.759254 0.415655
C35   C     C_R   0.464327 0.032088 0.860845 -0.401846
C36   C     C_R   0.381075 0.933211 0.829084 0.498448
C37   C     C_R   0.381175 0.893269 0.698090 0.378538
C38   C     C_R   0.471219 0.942243 0.604874 -0.231512
Cl1   Cl    Cl    0.890667 0.381111 0.769151 -0.437934
Cl2   Cl    Cl    0.254798 0.805974 0.640091 -0.470451
Cl3   Cl    Cl    0.209541 0.071410 0.099353 -0.524834
Cl4   Cl    Cl    0.173464 0.161721 0.814589 -0.368401
Cl5   Cl    Cl    0.936524 0.779855 0.469660 -0.584445
Cl6   Cl    Cl    0.112144 0.624833 0.237737 -0.635061
Cl7   Cl    Cl    0.046202 0.215863 0.537326 -0.474243
Cl8   Cl    Cl    0.650822 0.159696 0.246086 -0.533870
Cl9   Cl    Cl    0.642945 0.212884 0.809915 -0.474065
H1    H     H_    0.471556 0.060617 0.962977 0.230279
H2    H     H_    0.853007 0.604103 0.192539 0.231467
H3    H     H_    0.351477 0.122298 0.306392 0.183397
H4    H     H_    0.186847 0.159457 0.326379 0.222749
H5    H     H_    0.293406 0.206034 0.444231 0.173797
H6    H     H_    0.172556 0.445869 0.041030 0.098093
H7    H     H_    0.059338 0.494802 0.932929 0.216525
H8    H     H_    0.197466 0.593950 0.951622 0.208442
H9    H     H_    0.568649 0.787364 0.829596 0.148758
H10   H     H_    0.727192 0.812530 0.776287 0.211539
H11   H     H_    0.689213 0.800527 0.950992 0.199118
H12   H     H_    0.293874 0.777461 0.098370 0.259318
H13   H     H_    0.894987 0.651208 0.768190 0.185231
H14   H     H_    0.994281 0.790349 0.726504 0.259560
H15   H     H_    0.009786 0.708530 0.880072 0.170689
H16   H     H_    0.081789 0.342124 0.224244 0.161970
H17   H     H_    0.958921 0.298785 0.116255 0.212223
H18   H     H_    0.978586 0.205099 0.263686 0.230218
H19   H     H_    0.440038 0.856739 0.057605 0.180944
H20   H     H_    0.388084 0.719418 0.966683 0.088424
H21   H     H_    0.743739 0.778887 0.313590 0.208079
H22   H     H_    0.785990 0.945658 0.309543 0.193050
H23   H     H_    0.761978 0.866398 0.158313 0.197238
H24   H     H_    0.840456 0.624435 0.017537 0.167688
H25   H     H_    0.784993 0.477913 0.100519 0.220685
N1    N     N_R   0.498800 0.498800 0.142780 -0.118063
N2    N     N_R   0.498760 0.498720 0.857170 -0.121854
O1    O     O_R   0.500000 0.316780 0.614690 -0.606099
O2    O     O_3   0.599758 0.887613 0.266385 -0.606278
O3    O     O_3   0.677697 0.634948 0.131867 -0.634433
O4    O     O_3   0.308686 0.309432 0.268024 -0.595301
O5    O     O_3   0.217468 0.441173 0.832492 -0.530756
O6    O     O_3   0.678453 0.634353 0.846840 -0.600621
O7    O     O_3   0.081627 0.622373 0.716748 -0.523974
O8    O     O_3   0.899228 0.373776 0.290964 -0.578704
O9    O     O_R   0.499990 0.316750 0.385360 -0.549877
O10   O     O_R   0.313960 0.499980 0.614650 -0.536930
O11   O     O_R   0.313940 0.499960 0.385310 -0.550477
O12   O     O_R   0.500010 0.683250 0.614640 -0.619320
O13   O     O_R   0.500000 0.683220 0.385310 -0.566908
O14   O     O_R   0.686060 0.500040 0.614690 -0.542727
O15   O     O_R   0.686040 0.500020 0.385350 -0.572271
O16   O     O_3   0.296152 0.879539 0.922477 -0.504297
Zn1   Zn    Zn3+2 0.500010 0.500020 0.653130 1.084997
Zn2   Zn    Zn3+2 0.499990 0.499980 0.346870 1.090653

loop_
_geom_bond_atom_site_label_1
_geom_bond_atom_site_label_2
_ccdc_geom_bond_type
N2    Zn1   S    
C16   O12   A    
C23   Cl7   S    
C10   Cl4   S    
C18   C21   S    
C28   H5    S    
C31   H14   S    
C35   C36   A    
C25   H20   S    
O9    Zn2   S    
C12   C23   S    
C25   O16   S    
C36   C37   A    
C37   Cl2   S    
O12   Zn1   S    
C5    C6    A    
C28   H4    S    
C29   H7    S    
C30   H10   S    
C34   C35   A    
C28   H3    S    
C19   C20   S    
C8    C9    A    
C23   C33   S    
C29   O5    S    
C16   O13   A    
C26   O2    S    
O14   Zn1   S    
O10   Zn1   S    
C28   O4    S    
C9    C10   A    
O1    Zn1   S    
C30   O6    S    
C2    C34   A    
C21   C22   S    
C8    O4    S    
C31   H15   S    
C35   H1    S    
O11   Zn2   S    
C1    O1    A    
C14   N1    A    
C19   C22   S    
C32   H17   S    
C19   C33   S    
O13   Zn2   S    
C20   Cl1   S    
C4    O11   A    
C29   H8    S    
C27   O3    S    
C30   H9    S    
C32   H16   S    
C17   O6    S    
C18   O14   A    
C1    C3    S    
C31   H13   S    
C37   C38   A    
C2    C38   A    
C22   Cl5   S    
C4    O10   A    
C20   C23   S    
C12   O8    S    
C13   N2    A    
O15   Zn2   S    
C11   O5    S    
C7    C16   S    
C15   N1    A    
C17   N2    A    
C24   Cl6   S    
C22   C24   S    
C27   H24   S    
C36   O16   S    
C15   C17   A    
C4    C33   S    
C8    C14   A    
C18   O15   A    
C25   H19   S    
N1    Zn2   S    
C3    C5    A    
C6    O2    S    
C6    C7    A    
C1    O9    A    
C32   O8    S    
C5    Cl8   S    
C12   C24   S    
C9    Cl3   S    
C24   C33   S    
C31   O7    S    
C26   H21   S    
C2    C3    A    
C19   O7    S    
C11   C13   A    
C15   O3    S    
C29   H6    S    
C26   H23   S    
C30   H11   S    
C7    C38   A    
C10   C11   A    
C12   C21   S    
C20   C21   S    
C26   H22   S    
C34   Cl9   S    
C25   H12   S    
C13   C14   A    
C27   H25   S    
C27   H2    S    
C32   H18   S    
