data_mof_unit_36242.cif
_audit_creation_date              2012-12-11T17:37:54-0500
_audit_creation_method            fapswitch 2.2
_symmetry_space_group_name_H-M    P1
_symmetry_Int_Tables_number       1
_space_group_crystal_system       triclinic
_cell_length_a                    12.924453
_cell_length_b                    13.046271
_cell_length_c                    15.360143
_cell_angle_alpha                 116.555771
_cell_angle_beta                  63.912187
_cell_angle_gamma                 97.496389
_cell_volume                      2073.63515614

loop_
_atom_site_label
_atom_site_type_symbol
_atom_type_description
_atom_site_fract_x
_atom_site_fract_y
_atom_site_fract_z
_atom_type_partial_charge
C1    C     C_R   0.995447 0.830765 0.059558 -0.119539
C2    C     C_R   0.675041 0.538124 0.323510 0.039187
C3    C     C_R   0.664393 0.451287 0.919464 0.142111
C4    C     C_R   0.082210 0.788787 0.298052 0.100132
C5    C     C_R   0.337846 0.514272 0.946985 -0.097395
C6    C     C_R   0.974176 0.179592 0.780401 -0.128912
C7    C     C_R   0.198299 0.510820 0.696290 -0.118017
C8    C     C_R   0.045450 0.259231 0.095046 -0.226057
C9    C     C_R   0.939832 0.176858 0.006119 0.345302
C10   C     C_R   0.296858 0.598712 0.793945 -0.163950
C11   C     C_R   0.259929 0.412585 0.042119 -0.143266
C12   C     C_R   0.679095 0.469882 0.222309 -0.139917
C13   C     C_R   0.050743 0.280691 0.684523 -0.138897
C14   C     C_R   0.362045 0.430317 0.967309 0.136561
C15   C     C_R   0.038317 0.171939 0.678469 0.067815
C16   C     C_R   0.292656 0.571839 0.698709 0.067407
C17   C     C_R   0.992766 0.159288 0.060381 0.018940
C18   C     C_R   0.476094 0.768255 0.211746 0.380908
C19   C     C_R   0.365331 0.806272 0.297344 -0.199603
C20   C     C_R   0.296937 0.890030 0.307953 0.116220
C21   C     C_R   0.339461 0.935245 0.232323 -0.161150
C22   C     C_R   0.448640 0.895716 0.145776 -0.185910
C23   C     C_R   0.755963 0.516102 0.891032 -0.275483
C24   C     C_R   0.516860 0.812483 0.135318 -0.113279
C25   C     C_R   0.170269 0.028683 0.497688 0.237575
C26   C     C_R   0.057565 0.069390 0.582042 0.014385
C27   C     C_R   0.959535 0.014276 0.572261 -0.038872
C28   C     C_R   0.973942 0.919275 0.479230 -0.254298
C29   C     C_R   0.082530 0.880765 0.393825 0.015154
C30   C     C_R   0.182149 0.933678 0.400680 -0.016533
C31   C     C_R   0.768983 0.000403 0.710081 -0.170849
C32   C     C_R   0.649079 0.024780 0.763667 -0.126818
C33   C     C_R   0.597887 0.106821 0.756380 -0.113545
C34   C     C_R   0.021270 0.695366 0.299167 -0.152962
C35   C     C_R   0.666831 0.167110 0.698278 -0.086667
C36   C     C_R   0.786859 0.144090 0.645788 -0.134669
C37   C     C_R   0.838453 0.059156 0.649893 0.157428
C38   C     C_R   0.855091 0.325299 0.376747 -0.114301
C39   C     C_R   0.753372 0.371050 0.391519 -0.109608
C40   C     C_R   0.699539 0.477101 0.479504 0.113323
C41   C     C_R   0.747367 0.534593 0.553757 -0.188408
C42   C     C_R   0.848289 0.487795 0.539200 -0.121503
C43   C     C_R   0.902489 0.383534 0.450426 -0.116060
C44   C     C_R   0.495246 0.542128 0.590063 -0.243203
C45   C     C_R   0.679481 0.414499 0.984856 0.354970
C46   C     C_R   0.387957 0.579341 0.608690 0.054066
C47   C     C_R   0.374598 0.607603 0.535803 0.054690
C48   C     C_R   0.472036 0.595964 0.442826 -0.237240
C49   C     C_R   0.578514 0.554665 0.422850 0.065800
C50   C     C_R   0.591071 0.527147 0.496993 0.020067
C51   C     C_R   0.206495 0.597577 0.489467 0.323352
C52   C     C_R   0.103850 0.649688 0.511279 -0.154804
C53   C     C_R   0.057372 0.756655 0.598886 -0.161416
C54   C     C_R   0.112075 0.812612 0.666480 -0.097101
C55   C     C_R   0.214117 0.762150 0.646124 -0.194107
C56   C     C_R   0.099974 0.797518 0.206752 -0.140932
C57   C     C_R   0.262913 0.655128 0.557461 0.061345
C58   C     C_2   0.476358 0.382515 0.930009 -0.227489
C59   C     C_2   0.569116 0.434600 0.889545 -0.186606
C60   C     C_2   0.813729 0.945856 0.111005 -0.184316
C61   C     C_2   0.808826 0.031324 0.203268 -0.154835
C62   C     C_R   0.784932 0.559109 0.313989 -0.105714
C63   C     C_R   0.894884 0.746063 0.962809 -0.146293
C64   C     C_R   0.903252 0.848606 0.042763 0.132677
H1    H     H_    0.022076 0.891053 0.120249 0.093218
H2    H     H_    0.949008 0.107764 0.799412 0.121921
H3    H     H_    0.165218 0.484275 0.636516 0.098587
H4    H     H_    0.081694 0.281540 0.152035 0.116910
H5    H     H_    0.354073 0.655258 0.824926 0.094878
H6    H     H_    0.250269 0.354417 0.077206 0.099857
H7    H     H_    0.091057 0.304992 0.618953 0.106870
H8    H     H_    0.601702 0.783447 0.068281 0.103963
H9    H     H_    0.333282 0.772385 0.356609 0.134293
H10   H     H_    0.605910 0.437543 0.205310 0.130751
H11   H     H_    0.287984 0.001000 0.240516 0.110776
H12   H     H_    0.480872 0.930354 0.087217 0.124591
H13   H     H_    0.807231 0.932883 0.712031 0.103031
H14   H     H_    0.595664 0.978326 0.808852 0.112086
H15   H     H_    0.504836 0.123808 0.795947 0.112147
H16   H     H_    0.627101 0.229823 0.691785 0.125847
H17   H     H_    0.838950 0.187803 0.597214 0.110609
H18   H     H_    0.981036 0.347727 0.438891 0.106382
H19   H     H_    0.778118 0.546185 0.830248 0.122222
H20   H     H_    0.897314 0.244637 0.308239 0.111161
H21   H     H_    0.717159 0.324540 0.334189 0.119955
H22   H     H_    0.884624 0.532536 0.596631 0.114592
H23   H     H_    0.503361 0.516784 0.645350 0.133967
H24   H     H_    0.465147 0.619185 0.386055 0.136741
H25   H     H_    0.059372 0.607300 0.460498 0.122922
H26   H     H_    0.978515 0.795905 0.614542 0.121147
H27   H     H_    0.075637 0.895478 0.734482 0.117811
H28   H     H_    0.256194 0.807315 0.698748 0.126067
H29   H     H_    0.478641 0.319768 0.956189 0.161253
H30   H     H_    0.565408 0.489710 0.855011 0.123132
H31   H     H_    0.745382 0.945325 0.087977 0.139258
H32   H     H_    0.150481 0.858219 0.178318 0.094507
H33   H     H_    0.828035 0.728562 0.935099 0.099182
H34   H     H_    0.395745 0.550828 0.894443 0.085712
N1    N     N_R   0.037320 0.720000 0.995830 -0.044878
N2    N     N_R   0.946240 0.290870 0.848020 -0.037380
N3    N     N_R   0.146160 0.501170 0.788610 -0.040014
N4    N     N_R   0.025750 0.332680 0.063570 -0.049822
N5    N     N_R   0.962680 0.280000 0.004170 -0.058706
N6    N     N_R   0.209230 0.553860 0.848010 -0.039206
N7    N     N_R   0.175100 0.482030 0.063570 -0.038490
N8    N     N_R   0.996810 0.351820 0.788610 -0.038624
N9    N     N_R   0.790770 0.446140 0.151990 -0.039222
N10   N     N_R   0.824900 0.517970 0.936430 -0.053681
N11   N     N_R   0.003190 0.648180 0.211390 -0.039359
N12   N     N_R   0.774330 0.457010 0.995830 -0.058613
N13   N     N_R   0.053760 0.709130 0.151980 -0.041558
N14   N     N_R   0.853840 0.498830 0.211390 -0.040023
N15   N     N_R   0.974250 0.667320 0.936430 -0.036602
N16   N     N_R   0.225670 0.542990 0.004170 -0.045634
Ni1   Ni    Ni4+2 0.130310 0.630310 0.000000 0.210663
Ni2   Ni    Ni4+2 0.869690 0.369690 0.000000 0.211357
Ni3   Ni    Ni4+2 0.985660 0.509480 0.863750 0.210337
Ni4   Ni    Ni4+2 0.014340 0.490520 0.136250 0.215196
C65   C     C_3   0.842362 0.109767 0.987937 -1.106034
H35   H     H_    0.873139 0.017639 0.934351 0.251584
H36   H     H_    0.772089 0.119334 0.066554 0.266092
H37   H     H_    0.804995 0.141546 0.951597 0.258874
C66   C     C_3   0.550737 0.683097 0.204147 -1.052266
H38   H     H_    0.636469 0.664057 0.134233 0.262398
H39   H     H_    0.565126 0.719069 0.278089 0.254979
H40   H     H_    0.507862 0.601894 0.195556 0.249875
C67   C     C_3   0.276943 0.084460 0.509119 -0.990492
H41   H     H_    0.319251 0.122023 0.450829 0.251435
H42   H     H_    0.258305 0.153432 0.590963 0.253853
H43   H     H_    0.338646 0.018896 0.492233 0.255073
H44   H     H_    0.897632 0.878972 0.470733 0.150295
H45   H     H_    0.706706 0.615928 0.622570 0.110544
C68   C     C_3   0.252103 0.480376 0.396200 -1.083401
H46   H     H_    0.191211 0.443989 0.358684 0.249161
H47   H     H_    0.335506 0.485696 0.333005 0.257195
H48   H     H_    0.264692 0.420342 0.424644 0.256179
H49   H     H_    0.998672 0.660170 0.356372 0.098699
H50   H     H_    0.872146 0.036025 0.233107 0.123194
C69   C     C_3   0.630285 0.314635 0.008760 -1.118547
H51   H     H_    0.539908 0.337923 0.071971 0.244979
H52   H     H_    0.636832 0.238818 0.934186 0.275833
H53   H     H_    0.680209 0.289722 0.039822 0.263699
H54   H     H_    0.812241 0.607217 0.377420 0.105823

loop_
_geom_bond_atom_site_label_1
_geom_bond_atom_site_label_2
_ccdc_geom_bond_type
C12   H10   S    
C5    N16   A    
C51   C68   S    
C41   C42   A    
C3    C23   A    
C35   C36   A    
N2    Ni2   S    
C22   H12   S    
C62   H54   S    
C2    C12   A    
C1    N1    A    
N16   Ni1   S    
C11   H6    S    
C66   H38   S    
C20   C30   S    
C53   C54   A    
C26   C27   A    
C29   C30   A    
C23   H19   S    
C18   C24   A    
C28   C29   A    
C58   H29   S    
N11   N13   A    
N1    Ni1   S    
C38   C39   A    
C69   H53   S    
C40   C50   S    
C61   H50   S    
C66   H39   S    
C35   H16   S    
C45   C69   S    
C18   C19   A    
N9    N14   A    
C33   C35   A    
C6    C15   A    
C46   C47   A    
C19   C20   A    
C11   N7    A    
C68   H48   S    
C1    H1    S    
C48   H24   S    
C51   C57   A    
C59   H30   S    
C44   H23   S    
C56   N13   A    
C4    C29   S    
N4    Ni4   S    
C18   C66   S    
C21   C22   A    
C4    C56   A    
C52   H25   S    
C44   C46   A    
N11   Ni4   S    
C31   H13   S    
C65   H36   S    
C14   C58   S    
C69   H51   S    
C4    C34   A    
C51   C52   A    
N7    N16   A    
C19   H9    S    
C16   C46   S    
C39   C40   A    
C45   N12   A    
C33   H15   S    
C66   H40   S    
C13   H7    S    
C25   C26   A    
C7    H3    S    
C3    C45   A    
C31   C37   A    
C60   C61   D    
C6    N2    A    
C67   H42   S    
C55   H28   S    
C2    C49   S    
C47   C57   S    
N6    Ni1   S    
C47   C48   A    
C6    H2    S    
C36   H17   S    
C9    N5    A    
C20   C21   A    
C12   N9    A    
C5    C14   A    
N15   Ni3   S    
C9    C17   A    
C40   C41   A    
C8    H4    S    
N3    N6    A    
C13   C15   A    
N8    Ni3   S    
C68   H46   S    
C9    C65   S    
C22   C24   A    
N7    Ni4   S    
C42   C43   A    
C39   H21   S    
C67   H41   S    
C1    C64   A    
N12   Ni2   S    
C27   C28   A    
C42   H22   S    
C52   C53   A    
C24   H8    S    
C65   H37   S    
C44   C50   A    
C25   C30   A    
C56   H32   S    
C54   C55   A    
C7    C16   A    
C38   H20   S    
N10   Ni3   S    
C31   C32   A    
C13   N8    A    
C15   C26   S    
N1    N15   A    
C41   H45   S    
C65   H35   S    
C21   H11   S    
C34   H49   S    
N2    N8    A    
C8    C17   A    
C60   C64   S    
C28   H44   S    
N3    Ni3   S    
C32   C33   A    
C55   C57   A    
N5    Ni2   S    
C58   C59   D    
C67   H43   S    
C54   H27   S    
C63   H33   S    
C10   C16   A    
N14   Ni4   S    
C69   H52   S    
C27   C37   S    
C48   C49   A    
C23   N10   A    
C10   N6    A    
C11   C14   A    
N10   N12   A    
C25   C67   S    
N4    N5    A    
N9    Ni2   S    
C32   H14   S    
C63   C64   A    
C63   N15   A    
C60   H31   S    
C10   H5    S    
C34   N11   A    
C38   C43   A    
C62   N14   A    
C5    H34   S    
C36   C37   A    
C49   C50   A    
C7    N3    A    
C53   H26   S    
C68   H47   S    
C43   H18   S    
N13   Ni1   S    
C8    N4    A    
C2    C62   A    
C3    C59   S    
