data_mof_unit_24477.cif
_audit_creation_date              2012-12-11T15:54:05-0500
_audit_creation_method            fapswitch 2.2
_symmetry_space_group_name_H-M    P1
_symmetry_Int_Tables_number       1
_space_group_crystal_system       triclinic
_cell_length_a                    10.751612
_cell_length_b                    10.689916
_cell_length_c                    16.988591
_cell_angle_alpha                 80.598304
_cell_angle_beta                  99.511881
_cell_angle_gamma                 119.130211
_cell_volume                      1674.33725494

loop_
_atom_site_label
_atom_site_type_symbol
_atom_type_description
_atom_site_fract_x
_atom_site_fract_y
_atom_site_fract_z
_atom_type_partial_charge
C1    C     C_R   0.360456 0.227396 0.626890 0.556312
C2    C     C_1   0.319170 0.156218 0.777625 -0.011154
C3    C     C_1   0.371145 0.636175 0.274667 0.016502
C4    C     C_R   0.369979 0.655423 0.586098 0.565486
C5    C     C_1   0.344716 0.654796 0.203966 0.007817
C6    C     C_R   0.926843 0.712698 0.176479 -0.007549
C7    C     C_R   0.962751 0.627426 0.236194 0.041719
C8    C     C_R   0.926518 0.608004 0.312837 0.035442
C9    C     C_R   0.836873 0.779607 0.275218 -0.181622
C10   C     C_R   0.870476 0.795587 0.197348 -0.166989
C11   C     C_3   0.929293 0.475017 0.237133 0.116879
C12   C     C_R   0.401653 0.831778 0.676541 -0.151865
C13   C     C_3   0.895126 0.453166 0.322597 0.142539
C14   C     C_R   0.854251 0.676476 0.331974 0.020568
C15   C     C_R   0.330986 0.168646 0.160413 -0.031432
C16   C     C_R   0.781606 0.621592 0.626031 0.546093
C17   C     C_R   0.253334 0.224744 0.185903 0.008296
C18   C     C_R   0.250995 0.223790 0.265950 0.007600
C19   C     C_R   0.417497 0.127926 0.299352 0.242085
C20   C     C_R   0.422169 0.130983 0.217334 -0.078071
C21   C     C_3   0.097506 0.185510 0.170160 -0.254928
C22   C     C_3   0.095525 0.178144 0.259374 -0.272224
C23   C     C_R   0.383605 0.853938 0.751917 -0.155231
C24   C     C_R   0.328268 0.173883 0.323779 0.008766
C25   C     C_R   0.948134 0.725460 0.851692 0.540292
C26   C     C_R   0.281845 0.751643 0.882719 0.554214
C27   C     C_R   0.283602 0.113024 0.857481 0.540683
C28   C     C_R   0.349696 0.223059 0.401141 0.518000
C29   C     C_R   0.954424 0.719168 0.095318 0.579207
C30   C     C_R   0.316596 0.697065 0.122525 0.563902
C31   C     C_R   0.286780 0.108894 0.084570 0.545581
C32   C     C_R   0.403292 0.624690 0.358938 0.567225
C33   C     C_R   0.774755 0.624084 0.401045 0.558297
C34   C     C_3   0.102095 0.465310 0.786751 -0.217194
C35   C     C_R   0.279442 0.741412 0.797630 -0.002915
C36   C     C_R   0.175153 0.621996 0.758633 -0.043487
C37   C     C_R   0.194678 0.598635 0.684843 0.004917
C38   C     C_3   0.125633 0.438965 0.706293 0.118538
C39   C     C_R   0.317030 0.695883 0.646742 0.009532
C40   C     C_1   0.851455 0.670318 0.702426 -0.037657
C41   C     C_1   0.898704 0.704524 0.769236 -0.038044
C42   C     C_1   0.343913 0.183633 0.709142 -0.006270
Cr1   Cr    Cr6+3 0.608440 0.389080 0.519680 1.040680
Cr2   Cr    Cr6+3 0.288640 0.400090 0.490760 1.040677
Cr3   Cr    Cr6+3 0.602940 0.710800 0.489510 1.031199
Cr4   Cr    Cr6+3 0.052530 0.947560 0.964210 1.023209
Cr5   Cr    Cr6+3 0.059970 0.626800 0.992920 0.999724
Cr6   Cr    Cr6+3 0.373320 0.938440 0.995370 1.009258
H1    H     H_    0.491891 0.915434 0.646402 0.146406
H2    H     H_    0.987379 0.425455 0.793554 0.127042
H3    H     H_    0.162641 0.435422 0.839193 0.171082
H4    H     H_    0.025202 0.378939 0.667767 0.158568
H5    H     H_    0.782559 0.835838 0.287864 0.142883
H6    H     H_    0.840074 0.862593 0.152449 0.141861
H7    H     H_    0.745776 0.258947 0.335333 0.349555
H8    H     H_    0.454782 0.045607 0.405615 0.332484
H9    H     H_    0.310386 0.443862 0.745574 0.325799
H10   H     H_    0.039569 0.432812 0.179205 0.330039
H11   H     H_    0.835588 0.411942 0.194580 0.151993
H12   H     H_    0.970293 0.431573 0.369167 0.151889
H13   H     H_    0.483791 0.086837 0.199296 0.164781
H14   H     H_    0.027882 0.079758 0.147280 0.164701
H15   H     H_    0.081749 0.274329 0.134850 0.134812
H16   H     H_    0.074092 0.258113 0.279318 0.210932
H17   H     H_    0.033702 0.067251 0.287815 0.135659
H18   H     H_    0.459080 0.953893 0.777084 0.140845
O1    O     O_R   0.754020 0.497590 0.609930 -0.518015
O2    O     O_R   0.406180 0.826930 0.920660 -0.498604
O3    O     O_R   0.358620 0.062870 0.901950 -0.525987
O4    O     O_R   0.481420 0.271390 0.600630 -0.510930
O5    O     O_R   0.163910 0.085460 0.050210 -0.526777
O6    O     O_R   0.935200 0.815170 0.045770 -0.496292
O7    O     O_R   0.916120 0.596690 0.069430 -0.517016
O8    O     O_R   0.192310 0.631200 0.086170 -0.510312
O9    O     O_R   0.406770 0.819480 0.096420 -0.512892
O10   O     O_R   0.359170 0.055960 0.064880 -0.507611
O11   O     O_3   0.161940 0.837600 0.984160 -0.314508
O12   O     O_R   0.295080 0.533620 0.397890 -0.487665
O13   O     O_R   0.263810 0.254550 0.589590 -0.465703
O14   O     O_R   0.300820 0.531200 0.560890 -0.462858
O15   O     O_R   0.491480 0.744020 0.564270 -0.519685
O16   O     O_R   0.726290 0.693800 0.583010 -0.491511
O17   O     O_R   0.747830 0.500190 0.434090 -0.452472
O18   O     O_R   0.475680 0.273800 0.437630 -0.470278
O19   O     O_R   0.257620 0.257160 0.413750 -0.532111
O20   O     O_3   0.750770 0.355096 0.329137 -0.670123
O21   O     O_3   0.491778 0.069628 0.352543 -0.685092
O22   O     O_3   0.220517 0.381570 0.713741 -0.667805
O23   O     O_R   0.485280 0.746620 0.388440 -0.489865
O24   O     O_3   0.051962 0.465273 0.232554 -0.750069
O25   O     O_R   0.720550 0.696220 0.420010 -0.537599
O26   O     O_3   0.500010 0.499990 0.499980 -0.280933
O27   O     O_R   0.163320 0.092900 0.874450 -0.493287
O28   O     O_R   0.934650 0.822080 0.882840 -0.470383
O29   O     O_R   0.915520 0.604140 0.893670 -0.505161
O30   O     O_R   0.191760 0.638110 0.923230 -0.514392

loop_
_geom_bond_atom_site_label_1
_geom_bond_atom_site_label_2
_ccdc_geom_bond_type
C8    C13   S    
C28   O18   A    
Cr1   O17   S    
Cr6   O10   S    
C19   C20   A    
Cr6   O3    S    
C14   C33   S    
C12   H1    S    
C7    C8    A    
C13   H12   S    
C7    C11   S    
C12   C23   A    
C34   H3    S    
C18   C24   A    
C23   H18   S    
C36   C37   A    
C4    O14   A    
C19   O21   S    
C33   O25   A    
C30   O8    A    
C38   H4    S    
C20   H13   S    
Cr3   O26   S    
C4    O15   A    
Cr3   O16   S    
C13   O20   S    
Cr3   O25   S    
Cr5   O30   S    
C2    C27   S    
Cr3   O23   S    
C9    C10   A    
Cr4   O6    S    
Cr2   O26   S    
C29   O6    A    
C31   O5    A    
C25   O28   A    
C34   C38   S    
C21   C22   S    
Cr1   O18   S    
Cr6   O9    S    
C11   H11   S    
C26   O30   A    
C15   C20   A    
C34   H2    S    
H7    O20   S    
Cr2   O14   S    
Cr5   O7    S    
C25   C41   S    
H8    O21   S    
C22   H16   S    
C17   C21   S    
C38   O22   S    
C35   C36   A    
Cr6   O11   S    
C9    C14   A    
C22   H17   S    
C37   C38   S    
C33   O17   A    
C1    C42   S    
C32   O23   A    
Cr4   O28   S    
C4    C39   S    
C16   O16   A    
C17   C18   A    
C21   H14   S    
C16   O1    A    
Cr6   O2    S    
H10   O24   S    
Cr4   O5    S    
C16   C40   S    
Cr1   O26   S    
C40   C41   T    
C25   O29   A    
Cr1   O4    S    
C23   C35   A    
C1    O13   A    
C27   O27   A    
C9    H5    S    
Cr5   O11   S    
Cr2   O19   S    
C5    C30   S    
C15   C17   A    
C8    C14   A    
C18   C22   S    
Cr2   O13   S    
Cr3   O15   S    
C24   C28   S    
Cr5   O8    S    
C3    C5    T    
C27   O3    A    
C6    C10   A    
Cr4   O11   S    
C15   C31   S    
C6    C7    A    
C1    O4    A    
H9    O22   S    
C26   O2    A    
C12   C39   A    
Cr2   O12   S    
C19   C24   A    
C37   C39   A    
C30   O9    A    
C11   C13   S    
C11   O24   S    
C31   O10   A    
Cr4   O27   S    
C2    C42   T    
C34   C36   S    
C3    C32   S    
C10   H6    S    
C21   H15   S    
C32   O12   A    
C26   C35   S    
C6    C29   S    
C29   O7    A    
Cr1   O1    S    
C28   O19   A    
Cr5   O29   S    
