data_mof_unit_48548.cif
_audit_creation_date              2012-12-11T17:14:11-0500
_audit_creation_method            fapswitch 2.2
_symmetry_space_group_name_H-M    P1
_symmetry_Int_Tables_number       1
_space_group_crystal_system       triclinic
_cell_length_a                    18.251732
_cell_length_b                    7.113225
_cell_length_c                    12.970937
_cell_angle_alpha                 89.999973
_cell_angle_beta                  71.979839
_cell_angle_gamma                 90.000032
_cell_volume                      1601.39556584

loop_
_atom_site_label
_atom_site_type_symbol
_atom_type_description
_atom_site_fract_x
_atom_site_fract_y
_atom_site_fract_z
_atom_type_partial_charge
O1    O     O_R   0.453880 0.506200 0.150010 -0.553678
O2    O     O_R   0.546120 0.006200 0.849990 -0.553677
O3    O     O_R   0.604080 0.177770 0.007280 -0.537437
O4    O     O_R   0.395920 0.677770 0.992720 -0.537436
C1    C     C_R   0.635918 0.344515 0.001901 0.761570
C2    C     C_R   0.364082 0.844515 0.998099 0.761571
O5    O     O_R   0.458010 0.176640 0.159130 -0.530539
O6    O     O_R   0.541990 0.676640 0.840870 -0.530540
O7    O     O_R   0.399010 0.004010 0.002930 -0.535019
O8    O     O_R   0.600990 0.504010 0.997070 -0.535020
C3    C     C_R   0.442522 0.344510 0.202021 0.785482
C4    C     C_R   0.557478 0.844510 0.797979 0.785481
O9    O     O_3   0.480810 0.338440 0.948570 -0.378046
O10   O     O_3   0.519190 0.838440 0.051430 -0.378048
V1    V     V_3+5 0.503560 0.064490 0.009540 1.504429
V2    V     V_3+5 0.496440 0.564490 0.990460 1.504431
C5    C     C_R   0.583888 0.746002 0.503561 -0.002653
C6    C     C_R   0.416112 0.246006 0.496440 -0.002661
C7    C     C_R   0.591634 0.845796 0.679660 -0.165557
C8    C     C_R   0.408366 0.345796 0.320340 -0.165558
C9    C     C_R   0.951727 0.914654 0.386093 0.585206
C10   C     C_R   0.048273 0.414650 0.613907 0.585207
C11   C     C_R   0.917881 0.933920 0.497316 0.674746
C12   C     C_R   0.082119 0.433917 0.502684 0.674747
C13   C     C_R   0.838631 0.910810 0.543764 -0.298627
C14   C     C_R   0.161369 0.410812 0.456236 -0.298628
C15   C     C_R   0.790655 0.865432 0.479582 0.021180
C16   C     C_R   0.209345 0.365438 0.520419 0.021179
C17   C     C_R   0.826501 0.836792 0.366709 -0.119226
C18   C     C_R   0.173499 0.336799 0.633292 -0.119227
C19   C     C_R   0.708735 0.845247 0.523970 0.058203
C20   C     C_R   0.291265 0.345254 0.476030 0.058204
C21   C     C_R   0.664696 0.780575 0.456525 -0.081881
C22   C     C_R   0.335304 0.280586 0.543477 -0.081883
C23   C     C_R   0.703508 0.748762 0.345171 0.617494
C24   C     C_R   0.296493 0.248781 0.654832 0.617496
C25   C     C_R   0.781726 0.781306 0.301850 -0.186534
C26   C     C_R   0.218275 0.281322 0.698152 -0.186533
C27   C     C_R   0.669719 0.883788 0.634299 -0.282335
C28   C     C_R   0.330281 0.383792 0.365701 -0.282334
C29   C     C_R   0.549336 0.775995 0.615363 0.512837
C30   C     C_R   0.450664 0.275994 0.384637 0.512838
C31   C     C_R   0.906814 0.865565 0.320170 -0.260605
C32   C     C_R   0.093186 0.365565 0.679830 -0.260607
H1    H     H_    0.698801 0.936978 0.688904 0.134016
H2    H     H_    0.301199 0.436980 0.311096 0.134016
H3    H     H_    0.817240 0.926732 0.630443 0.169916
H4    H     H_    0.182760 0.426735 0.369558 0.169916
H5    H     H_    0.807239 0.757382 0.215769 0.142578
H6    H     H_    0.192762 0.257402 0.784233 0.142576
C33   C     C_1   0.216354 0.858819 0.000145 -0.122013
C34   C     C_1   0.783646 0.358819 0.999855 -0.122011
C35   C     C_1   0.283640 0.852614 0.998933 -0.114887
C36   C     C_1   0.716360 0.352615 0.001067 -0.114886
O11   O     O_R   0.899030 0.205490 0.002790 -0.541443
O12   O     O_R   0.100970 0.705490 0.997210 -0.541443
O13   O     O_R   0.042000 0.536370 0.840840 -0.534067
O14   O     O_R   0.958000 0.036370 0.159160 -0.534065
C37   C     C_R   0.057013 0.368719 0.797948 0.795950
C38   C     C_R   0.942987 0.868719 0.202052 0.795950
O15   O     O_R   0.895930 0.535070 0.992690 -0.538301
O16   O     O_R   0.104070 0.035070 0.007310 -0.538300
O17   O     O_R   0.953870 0.707520 0.150040 -0.541112
O18   O     O_R   0.046130 0.207520 0.849960 -0.541112
C39   C     C_R   0.864144 0.366775 0.998772 0.745021
C40   C     C_R   0.135856 0.866775 0.001228 0.745021
O19   O     O_3   0.019200 0.374340 0.051340 -0.376596
O20   O     O_3   0.980800 0.874340 0.948660 -0.376597
V3    V     V_3+5 0.996440 0.648350 0.990470 1.537341
V4    V     V_3+5 0.003560 0.148350 0.009530 1.537344
F1    F     F_    0.473595 0.735812 0.663423 -0.727269
F2    F     F_    0.526404 0.235805 0.336577 -0.727265
F3    F     F_    0.667861 0.685384 0.274513 -0.702232
F4    F     F_    0.332141 0.185417 0.725491 -0.702232
C41   C     C_3   0.534472 0.658689 0.440884 -0.293405
C42   C     C_3   0.511971 0.795931 0.365269 -0.554104
H7    H     H_    0.558913 0.896494 0.327435 0.295707
H8    H     H_    0.498160 0.716593 0.300021 0.219828
H9    H     H_    0.459579 0.874639 0.410805 0.190950
H10   H     H_    0.564845 0.535125 0.395752 0.270617
H11   H     H_    0.479928 0.601877 0.496185 0.212377
C43   C     C_3   0.465526 0.158687 0.559116 -0.293392
C44   C     C_3   0.488035 0.295930 0.634725 -0.554109
H12   H     H_    0.441096 0.396506 0.672554 0.295711
H13   H     H_    0.501841 0.216594 0.699979 0.219832
H14   H     H_    0.540431 0.374621 0.589186 0.190946
H15   H     H_    0.435150 0.035132 0.604253 0.270616
H16   H     H_    0.520068 0.101862 0.503815 0.212378
F5    F     F_    0.028622 0.944718 0.342164 -0.638168
F6    F     F_    0.971377 0.444709 0.657835 -0.638168
F7    F     F_    0.962031 0.978369 0.560913 -0.619722
F8    F     F_    0.037969 0.478364 0.439086 -0.619721

loop_
_geom_bond_atom_site_label_1
_geom_bond_atom_site_label_2
_ccdc_geom_bond_type
C33   C35   T    
C15   C17   A    
O1    C3    A    
C42   H9    S    
O2    C4    A    
C2    O7    A    
C9    F5    S    
C28   H2    S    
O16   V4    S    
C37   O18   A    
C38   O17   A    
C7    C27   A    
C23   C25   A    
C12   C14   A    
C6    C30   A    
C8    C28   A    
C43   H16   S    
O13   C37   A    
C32   C37   S    
O14   C38   A    
C43   H15   S    
C18   C26   A    
C6    C43   S    
C9    C31   A    
C10   C32   A    
O17   V3    S    
O20   V3    S    
C19   C21   A    
O18   V4    S    
C41   H10   S    
C13   H3    S    
C22   C24   A    
C14   H4    S    
C27   H1    S    
O5    V1    S    
O6    V2    S    
C17   C31   A    
C18   C32   A    
C5    C21   A    
C12   F8    S    
O11   C39   A    
C34   C36   T    
C3    C8    S    
O16   C40   A    
C15   C19   A    
C1    C36   S    
C16   C20   A    
C42   H7    S    
O4    C2    A    
O14   V4    S    
O19   V3    S    
C33   C40   S    
C20   C22   A    
O4    V2    S    
O5    C3    A    
C41   C42   S    
C25   H5    S    
C44   H12   S    
O6    C4    A    
C30   F2    S    
C10   F6    S    
O1    V2    S    
O2    V1    S    
C6    C22   A    
C24   F4    S    
C31   C38   S    
C44   H13   S    
C43   C44   S    
C9    C11   A    
C10   C12   A    
C2    C35   S    
C20   C28   A    
O3    V1    S    
O15   V3    S    
C23   F3    S    
C41   H11   S    
C42   H8    S    
O3    C1    A    
C8    C30   A    
C26   H6    S    
C13   C15   A    
C14   C16   A    
C29   F1    S    
O19   V4    S    
C16   C18   A    
O7    V1    S    
C1    O8    A    
O8    V2    S    
O12   C40   A    
C4    C7    S    
C24   C26   A    
C21   C23   A    
C19   C27   A    
C11   F7    S    
C11   C13   A    
C5    C29   A    
O11   V4    S    
O15   C39   A    
C44   H14   S    
O20   V4    S    
O12   V3    S    
O9    V2    S    
C17   C25   A    
C5    C41   S    
O10   V1    S    
O13   V3    S    
C34   C39   S    
C7    C29   A    
