data_mof_unit_46797.cif
_audit_creation_date              2012-12-10T17:49:37-0500
_audit_creation_method            fapswitch 2.2
_symmetry_space_group_name_H-M    P1
_symmetry_Int_Tables_number       1
_space_group_crystal_system       triclinic
_cell_length_a                    14.721547
_cell_length_b                    14.621293
_cell_length_c                    15.869974
_cell_angle_alpha                 76.546816
_cell_angle_beta                  103.144491
_cell_angle_gamma                 115.381118
_cell_volume                      2969.71336644

loop_
_atom_site_label
_atom_site_type_symbol
_atom_type_description
_atom_site_fract_x
_atom_site_fract_y
_atom_site_fract_z
_atom_type_partial_charge
C1    C     C_R   0.880136 0.311593 0.517844 0.795638
C2    C     C_3   0.010683 0.401309 0.073162 -0.416106
C3    C     C_3   0.993437 0.495499 0.082410 0.271937
C4    C     C_3   0.077075 0.593446 0.042860 -0.396297
C5    C     C_3   0.078170 0.587123 0.947298 -0.418627
C6    C     C_1   0.997201 0.497747 0.174920 -0.096787
C7    C     C_1   0.992424 0.496819 0.823611 -0.141518
C8    C     C_1   0.998030 0.499579 0.748803 -0.195047
C9    C     C_R   0.814449 0.202668 0.541143 -0.071366
C10   C     C_R   0.190011 0.795357 0.495818 -0.062585
C11   C     C_R   0.796783 0.029093 0.607696 0.003415
C12   C     C_R   0.000271 0.500737 0.659546 0.828904
C13   C     C_R   0.857258 0.131735 0.580505 -0.243160
C14   C     C_R   0.709767 0.171601 0.532588 -0.241985
C15   C     C_R   0.645879 0.069482 0.560317 0.057927
C16   C     C_R   0.688001 0.994155 0.590817 0.025418
C17   C     C_R   0.540243 0.041646 0.554794 0.025569
C18   C     C_R   0.472528 0.937711 0.555208 0.037432
C19   C     C_R   0.513173 0.861104 0.583736 0.076325
C20   C     C_R   0.619961 0.888668 0.602061 -0.077889
C21   C     C_R   0.500978 0.115382 0.552538 -0.213118
C22   C     C_R   0.397294 0.088789 0.545030 -0.236615
C23   C     C_R   0.120348 0.688269 0.488250 0.802054
C24   C     C_R   0.329074 0.989863 0.532766 0.154457
C25   C     C_R   0.365954 0.915051 0.531965 0.110275
C26   C     C_R   0.224128 0.964758 0.521160 -0.214349
C27   C     C_R   0.155138 0.866711 0.506277 -0.211150
C28   C     C_R   0.294950 0.822159 0.504483 -0.203881
C29   C     C_R   0.711390 0.666310 0.353716 -0.341125
C30   C     C_R   0.792986 0.637271 0.374799 0.156338
C31   C     C_R   0.714631 0.508751 0.488944 -0.022854
C32   C     C_R   0.627810 0.534342 0.468484 -0.065014
C33   C     C_R   0.629698 0.617415 0.400685 0.146239
C34   C     C_R   0.000030 0.500049 0.340269 0.841679
C35   C     C_R   0.540930 0.482799 0.513636 0.091413
C36   C     C_R   0.459947 0.517940 0.491636 0.050514
C37   C     C_R   0.469191 0.604514 0.427252 -0.294127
C38   C     C_R   0.551504 0.652864 0.381540 0.163367
C39   C     C_R   0.531363 0.396612 0.579017 -0.214847
C40   C     C_R   0.445691 0.346156 0.620861 -0.206065
C41   C     C_R   0.366545 0.379571 0.599958 0.164871
C42   C     C_R   0.371825 0.465299 0.534646 -0.011598
C43   C     C_R   0.281029 0.326759 0.643057 -0.331014
C44   C     C_R   0.200669 0.358164 0.620379 0.078525
C45   C     C_3   0.001617 0.395756 0.974398 -0.149629
C46   C     C_R   0.286668 0.492603 0.513917 0.013563
C47   C     C_3   0.883250 0.498827 0.928712 0.203158
C48   C     C_3   0.888121 0.488395 0.030964 -0.401834
C49   C     C_1   0.999186 0.499001 0.250629 -0.182109
C50   C     C_3   0.984941 0.492004 0.915203 0.227865
Cu1   Cu    Cu3+1 0.081750 0.475690 0.522550 0.936876
Cu2   Cu    Cu3+1 0.918250 0.524310 0.477450 0.933058
H1    H     H_    0.958254 0.330654 0.108983 0.161076
H2    H     H_    0.078364 0.404040 0.966649 0.133362
H3    H     H_    0.088208 0.408624 0.106562 0.161693
H4    H     H_    0.063477 0.662030 0.045025 0.159081
H5    H     H_    0.319911 0.770130 0.487683 0.173910
H6    H     H_    0.075106 0.846561 0.504326 0.142104
H7    H     H_    0.370344 0.146764 0.546176 0.151238
H8    H     H_    0.939290 0.157183 0.593377 0.153960
H9    H     H_    0.678349 0.227758 0.501111 0.152981
H10   H     H_    0.549934 0.193374 0.561757 0.138530
H11   H     H_    0.195512 0.020287 0.525600 0.133256
H12   H     H_    0.281917 0.554152 0.463225 0.123540
H13   H     H_    0.134132 0.316910 0.653011 0.120306
H14   H     H_    0.440340 0.278864 0.669011 0.133121
H15   H     H_    0.713116 0.728594 0.300432 0.183770
H16   H     H_    0.720836 0.449556 0.541860 0.131361
H17   H     H_    0.413594 0.637688 0.410164 0.129696
H18   H     H_    0.588298 0.365025 0.598550 0.124467
H19   H     H_    0.275971 0.261095 0.693414 0.134284
H20   H     H_    0.830502 0.413812 0.057156 0.140662
H21   H     H_    0.868809 0.548033 0.046067 0.153332
H22   H     H_    0.150376 0.581817 0.943539 0.170531
H23   H     H_    0.080744 0.659840 0.904328 0.166026
H24   H     H_    0.152781 0.602871 0.081936 0.168758
N1    N     N_R   0.795410 0.560790 0.443550 -0.189866
N2    N     N_R   0.204590 0.439170 0.556520 -0.174860
O1    O     O_R   0.977910 0.338120 0.529720 -0.589504
O2    O     O_R   0.839850 0.379180 0.491640 -0.587293
O3    O     O_R   0.069060 0.479460 0.639610 -0.575900
O4    O     O_R   0.931000 0.520530 0.601530 -0.587416
O5    O     O_R   0.160150 0.620820 0.508360 -0.582987
O6    O     O_R   0.022090 0.661880 0.470280 -0.577211
O7    O     O_R   0.069000 0.479470 0.398470 -0.578439
O8    O     O_R   0.930940 0.520540 0.360390 -0.571387
C51   C     C_R   0.657366 0.804937 0.622765 0.132553
C52   C     C_R   0.647845 0.739670 0.703827 -0.163076
C53   C     C_R   0.686413 0.663570 0.723715 -0.104451
C54   C     C_R   0.736651 0.653478 0.663848 -0.084684
C55   C     C_R   0.746986 0.718449 0.583541 -0.118789
C56   C     C_R   0.704694 0.791639 0.561719 -0.135634
H25   H     H_    0.613273 0.749599 0.752516 0.113838
H26   H     H_    0.679296 0.613902 0.786303 0.148124
H27   H     H_    0.768223 0.595886 0.679882 0.133084
H28   H     H_    0.788461 0.712624 0.538298 0.137557
H29   H     H_    0.712755 0.840971 0.498936 0.126392
C57   C     C_R   0.853256 0.967181 0.661498 0.124330
C58   C     C_R   0.924674 0.952511 0.626288 -0.161657
C59   C     C_R   0.981409 0.898325 0.678196 -0.133420
C60   C     C_R   0.968808 0.860137 0.765937 -0.105256
C61   C     C_R   0.899762 0.876435 0.802020 -0.121366
C62   C     C_R   0.842747 0.930480 0.750260 -0.141584
H30   H     H_    0.935428 0.982064 0.558451 0.118071
H31   H     H_    0.035319 0.886173 0.650452 0.124933
H32   H     H_    0.013002 0.818458 0.806051 0.108597
H33   H     H_    0.890425 0.847208 0.870105 0.122561
H34   H     H_    0.789713 0.942864 0.778921 0.109572
C63   C     C_R   0.929161 0.291677 0.947411 0.115614
C64   C     C_R   0.954066 0.255231 0.884686 -0.175752
C65   C     C_R   0.889165 0.161539 0.856795 -0.139266
C66   C     C_R   0.799062 0.102019 0.891841 -0.118297
C67   C     C_R   0.773702 0.136054 0.954813 -0.125169
C68   C     C_R   0.837895 0.230060 0.982527 -0.115754
H35   H     H_    0.023374 0.300183 0.856264 0.126014
H36   H     H_    0.908739 0.135341 0.807736 0.136045
H37   H     H_    0.748532 0.029716 0.870009 0.115914
H38   H     H_    0.703322 0.090217 0.981325 0.126199
H39   H     H_    0.813471 0.255265 0.028827 0.116188
N3    N     N_3   0.445873 0.755312 0.601955 -0.606896
H40   H     H_    0.455933 0.729645 0.669134 0.227583
H41   H     H_    0.461213 0.711385 0.568066 0.229110
N4    N     N_3   0.556183 0.740385 0.316060 -0.621827
H42   H     H_    0.491383 0.718303 0.269139 0.217234
H43   H     H_    0.554229 0.796067 0.345919 0.216755
C69   C     C_R   0.875294 0.694853 0.320795 0.174586
C70   C     C_R   0.871315 0.662775 0.242653 -0.123695
C71   C     C_R   0.944282 0.722519 0.187278 -0.159147
C72   C     C_R   0.019077 0.816458 0.207714 -0.126566
C73   C     C_R   0.019377 0.851943 0.282324 -0.142319
C74   C     C_R   0.946213 0.792418 0.337488 -0.144679
H44   H     H_    0.812414 0.591094 0.225212 0.124429
H45   H     H_    0.942396 0.696456 0.128207 0.121505
H46   H     H_    0.075432 0.862675 0.164786 0.123510
H47   H     H_    0.075334 0.926127 0.296768 0.137266
H48   H     H_    0.943761 0.822407 0.392747 0.106967
N5    N     N_3   0.881557 0.599641 0.887036 -0.624531
H49   H     H_    0.897905 0.617354 0.823008 0.220903
H50   H     H_    0.933055 0.658671 0.921578 0.212739
C75   C     C_R   0.778780 0.420427 0.891861 0.133380
C76   C     C_R   0.763387 0.359688 0.828029 -0.142651
C77   C     C_R   0.666260 0.290614 0.799028 -0.139633
C78   C     C_R   0.581933 0.282416 0.830743 -0.109875
C79   C     C_R   0.593811 0.346409 0.888579 -0.147121
C80   C     C_R   0.690576 0.415629 0.917644 -0.158499
H51   H     H_    0.824203 0.360501 0.801291 0.147883
H52   H     H_    0.656622 0.242453 0.752391 0.130201
H53   H     H_    0.507246 0.226988 0.810075 0.113475
H54   H     H_    0.527948 0.342254 0.911264 0.126164
H55   H     H_    0.696529 0.465152 0.961616 0.130015

loop_
_geom_bond_atom_site_label_1
_geom_bond_atom_site_label_2
_ccdc_geom_bond_type
C10   C27   A    
C51   C52   A    
C30   C69   S    
C69   C70   A    
C37   H17   S    
C41   C42   A    
C36   C42   A    
C65   C66   A    
C9    C14   A    
C3    C6    S    
C71   C72   A    
Cu1   O7    S    
C7    C8    T    
C13   H8    S    
C28   H5    S    
C25   C28   A    
N5    H50   S    
C59   H31   S    
C37   C38   A    
C23   O5    A    
C11   C57   S    
C45   C50   S    
C36   C37   A    
C24   C26   A    
C72   C73   A    
C2    H3    S    
C42   C46   A    
C66   H37   S    
C45   C63   S    
N4    H43   S    
C78   C79   A    
C20   C51   S    
C29   C33   A    
C3    C48   S    
C5    H22   S    
C18   C19   A    
C34   O8    A    
C53   H26   S    
Cu2   O6    S    
C9    C13   A    
C70   H44   S    
C55   H28   S    
C29   H15   S    
C30   N1    A    
C76   C77   A    
C47   C48   S    
C47   C75   S    
C65   H36   S    
C29   C30   A    
Cu1   O3    S    
C80   H55   S    
C8    C12   S    
C58   H30   S    
C40   H14   S    
C21   C22   A    
C4    H4    S    
C41   C43   A    
C44   H13   S    
C31   H16   S    
C18   C25   A    
C48   H20   S    
C48   H21   S    
C66   C67   A    
C60   C61   A    
N3    H41   S    
C56   H29   S    
C31   N1    A    
C47   C50   S    
C2    C45   S    
C78   H53   S    
C23   O6    A    
Cu1   Cu2   S    
C32   C35   A    
N4    H42   S    
C1    C9    S    
C24   C25   A    
C74   H48   S    
C55   C56   A    
C46   N2    A    
Cu2   N1    S    
C79   C80   A    
C14   H9    S    
C27   H6    S    
C17   C21   A    
C64   C65   A    
C46   H12   S    
C34   O7    A    
C5    H23   S    
C35   C39   A    
C26   H11   S    
C79   H54   S    
C11   C16   A    
C31   C32   A    
C16   C20   A    
C47   N5    S    
C17   C18   A    
C26   C27   A    
C12   O4    A    
C61   H33   S    
C75   C76   A    
Cu2   O4    S    
C21   H10   S    
C62   H34   S    
C76   H51   S    
C63   C68   A    
C40   C41   A    
C73   H47   S    
C45   H2    S    
C43   C44   A    
C1    O1    A    
C22   C24   A    
C5    C50   S    
C3    C4    S    
Cu1   O5    S    
C22   H7    S    
C51   C56   A    
N3    H40   S    
C67   C68   A    
C10   C28   A    
C60   H32   S    
C15   C17   A    
C52   H25   S    
C34   C49   S    
C43   H19   S    
C14   C15   A    
C77   H52   S    
C38   N4    S    
C7    C50   S    
C4    C5    S    
C2    H1    S    
C54   H27   S    
C75   C80   A    
C19   N3    S    
C70   C71   A    
C10   C23   S    
N5    H49   S    
C33   C38   A    
C58   C59   A    
C32   C33   A    
C19   C20   A    
Cu2   O8    S    
C2    C3    S    
Cu1   N2    S    
C71   H45   S    
C11   C13   A    
C54   C55   A    
C68   H39   S    
C69   C74   A    
C15   C16   A    
C44   N2    A    
C59   C60   A    
C39   H18   S    
C12   O3    A    
C73   C74   A    
C6    C49   T    
C61   C62   A    
Cu1   O1    S    
C72   H46   S    
C4    H24   S    
C67   H38   S    
C39   C40   A    
C52   C53   A    
C57   C58   A    
C63   C64   A    
C1    O2    A    
C77   C78   A    
C35   C36   A    
C53   C54   A    
Cu2   O2    S    
C64   H35   S    
C57   C62   A    
