data_mof_unit_9151.cif
_audit_creation_date              2012-12-10T20:26:24-0500
_audit_creation_method            fapswitch 2.2
_symmetry_space_group_name_H-M    P1
_symmetry_Int_Tables_number       1
_space_group_crystal_system       triclinic
_cell_length_a                    10.427567
_cell_length_b                    10.788015
_cell_length_c                    9.90979
_cell_angle_alpha                 90.677325
_cell_angle_beta                  88.141229
_cell_angle_gamma                 91.546132
_cell_volume                      1113.7204443

loop_
_atom_site_label
_atom_site_type_symbol
_atom_type_description
_atom_site_fract_x
_atom_site_fract_y
_atom_site_fract_z
_atom_type_partial_charge
C1    C     C_R   0.506142 0.260294 0.498535 0.939521
C2    C     C_R   0.523123 0.128761 0.490947 -0.250287
C3    C     C_R   0.488861 0.062377 0.372682 0.419422
C4    C     C_R   0.467450 0.934016 0.379955 0.334643
C5    C     C_R   0.505768 0.871950 0.495850 -0.208567
C6    C     C_R   0.570995 0.937425 0.594924 -0.211318
C7    C     C_3   0.564333 0.930788 0.746270 0.340747
C8    C     C_3   0.573987 0.072821 0.747659 0.828862
C9    C     C_R   0.430259 0.412450 0.070860 -0.052178
C10   C     C_R   0.585564 0.572577 0.071786 0.424255
C11   C     C_R   0.590366 0.567012 0.925845 0.440290
C12   C     C_R   0.265577 0.523331 0.503418 0.887106
C13   C     C_R   0.428899 0.414485 0.930316 -0.044174
C14   C     C_3   0.291078 0.377704 0.922586 0.103574
C15   C     C_3   0.290617 0.370945 0.078165 0.833052
C16   C     C_R   0.497954 0.739802 0.500154 0.881822
C17   C     C_R   0.739333 0.502475 0.496853 0.739039
C18   C     C_2   0.934788 0.619552 0.433867 0.309567
C19   C     C_2   0.877067 0.513217 0.483437 0.190137
C20   C     C_2   0.076795 0.623524 0.416645 0.395161
C21   C     C_2   0.140946 0.579463 0.520112 0.291017
C22   C     C_R   0.577826 0.064250 0.595154 -0.129728
H1    H     H_    0.274808 0.288318 0.867671 0.121086
H2    H     H_    0.470043 0.893073 0.785134 0.077772
N1    N     N_R   0.499170 0.499140 0.142800 -0.133242
N2    N     N_R   0.499170 0.499180 0.857150 -0.127197
O1    O     O_R   0.500020 0.316790 0.614690 -0.597558
O2    O     O_R   0.500000 0.316760 0.385350 -0.556947
O3    O     O_R   0.319080 0.500020 0.614640 -0.552025
O4    O     O_R   0.319070 0.499980 0.385300 -0.536562
O5    O     O_R   0.500000 0.683240 0.614650 -0.612355
O6    O     O_R   0.499980 0.683210 0.385310 -0.534310
O7    O     O_R   0.680930 0.500020 0.614700 -0.596305
O8    O     O_R   0.680920 0.499980 0.385360 -0.595278
Zn1   Zn    Zn3+2 0.500010 0.500020 0.653130 1.017452
Zn2   Zn    Zn3+2 0.499990 0.499980 0.346870 1.072923
O9    O     O_3   0.869652 0.726544 0.406474 -0.839810
H3    H     H_    0.776661 0.715730 0.426149 0.333707
O10   O     O_3   0.688807 0.115082 0.808740 -0.638560
C23   C     C_3   0.718140 0.239652 0.778876 -0.237281
H4    H     H_    0.644756 0.300909 0.824336 0.196848
H5    H     H_    0.730358 0.253737 0.668635 0.148911
H6    H     H_    0.811189 0.265155 0.824091 0.159957
O11   O     O_3   0.673120 0.643164 0.143825 -0.602488
C24   C     C_3   0.662180 0.770358 0.115848 -0.141592
H7    H     H_    0.678089 0.823828 0.210349 0.174876
H8    H     H_    0.566588 0.795683 0.078685 0.170511
H9    H     H_    0.738952 0.800117 0.042495 0.194432
O12   O     O_3   0.687818 0.626486 0.852668 -0.555578
C25   C     C_3   0.806677 0.573047 0.879631 -0.267069
H10   H     H_    0.868105 0.577602 0.786646 0.228656
H11   H     H_    0.798779 0.473731 0.909008 0.105765
H12   H     H_    0.856633 0.626981 0.959097 0.170652
O13   O     O_3   0.219274 0.475648 0.876531 -0.678111
H13   H     H_    0.133226 0.439421 0.857597 0.353456
O14   O     O_3   0.208612 0.457364 0.142250 -0.521659
C26   C     C_3   0.081686 0.407128 0.153621 -0.101975
H14   H     H_    0.070121 0.351505 0.247036 0.206158
H15   H     H_    0.053897 0.349173 0.064958 0.090735
H16   H     H_    0.013074 0.483602 0.161118 0.160826
O15   O     O_3   0.274929 0.250313 0.131139 -0.762466
H17   H     H_    0.315478 0.190848 0.066915 0.308869
O16   O     O_3   0.948278 0.408411 0.501801 -0.807199
H18   H     H_    0.889370 0.338458 0.527553 0.316033
O17   O     O_3   0.143543 0.653321 0.296569 -0.586196
C27   C     C_3   0.082023 0.743505 0.222123 -0.139044
H19   H     H_    0.065713 0.828850 0.283744 0.182340
H20   H     H_    0.991295 0.705854 0.180026 0.169422
H21   H     H_    0.146064 0.770258 0.135126 0.176596
O18   O     O_3   0.086517 0.583574 0.649849 -0.605577
C28   C     C_3   0.113437 0.701905 0.706167 -0.328563
H22   H     H_    0.065227 0.775626 0.650615 0.144354
H23   H     H_    0.218656 0.722212 0.708316 0.190040
H24   H     H_    0.075787 0.703837 0.812119 0.193676
O19   O     O_3   0.466184 0.122563 0.253926 -0.579272
C29   C     C_3   0.581124 0.125072 0.174530 -0.287740
H25   H     H_    0.664435 0.162097 0.231673 0.155919
H26   H     H_    0.569761 0.187792 0.088284 0.191790
H27   H     H_    0.601557 0.031461 0.132753 0.157097
O20   O     O_3   0.404582 0.868851 0.279268 -0.749379
H28   H     H_    0.373882 0.926464 0.211100 0.357260
O21   O     O_3   0.668278 0.875357 0.811405 -0.589021
C30   C     C_3   0.781185 0.863026 0.729546 -0.087418
H29   H     H_    0.812015 0.950924 0.679396 0.161187
H30   H     H_    0.767553 0.787814 0.653787 0.184429
H31   H     H_    0.860155 0.836602 0.794765 0.143932
O22   O     O_3   0.462906 0.127380 0.802107 -0.828999
H32   H     H_    0.457510 0.104086 0.898580 0.297143

loop_
_geom_bond_atom_site_label_1
_geom_bond_atom_site_label_2
_ccdc_geom_bond_type
C27   H20   S    
O22   H32   S    
C12   O3    A    
C29   H27   S    
C9    N1    A    
C7    C8    S    
C24   H7    S    
C16   O5    A    
O6    Zn2   S    
C18   O9    S    
C29   H26   S    
C4    O20   S    
C5    C6    A    
C26   H15   S    
C27   H21   S    
C7    H2    S    
C6    C22   A    
O14   C26   S    
C1    C2    S    
C9    C13   A    
C5    C16   S    
C17   C19   S    
C23   H6    S    
C19   O16   S    
C2    C22   A    
C1    O2    A    
C8    C22   S    
O18   C28   S    
C8    O10   S    
C3    O19   S    
O8    Zn2   S    
C12   O4    A    
C23   H5    S    
C27   H19   S    
C13   C14   S    
C17   O7    A    
C24   H8    S    
C25   H12   S    
C10   O11   S    
C20   O17   S    
C29   H25   S    
O10   C23   S    
C28   H23   S    
C18   C19   D    
C26   H16   S    
C11   N2    A    
O1    Zn1   S    
C12   C21   S    
C14   H1    S    
O19   C29   S    
O9    H3    S    
C11   O12   S    
C25   H11   S    
C30   H29   S    
C30   H31   S    
C25   H10   S    
C15   O15   S    
C10   N1    A    
C23   H4    S    
C30   H30   S    
O21   C30   S    
O5    Zn1   S    
C13   N2    A    
C17   O8    A    
C3    C4    A    
O11   C24   S    
C24   H9    S    
O13   H13   S    
C14   O13   S    
O20   H28   S    
C28   H24   S    
C6    C7    S    
C16   O6    A    
O3    Zn1   S    
O4    Zn2   S    
C21   O18   S    
C8    O22   S    
C15   O14   S    
C2    C3    A    
C9    C15   S    
C28   H22   S    
C26   H14   S    
O7    Zn1   S    
C18   C20   S    
O17   C27   S    
O15   H17   S    
C10   C11   A    
N1    Zn2   S    
O16   H18   S    
N2    Zn1   S    
C4    C5    A    
C7    O21   S    
C20   C21   D    
O2    Zn2   S    
O12   C25   S    
C1    O1    A    
C14   C15   S    
