data_mof_unit_60067.cif
_audit_creation_date              2013-03-05T16:11:30-0500
_audit_creation_method            fapswitch 2.2
_symmetry_space_group_name_H-M    P1
_symmetry_Int_Tables_number       1
_space_group_crystal_system       triclinic
_cell_length_a                    37.140934
_cell_length_b                    30.398016
_cell_length_c                    21.42121
_cell_angle_alpha                 90.000061
_cell_angle_beta                  54.86483
_cell_angle_gamma                 90.000052
_cell_volume                      19778.2272721

loop_
_atom_site_label
_atom_site_type_symbol
_atom_site_description
_atom_site_fract_x
_atom_site_fract_y
_atom_site_fract_z
_atom_type_partial_charge
O1    O     O_R   0.935730 0.462810 0.064280 -0.593967
O2    O     O_R   0.064270 0.462810 0.935720 -0.593967
O3    O     O_R   0.435730 0.962810 0.064280 -0.593988
O4    O     O_R   0.564270 0.962810 0.935720 -0.593988
O5    O     O_R   0.935740 0.537210 0.064260 -0.580079
O6    O     O_R   0.064260 0.537210 0.935740 -0.580080
O7    O     O_R   0.435740 0.037210 0.064260 -0.580071
O8    O     O_R   0.564260 0.037210 0.935740 -0.580072
C1    C     C_R   0.914889 0.500005 0.085251 0.827133
C2    C     C_R   0.085111 0.500005 0.914749 0.827133
C3    C     C_R   0.414889 0.000005 0.085251 0.827132
C4    C     C_R   0.585111 0.000005 0.914749 0.827132
O9    O     O_R   0.000010 0.462810 0.091570 -0.592353
O10   O     O_R   0.999990 0.462810 0.908430 -0.592352
O11   O     O_R   0.500010 0.962810 0.091570 -0.592376
O12   O     O_R   0.499990 0.962810 0.908430 -0.592377
O13   O     O_R   0.000020 0.537210 0.091550 -0.577473
O14   O     O_R   0.999980 0.537210 0.908450 -0.577473
O15   O     O_R   0.500020 0.037210 0.091550 -0.577457
O16   O     O_R   0.499980 0.037210 0.908450 -0.577458
C5    C     C_R   0.000060 0.499993 0.120302 0.864868
C6    C     C_R   0.999940 0.499993 0.879698 0.864868
C7    C     C_R   0.500060 0.999993 0.120302 0.864865
C8    C     C_R   0.499940 0.999993 0.879698 0.864865
Cu1   Cu    Cu3+1 0.000000 0.455950 0.000000 0.972826
Cu2   Cu    Cu3+1 0.500000 0.955950 0.000000 0.972710
Cu3   Cu    Cu3+1 0.000000 0.544060 0.000000 1.004821
Cu4   Cu    Cu3+1 0.500000 0.044060 0.000000 1.004815
C9    C     C_R   0.960829 0.343190 0.549303 -0.235182
C10   C     C_R   0.039171 0.343190 0.450697 -0.235183
C11   C     C_R   0.460629 0.843165 0.547839 -0.235139
C12   C     C_R   0.539370 0.843165 0.452159 -0.235133
C13   C     C_R   0.507603 0.702603 0.436828 -0.058896
C14   C     C_R   0.492399 0.702603 0.563170 -0.058906
C15   C     C_R   0.006681 0.202621 0.437514 -0.059020
C16   C     C_R   0.993319 0.202621 0.562486 -0.059020
C17   C     C_R   0.960167 0.297170 0.549528 0.314151
C18   C     C_R   0.039833 0.297170 0.450472 0.314151
C19   C     C_R   0.459972 0.797144 0.548010 0.313930
C20   C     C_R   0.540027 0.797144 0.451988 0.313948
C21   C     C_3   0.967812 0.524491 0.262283 0.252344
C22   C     C_3   0.032188 0.524492 0.737717 0.252344
C23   C     C_3   0.467807 0.024484 0.262288 0.252348
C24   C     C_3   0.532193 0.024484 0.737712 0.252348
C25   C     C_3   0.005492 0.541679 0.266190 -0.257272
C26   C     C_3   0.994508 0.541679 0.733810 -0.257272
C27   C     C_3   0.505482 0.041680 0.266200 -0.257265
C28   C     C_3   0.494518 0.041680 0.733800 -0.257266
H1    H     H_    0.009692 0.575732 0.279752 0.153075
H2    H     H_    0.990307 0.575732 0.720249 0.153075
H3    H     H_    0.509675 0.075735 0.279769 0.153072
H4    H     H_    0.490325 0.075735 0.720231 0.153072
C29   C     C_3   0.999950 0.499735 0.311523 -0.073941
C30   C     C_3   0.000050 0.499735 0.688477 -0.073941
C31   C     C_3   0.499950 0.999735 0.311523 -0.073920
C32   C     C_3   0.500050 0.999735 0.688477 -0.073919
C33   C     C_3   0.961372 0.483322 0.309337 -0.136297
C34   C     C_3   0.038628 0.483322 0.690663 -0.136297
C35   C     C_3   0.461376 0.983313 0.309333 -0.136225
C36   C     C_3   0.538624 0.983313 0.690667 -0.136225
C37   C     C_3   0.995086 0.458273 0.234296 -0.251544
C38   C     C_3   0.004914 0.458273 0.765703 -0.251544
C39   C     C_3   0.495096 0.958272 0.234286 -0.251600
C40   C     C_3   0.504904 0.958272 0.765713 -0.251602
C41   C     C_3   0.033577 0.474338 0.237943 -0.191330
C42   C     C_3   0.966423 0.474338 0.762057 -0.191331
C43   C     C_3   0.533583 0.974346 0.237937 -0.191455
C44   C     C_3   0.466417 0.974346 0.762063 -0.191456
C45   C     C_3   0.037935 0.515708 0.192787 0.364698
C46   C     C_3   0.962065 0.515708 0.807213 0.364698
C47   C     C_3   0.537932 0.015717 0.192791 0.364713
C48   C     C_3   0.462068 0.015717 0.807209 0.364714
C49   C     C_3   0.000472 0.499870 0.188207 -0.136467
C50   C     C_3   0.999528 0.499869 0.811793 -0.136466
C51   C     C_3   0.500473 0.999870 0.188206 -0.136448
C52   C     C_3   0.499527 0.999869 0.811794 -0.136447
H5    H     H_    0.929583 0.470187 0.358554 0.150712
H6    H     H_    0.070417 0.470187 0.641446 0.150712
H7    H     H_    0.429590 0.970171 0.358547 0.150751
H8    H     H_    0.570410 0.970171 0.641453 0.150750
H9    H     H_    0.990928 0.424242 0.220594 0.177986
H10   H     H_    0.009073 0.424242 0.779405 0.177986
H11   H     H_    0.490946 0.924240 0.220576 0.177952
H12   H     H_    0.509055 0.924240 0.779423 0.177951
H13   H     H_    0.061157 0.454002 0.228414 0.171963
H14   H     H_    0.938843 0.454002 0.771585 0.171963
H15   H     H_    0.561168 0.954017 0.228403 0.171843
H16   H     H_    0.438832 0.954016 0.771596 0.171842
C53   C     C_R   0.797236 0.537345 0.184198 -0.157465
C54   C     C_R   0.202764 0.537345 0.815802 -0.157465
C55   C     C_R   0.297236 0.037345 0.184197 -0.157503
C56   C     C_R   0.702764 0.037344 0.815803 -0.157502
H17   H     H_    0.779710 0.566699 0.187384 0.143688
H18   H     H_    0.220290 0.566699 0.812616 0.143688
H19   H     H_    0.279710 0.066698 0.187382 0.143718
H20   H     H_    0.720290 0.066698 0.812618 0.143718
C57   C     C_R   0.843122 0.537625 0.138835 -0.114802
C58   C     C_R   0.156878 0.537626 0.861165 -0.114803
C59   C     C_R   0.343122 0.037625 0.138834 -0.114829
C60   C     C_R   0.656878 0.037625 0.861166 -0.114830
H21   H     H_    0.860253 0.567135 0.107159 0.174262
H22   H     H_    0.139746 0.567135 0.892841 0.174262
H23   H     H_    0.360253 0.067134 0.107156 0.174275
H24   H     H_    0.639747 0.067134 0.892844 0.174276
C61   C     C_R   0.866533 0.499946 0.133746 -0.023101
C62   C     C_R   0.133466 0.499946 0.866254 -0.023102
C63   C     C_R   0.366534 0.999946 0.133747 -0.023120
C64   C     C_R   0.633466 0.999946 0.866253 -0.023120
C65   C     C_R   0.843364 0.462143 0.175287 -0.180512
C66   C     C_R   0.156636 0.462143 0.824713 -0.180511
C67   C     C_R   0.343364 0.962143 0.175289 -0.180540
C68   C     C_R   0.656636 0.962143 0.824711 -0.180540
H25   H     H_    0.860686 0.432730 0.172526 0.153853
H26   H     H_    0.139314 0.432730 0.827474 0.153853
H27   H     H_    0.360686 0.932731 0.172529 0.153864
H28   H     H_    0.639313 0.932731 0.827471 0.153864
C69   C     C_R   0.797483 0.462122 0.221585 -0.159827
C70   C     C_R   0.202517 0.462122 0.778415 -0.159827
C71   C     C_R   0.297484 0.962122 0.221587 -0.159837
C72   C     C_R   0.702516 0.962122 0.778413 -0.159837
H29   H     H_    0.780157 0.432654 0.253197 0.134168
H30   H     H_    0.219843 0.432654 0.746803 0.134168
H31   H     H_    0.280158 0.932655 0.253200 0.134186
H32   H     H_    0.719842 0.932655 0.746799 0.134186
C73   C     C_R   0.774163 0.499648 0.226031 0.091480
C74   C     C_R   0.225837 0.499648 0.773969 0.091481
C75   C     C_R   0.274163 0.999647 0.226031 0.091466
C76   C     C_R   0.725837 0.999648 0.773969 0.091465
C77   C     C_R   0.702591 0.485575 0.350481 -0.161890
C78   C     C_R   0.297409 0.485575 0.649519 -0.161890
C79   C     C_R   0.202591 0.985576 0.350482 -0.161923
C80   C     C_R   0.797409 0.985576 0.649518 -0.161924
H33   H     H_    0.720028 0.474986 0.374557 0.134213
H34   H     H_    0.279972 0.474986 0.625443 0.134213
H35   H     H_    0.220028 0.974989 0.374558 0.134240
H36   H     H_    0.779972 0.974989 0.625441 0.134240
C81   C     C_R   0.656704 0.485987 0.396527 -0.181932
C82   C     C_R   0.343296 0.485987 0.603473 -0.181932
C83   C     C_R   0.156704 0.985989 0.396528 -0.182056
C84   C     C_R   0.843296 0.985989 0.603472 -0.182056
H37   H     H_    0.639470 0.475256 0.455282 0.153344
H38   H     H_    0.360530 0.475256 0.544717 0.153344
H39   H     H_    0.139470 0.975258 0.455284 0.153353
H40   H     H_    0.860530 0.975258 0.544716 0.153353
C85   C     C_R   0.633414 0.499679 0.366602 -0.032747
C86   C     C_R   0.366586 0.499679 0.633398 -0.032747
C87   C     C_R   0.133414 0.999678 0.366602 -0.032843
C88   C     C_R   0.866586 0.999678 0.633398 -0.032843
C89   C     C_R   0.656689 0.513060 0.290036 -0.173788
C90   C     C_R   0.343311 0.513060 0.709964 -0.173788
C91   C     C_R   0.156689 0.013058 0.290035 -0.173616
C92   C     C_R   0.843311 0.013058 0.709965 -0.173616
H41   H     H_    0.639453 0.523811 0.265687 0.157879
H42   H     H_    0.360547 0.523811 0.734313 0.157879
H43   H     H_    0.139453 0.023807 0.265685 0.158014
H44   H     H_    0.860547 0.023807 0.734314 0.158014
C93   C     C_R   0.702567 0.513299 0.244375 -0.154004
C94   C     C_R   0.297433 0.513299 0.755625 -0.154003
C95   C     C_R   0.202567 0.013296 0.244374 -0.153996
C96   C     C_R   0.797433 0.013297 0.755626 -0.153996
H45   H     H_    0.719981 0.523828 0.185473 0.146337
H46   H     H_    0.280019 0.523828 0.814527 0.146337
H47   H     H_    0.219981 0.023824 0.185471 0.146389
H48   H     H_    0.780019 0.023824 0.814529 0.146389
C97   C     C_R   0.725776 0.499477 0.274284 0.097754
C98   C     C_R   0.274224 0.499477 0.725715 0.097754
C99   C     C_R   0.225776 0.999476 0.274285 0.097695
C100  C     C_R   0.774224 0.999476 0.725715 0.097695
C101  C     C_R   1.000000 0.366378 0.500000 -0.158478
C102  C     C_R   0.500000 0.866361 0.500000 -0.158773
H49   H     H_    0.930368 0.360949 0.587208 0.202503
H50   H     H_    0.069632 0.360949 0.412793 0.202503
H51   H     H_    0.430015 0.860917 0.584561 0.202825
H52   H     H_    0.569985 0.860916 0.415436 0.202814
C103  C     C_R   0.000000 0.273908 0.500000 -0.177207
C104  C     C_R   0.500000 0.773884 0.500000 -0.177274
C105  C     C_R   0.500000 0.274445 0.500000 0.029831
C106  C     C_R   0.000000 0.774445 0.500000 0.029843
H53   H     H_    0.513487 0.720212 0.387784 0.134165
H54   H     H_    0.486515 0.720213 0.612213 0.134157
H55   H     H_    0.011843 0.220228 0.389006 0.134329
H56   H     H_    0.988157 0.220228 0.610994 0.134329
O17   O     O_R   0.037200 0.564240 0.462790 -0.588127
O18   O     O_R   0.962800 0.564240 0.537210 -0.588126
O19   O     O_R   0.537200 0.064240 0.462790 -0.588124
O20   O     O_R   0.462800 0.064240 0.537210 -0.588123
C107  C     C_R   0.000000 0.585122 0.500000 0.782347
C108  C     C_R   0.500000 0.085122 0.500000 0.782336
O21   O     O_R   0.037200 0.499960 0.371220 -0.571338
O22   O     O_R   0.962800 0.499960 0.628780 -0.571338
O23   O     O_R   0.537200 0.999960 0.371220 -0.571276
O24   O     O_R   0.462800 0.999960 0.628780 -0.571276
O25   O     O_R   0.962800 0.499940 0.445620 -0.594581
O26   O     O_R   0.037200 0.499940 0.554380 -0.594582
O27   O     O_R   0.462800 0.999940 0.445620 -0.594610
O28   O     O_R   0.537200 0.999940 0.554380 -0.594611
C109  C     C_R   0.999968 0.499707 0.379680 0.824063
C110  C     C_R   0.000032 0.499707 0.620320 0.824064
C111  C     C_R   0.499968 0.999707 0.379680 0.824080
C112  C     C_R   0.500032 0.999707 0.620320 0.824080
Cu5   Cu    Cu3+1 0.044060 0.499960 0.455930 0.977380
Cu6   Cu    Cu3+1 0.955940 0.499960 0.544070 0.977381
Cu7   Cu    Cu3+1 0.544060 0.999960 0.455930 0.977431
Cu8   Cu    Cu3+1 0.455940 0.999960 0.544070 0.977433
O29   O     O_R   0.037210 0.435680 0.462780 -0.588172
O30   O     O_R   0.962790 0.435680 0.537220 -0.588171
O31   O     O_R   0.537210 0.935680 0.462780 -0.588261
O32   O     O_R   0.462790 0.935680 0.537220 -0.588260
H57   H     H_    0.513413 0.639641 0.387432 0.155874
H58   H     H_    0.486589 0.639641 0.612566 0.155872
H59   H     H_    0.011786 0.139668 0.388639 0.156200
H60   H     H_    0.988214 0.139668 0.611361 0.156200
C113  C     C_R   0.000000 0.414797 0.500000 0.830984
C114  C     C_R   0.500000 0.914791 0.500000 0.831056
O33   O     O_R   0.500030 0.564270 0.552970 -0.586975
O34   O     O_R   0.499970 0.564270 0.447030 -0.586973
O35   O     O_R   0.000030 0.064270 0.552970 -0.587106
O36   O     O_R   0.999970 0.064270 0.447030 -0.587105
C115  C     C_R   0.500001 0.633452 0.499999 -0.039514
C116  C     C_R   0.000000 0.133464 0.500000 -0.039908
C117  C     C_R   0.500000 0.585079 0.500000 0.800199
C118  C     C_R   0.000000 0.085083 0.500000 0.800363
O37   O     O_R   0.564280 0.500000 0.488710 -0.589357
O38   O     O_R   0.435720 0.500000 0.511290 -0.589357
O39   O     O_R   0.064280 1.000000 0.488710 -0.589471
O40   O     O_R   0.935720 0.000000 0.511290 -0.589471
O41   O     O_R   0.564280 0.499990 0.382710 -0.580424
O42   O     O_R   0.435720 0.499990 0.617290 -0.580425
O43   O     O_R   0.064280 0.999990 0.382710 -0.580297
O44   O     O_R   0.935720 0.999990 0.617290 -0.580298
C119  C     C_R   0.585069 0.499947 0.414948 0.780373
C120  C     C_R   0.414931 0.499947 0.585052 0.780376
C121  C     C_R   0.085069 0.999947 0.414948 0.780441
C122  C     C_R   0.914931 0.999947 0.585052 0.780442
Cu9   Cu    Cu3+1 0.500010 0.500000 0.562750 0.972422
Cu10  Cu    Cu3+1 0.499990 0.500000 0.437250 0.972424
Cu11  Cu    Cu3+1 0.000010 1.000000 0.562750 0.972377
Cu12  Cu    Cu3+1 0.999990 0.000000 0.437250 0.972377
C123  C     C_R   0.507447 0.656769 0.436899 -0.171007
C124  C     C_R   0.492555 0.656769 0.563099 -0.171004
C125  C     C_R   0.006543 0.156787 0.437576 -0.171047
C126  C     C_R   0.993457 0.156787 0.562424 -0.171047
O45   O     O_R   0.500000 0.435720 0.553010 -0.565457
O46   O     O_R   0.500000 0.435720 0.446990 -0.565457
O47   O     O_R   0.000000 0.935720 0.553010 -0.565451
O48   O     O_R   0.000000 0.935720 0.446990 -0.565451
C127  C     C_R   0.500000 0.415093 0.500000 0.843372
C128  C     C_R   1.000000 0.915093 0.500000 0.843380
C129  C     C_R   0.960110 0.702683 0.538850 -0.164642
C130  C     C_R   0.039890 0.702683 0.461150 -0.164643
C131  C     C_R   0.460110 0.202683 0.538850 -0.164642
C132  C     C_R   0.539890 0.202683 0.461149 -0.164643
H61   H     H_    0.928938 0.719954 0.568449 0.133759
H62   H     H_    0.071062 0.719954 0.431550 0.133760
H63   H     H_    0.428938 0.219954 0.568449 0.133761
H64   H     H_    0.571062 0.219954 0.431550 0.133761
C133  C     C_R   0.960097 0.656851 0.538850 -0.180935
C134  C     C_R   0.039903 0.656851 0.461150 -0.180935
C135  C     C_R   0.460097 0.156851 0.538850 -0.180927
C136  C     C_R   0.539903 0.156851 0.461150 -0.180927
H65   H     H_    0.928830 0.639748 0.569101 0.160688
H66   H     H_    0.071170 0.639748 0.430899 0.160688
H67   H     H_    0.428830 0.139748 0.569101 0.160693
H68   H     H_    0.571170 0.139748 0.430899 0.160692
C137  C     C_R   0.000000 0.633520 0.500000 -0.035381
C138  C     C_R   0.500000 0.133520 0.500000 -0.035383
C139  C     C_R   0.000000 0.725959 0.500000 0.136582
C140  C     C_R   0.500000 0.225959 0.500000 0.136578
C141  C     C_R   0.529199 0.297622 0.432369 -0.234028
C142  C     C_R   0.470801 0.297622 0.567631 -0.234028
C143  C     C_R   0.029199 0.797622 0.432369 -0.234022
C144  C     C_R   0.970801 0.797622 0.567631 -0.234022
H69   H     H_    0.551753 0.279945 0.379752 0.142156
H70   H     H_    0.448247 0.279945 0.620247 0.142155
H71   H     H_    0.051753 0.779945 0.379752 0.142139
H72   H     H_    0.948247 0.779945 0.620247 0.142139
C145  C     C_R   0.529845 0.343627 0.431897 0.205864
C146  C     C_R   0.470155 0.343627 0.568103 0.205865
C147  C     C_R   0.029845 0.843627 0.431897 0.205876
C148  C     C_R   0.970155 0.843627 0.568103 0.205876
C149  C     C_R   0.500000 0.366858 0.500000 -0.087374
C150  C     C_R   1.000000 0.866858 0.500000 -0.087372
C151  C     C_R   0.500001 0.725592 0.499999 0.209583
C152  C     C_R   0.000000 0.225612 0.500000 0.209217
N1    N     N_2   0.932387 0.551451 0.273615 -0.429559
H73   H     H_    0.943044 0.574768 0.231488 0.264472
C153  C     C_3   0.903342 0.569399 0.349569 -0.664406
H74   H     H_    0.876341 0.587919 0.353492 0.229905
H75   H     H_    0.921711 0.592140 0.362414 0.221783
H76   H     H_    0.888449 0.542561 0.392555 0.236035
N2    N     N_2   0.067612 0.551451 0.726385 -0.429559
H77   H     H_    0.056956 0.574768 0.768512 0.264473
C154  C     C_3   0.096658 0.569399 0.650431 -0.664403
H78   H     H_    0.123658 0.587920 0.646509 0.229904
H79   H     H_    0.078288 0.592140 0.637587 0.221782
H80   H     H_    0.111551 0.542561 0.607445 0.236034
N3    N     N_2   0.432375 0.051435 0.273626 -0.429553
H81   H     H_    0.443027 0.074754 0.231503 0.264458
C155  C     C_3   0.403326 0.069377 0.349583 -0.664456
H82   H     H_    0.376321 0.087890 0.353510 0.229867
H83   H     H_    0.421690 0.092123 0.362432 0.221779
H84   H     H_    0.388439 0.042536 0.392564 0.236058
N4    N     N_2   0.567624 0.051435 0.726374 -0.429553
H85   H     H_    0.556973 0.074754 0.768497 0.264458
C156  C     C_3   0.596674 0.069378 0.650417 -0.664455
H86   H     H_    0.623679 0.087891 0.646491 0.229867
H87   H     H_    0.578310 0.092123 0.637568 0.221778
H88   H     H_    0.611561 0.042537 0.607436 0.236058
N5    N     N_R   0.918789 0.274794 0.599511 0.125746
O49   O     O_R   0.888092 0.292588 0.664200 -0.349111
O50   O     O_R   0.909523 0.239451 0.577094 -0.351206
N6    N     N_R   0.081211 0.274794 0.400489 0.125746
O51   O     O_R   0.111908 0.292588 0.335801 -0.349110
O52   O     O_R   0.090477 0.239451 0.422906 -0.351206
N7    N     N_R   0.418417 0.774768 0.596365 0.125843
O53   O     O_R   0.386931 0.792644 0.660281 -0.349029
O54   O     O_R   0.409892 0.739343 0.572973 -0.351334
N8    N     N_R   0.581580 0.774768 0.403629 0.125841
O55   O     O_R   0.613053 0.792635 0.339698 -0.349036
O56   O     O_R   0.590115 0.739352 0.427024 -0.351329
N9    N     N_2   0.560968 0.366342 0.362967 -0.413800
H89   H     H_    0.568709 0.350124 0.314377 0.255065
C157  C     C_3   0.599936 0.380707 0.357183 -0.657725
H90   H     H_    0.619187 0.351784 0.354181 0.218042
H91   H     H_    0.590972 0.401339 0.406967 0.214232
H92   H     H_    0.620847 0.400717 0.304666 0.233696
N10   N     N_2   0.439032 0.366342 0.637033 -0.413800
H93   H     H_    0.431291 0.350124 0.685623 0.255065
C158  C     C_3   0.400064 0.380707 0.642817 -0.657724
H94   H     H_    0.380813 0.351784 0.645819 0.218042
H95   H     H_    0.409028 0.401339 0.593033 0.214232
H96   H     H_    0.379153 0.400717 0.695333 0.233696
N11   N     N_2   0.060968 0.866342 0.362967 -0.413799
H97   H     H_    0.068709 0.850124 0.314377 0.255055
C159  C     C_3   0.099936 0.880707 0.357183 -0.657751
H98   H     H_    0.119187 0.851784 0.354180 0.218039
H99   H     H_    0.090972 0.901339 0.406967 0.214249
H100  H     H_    0.120847 0.900717 0.304666 0.233682
N12   N     N_2   0.939032 0.866342 0.637033 -0.413799
H101  H     H_    0.931291 0.850124 0.685623 0.255055
C160  C     C_3   0.900064 0.880707 0.642817 -0.657751
H102  H     H_    0.880813 0.851784 0.645819 0.218039
H103  H     H_    0.909028 0.901339 0.593033 0.214248
H104  H     H_    0.879153 0.900717 0.695333 0.233682
N13   N     N_R   0.080225 0.533067 0.129966 0.123834
O57   O     O_R   0.109065 0.545679 0.142315 -0.342860
O58   O     O_R   0.089792 0.535336 0.061357 -0.383516
N14   N     N_R   0.919774 0.533066 0.870034 0.123834
O59   O     O_R   0.890934 0.545679 0.857685 -0.342860
O60   O     O_R   0.910208 0.535336 0.938643 -0.383516
N15   N     N_R   0.580218 0.033085 0.129973 0.123814
O61   O     O_R   0.609054 0.045706 0.142326 -0.342846
O62   O     O_R   0.589785 0.035355 0.061364 -0.383524
N16   N     N_R   0.419782 0.033085 0.870027 0.123813
O63   O     O_R   0.390945 0.045705 0.857674 -0.342846
O64   O     O_R   0.410214 0.035355 0.938636 -0.383524

loop_
_geom_bond_atom_site_label_1
_geom_bond_atom_site_label_2
_geom_bond_distance
_ccdc_geom_bond_type
C59   H23   1.083048 S    
C13   C151  1.399806 A    
C34   C38   1.553985 S    
C31   C35   1.543137 S    
O39   Cu11  1.963623 S    
C142  H70   1.083559 S    
N2    H77   1.030675 S    
C136  H68   1.082897 S    
C105  C142  1.401047 A    
C22   C34   1.536822 S    
C128  C150  1.466251 S    
N4    C156  1.445121 S    
C53   C73   1.402370 A    
N11   H97   1.031805 S    
C129  H61   1.083090 S    
C94   C98   1.402062 A    
C55   C75   1.402371 A    
C133  H65   1.082895 S    
C148  N12   1.424315 S    
C130  C139  1.403228 A    
C135  H67   1.082895 S    
C107  C137  1.471203 S    
C60   H24   1.083045 S    
C15   C152  1.399773 A    
C10   C18   1.399080 A    
C115  C123  1.405578 A    
C89   H41   1.083033 S    
C40   H12   1.110090 S    
C81   H37   1.083030 S    
C86   C90   1.403875 A    
C31   C111  1.460401 S    
C92   H44   1.083033 S    
C46   C50   1.527934 S    
C153  H75   1.111343 S    
C91   H43   1.083033 S    
O4    C4    1.295810 A    
C14   C124  1.393278 A    
C158  H94   1.111495 S    
C57   C61   1.403848 A    
C143  C147  1.398585 A    
C23   N3    1.447064 S    
C66   C70   1.393615 A    
C78   H34   1.083245 S    
O23   Cu7   1.972262 S    
C21   N1    1.447064 S    
O33   C117  1.299641 A    
O48   C128  1.297151 A    
C23   C51   1.527766 S    
C25   C45   1.538446 S    
C157  H90   1.111494 S    
O17   Cu5   1.965060 S    
C133  C137  1.404400 A    
C129  C133  1.393193 A    
C4    C64   1.468744 S    
C8    C52   1.463479 S    
O16   Cu4   1.972563 S    
C58   H22   1.083047 S    
O26   Cu5   1.973318 S    
O13   C5    1.288508 A    
O7    Cu4   1.962894 S    
O15   C7    1.288508 A    
C10   C101  1.400108 A    
C17   C103  1.416949 A    
H57   C123  1.082941 S    
N4    H85   1.030677 S    
C44   C48   1.537233 S    
N15   O62   1.299964 A    
C54   C74   1.402366 A    
Cu11  O47   1.965115 S    
Cu9   O45   1.965115 S    
C77   H33   1.083246 S    
O8    Cu4   1.962894 S    
O36   Cu12  1.964832 S    
C136  C138  1.404397 A    
C78   C82   1.393830 A    
C146  N10   1.424315 S    
C106  C143  1.401046 A    
C132  C136  1.393196 A    
C20   C104  1.417015 A    
O21   C109  1.287110 A    
C104  C151  1.467978 S    
O3    Cu2   1.963228 S    
O19   C108  1.296005 A    
O46   C127  1.297151 A    
C33   C37   1.553987 S    
C11   C102  1.400272 A    
C71   H31   1.083273 S    
C15   H55   1.083360 S    
C101  C113  1.471838 S    
C116  C125  1.405617 A    
C35   C39   1.553986 S    
C58   C62   1.403852 A    
C24   N4    1.447064 S    
C36   C40   1.553985 S    
C29   C109  1.460399 S    
N1    C153  1.445124 S    
C142  C146  1.398585 A    
C42   C46   1.537237 S    
Cu7   O31   1.965031 S    
N14   O59   1.300178 A    
C95   C99   1.402062 A    
O44   C122  1.298774 A    
C96   C100  1.402062 A    
C26   C46   1.538445 S    
O3    C3    1.295810 A    
Cu12  O48   1.965115 S    
C159  H98   1.111496 S    
C37   C41   1.554605 S    
C28   H4    1.110159 S    
C77   C81   1.393830 A    
N9    H89   1.031805 S    
O47   C128  1.297152 A    
C108  C138  1.471203 S    
C21   C25   1.540543 S    
C9    C101  1.400108 A    
C23   C27   1.540542 S    
C24   C28   1.540542 S    
C32   C112  1.460401 S    
O41   C119  1.298777 A    
C87   C91   1.403875 A    
N15   O61   1.300174 A    
Cu6   O30   1.965030 S    
C19   N7    1.441357 S    
C68   C72   1.393615 A    
C40   C44   1.554607 S    
N2    C154  1.445122 S    
C45   N13   1.457240 S    
C1    C61   1.468747 S    
C5    C49   1.463481 S    
C56   H20   1.083258 S    
N6    O51   1.301605 A    
C67   C71   1.393618 A    
C70   H30   1.083274 S    
C24   C52   1.527767 S    
N8    O56   1.301354 A    
O5    Cu3   1.962894 S    
C83   H39   1.083031 S    
C156  H87   1.111347 S    
C29   C41   1.540888 S    
C66   H26   1.083046 S    
C43   C47   1.537235 S    
O8    C4    1.296212 A    
O24   C112  1.287108 A    
C79   C99   1.402304 A    
C144  C148  1.398585 A    
Cu11  Cu12  2.688792 S    
N3    C155  1.445123 S    
C134  H66   1.082897 S    
C28   C48   1.538448 S    
O27   C111  1.287064 A    
C160  H103  1.110329 S    
C40   C52   1.544760 S    
C46   N14   1.457240 S    
C60   C64   1.403852 A    
C38   C42   1.554609 S    
O13   Cu3   1.972559 S    
Cu8   O32   1.965030 S    
C93   C97   1.402061 A    
N10   C158  1.447188 S    
O22   Cu6   1.972260 S    
C32   C44   1.540892 S    
O31   C114  1.296365 A    
C9    H49   1.083196 S    
C157  H91   1.110328 S    
C91   C95   1.393510 A    
C73   C97   1.469715 S    
O5    C1    1.296213 A    
C154  H78   1.110265 S    
C80   H36   1.083247 S    
C141  C145  1.398585 A    
C48   N16   1.457241 S    
C147  N11   1.424315 S    
O15   Cu4   1.972559 S    
C10   H50   1.083196 S    
C15   C125  1.393264 A    
C2    C62   1.468747 S    
C103  C152  1.468087 S    
C6    C50   1.463481 S    
O35   Cu11  1.964833 S    
C68   H28   1.083045 S    
C20   N8    1.441333 S    
C61   C65   1.404086 A    
C22   N2    1.447065 S    
C36   H8    1.110047 S    
O14   C6    1.288507 A    
C63   C67   1.404084 A    
C88   C92   1.403875 A    
C105  C141  1.401046 A    
C42   H14   1.110158 S    
O1    Cu1   1.963228 S    
C30   C42   1.540891 S    
O40   C122  1.299444 A    
Cu5   Cu6   2.676537 S    
C16   C126  1.393264 A    
O10   C6    1.287514 A    
C135  C138  1.404400 A    
C37   H9    1.110093 S    
O26   C110  1.287063 A    
C39   C51   1.544758 S    
C82   C86   1.403778 A    
C53   H17   1.083257 S    
C155  H84   1.110488 S    
C79   C83   1.393830 A    
C55   H19   1.083256 S    
N16   O63   1.300180 A    
Cu5   O29   1.965031 S    
O44   Cu11  1.963553 S    
C55   C59   1.393772 A    
C69   C73   1.401979 A    
C71   C75   1.401976 A    
C130  H62   1.083088 S    
C13   H53   1.083384 S    
C14   H54   1.083384 S    
C65   C69   1.393615 A    
O41   Cu10  1.963550 S    
C96   H48   1.083271 S    
C81   C85   1.403778 A    
C154  H80   1.110489 S    
C11   H51   1.083214 S    
C22   C26   1.540539 S    
O34   C117  1.299643 A    
O42   Cu9   1.963553 S    
C131  C135  1.393193 A    
C132  C140  1.403228 A    
O37   C119  1.299444 A    
C146  C149  1.412207 A    
Cu9   Cu10  2.688792 S    
C45   C49   1.527932 S    
N13   O58   1.299964 A    
C48   C52   1.527933 S    
C38   H10   1.110093 S    
O29   C113  1.296275 A    
N7    O53   1.301729 A    
C14   C151  1.399804 A    
C106  C144  1.401047 A    
C54   H18   1.083257 S    
N11   C159  1.447189 S    
O12   Cu2   1.972808 S    
C22   C50   1.527767 S    
C33   H5    1.110045 S    
O1    C1    1.295810 A    
C82   H38   1.083031 S    
C35   H7    1.110046 S    
C29   C33   1.543141 S    
C27   H3    1.110160 S    
O27   Cu8   1.973318 S    
C37   C49   1.544760 S    
N5    O49   1.301605 A    
C116  C126  1.405618 A    
O25   Cu6   1.973318 S    
C64   C68   1.404085 A    
C39   H11   1.110091 S    
C115  C124  1.405578 A    
C143  H71   1.083559 S    
C155  H82   1.110261 S    
N1    H73   1.030674 S    
C85   C119  1.468436 S    
O17   C107  1.296005 A    
C78   C98   1.402304 A    
C131  H63   1.083090 S    
N12   H101  1.031803 S    
C25   H1    1.110159 S    
C144  H72   1.083559 S    
C26   C30   1.543044 S    
N14   O60   1.299962 A    
C153  H76   1.110489 S    
C18   N6    1.441145 S    
O28   Cu7   1.973318 S    
O18   C107  1.296009 A    
O30   C113  1.296278 A    
C130  C134  1.393196 A    
O45   C127  1.297152 A    
O34   Cu10  1.964832 S    
C16   H56   1.083359 S    
O20   C108  1.296009 A    
C93   H45   1.083270 S    
O42   C120  1.298774 A    
C7    C51   1.463479 S    
O22   C110  1.287108 A    
C159  H99   1.110330 S    
O35   C118  1.299701 A    
C145  C149  1.412209 A    
O32   C114  1.296363 A    
C90   C94   1.393510 A    
Cu2   Cu4   2.678369 S    
C84   H40   1.083032 S    
C148  C150  1.412206 A    
C74   C98   1.469715 S    
O6    C2    1.296210 A    
C159  H100  1.110439 S    
O4    Cu2   1.963225 S    
C72   C76   1.401980 A    
C102  C114  1.472191 S    
C80   C84   1.393830 A    
C59   C63   1.403851 A    
C141  H69   1.083559 S    
O39   C121  1.299444 A    
O19   Cu7   1.965060 S    
O38   Cu10  1.963623 S    
C21   C33   1.536822 S    
N10   H93   1.031804 S    
C127  C149  1.466248 S    
C129  C139  1.403232 A    
C18   C103  1.416946 A    
C12   H52   1.083217 S    
C24   C36   1.536824 S    
C41   C45   1.537236 S    
N6    O52   1.301340 A    
O2    Cu1   1.963225 S    
C88   C122  1.468439 S    
O10   Cu1   1.972808 S    
C34   H6    1.110044 S    
C32   C36   1.543138 S    
C156  H86   1.110262 S    
C9    C17   1.399080 A    
C38   C50   1.544757 S    
O43   Cu12  1.963550 S    
C89   C93   1.393510 A    
C131  C140  1.403232 A    
C85   C89   1.403874 A    
Cu7   Cu8   2.676537 S    
C92   C96   1.393510 A    
O40   Cu12  1.963623 S    
N3    H81   1.030675 S    
H59   C125  1.082896 S    
O28   C112  1.287063 A    
C84   C88   1.403776 A    
C116  C118  1.470696 S    
C86   C120  1.468436 S    
C160  H102  1.111495 S    
O7    C3    1.296213 A    
C83   C87   1.403777 A    
O23   C111  1.287110 A    
C79   H35   1.083248 S    
O38   C120  1.299444 A    
C147  C150  1.412207 A    
C69   H29   1.083272 S    
H60   C126  1.082898 S    
C153  H74   1.110262 S    
N9    C157  1.447190 S    
C65   H25   1.083044 S    
C132  H64   1.083088 S    
O11   C7    1.287513 A    
O12   C8    1.287514 A    
O43   C121  1.298777 A    
O9    Cu1   1.972803 S    
C56   C76   1.402368 A    
O36   C118  1.299704 A    
O24   Cu8   1.972260 S    
C39   C43   1.554610 S    
N7    O54   1.301369 A    
O18   Cu6   1.965059 S    
O9    C5    1.287513 A    
O16   C8    1.288507 A    
O33   Cu9   1.964833 S    
C16   C152  1.399771 A    
C105  C140  1.473878 S    
C106  C139  1.473878 S    
O11   Cu2   1.972803 S    
O21   Cu5   1.972262 S    
C21   C49   1.527767 S    
C53   C57   1.393772 A    
H58   C124  1.082941 S    
N8    O55   1.301646 A    
C13   C123  1.393278 A    
C115  C117  1.470455 S    
O6    Cu3   1.962894 S    
C156  H88   1.110488 S    
C27   C47   1.538446 S    
C158  H95   1.110329 S    
O20   Cu8   1.965059 S    
C155  H83   1.111345 S    
O37   Cu9   1.963623 S    
C87   C121  1.468439 S    
C75   C99   1.469712 S    
N12   C160  1.447191 S    
N16   O64   1.299962 A    
C3    C63   1.468744 S    
C44   H16   1.110161 S    
C158  H96   1.110441 S    
C95   H47   1.083271 S    
O2    C2    1.295812 A    
C56   C60   1.393772 A    
C27   C31   1.543046 S    
C30   C34   1.543140 S    
C160  H104  1.110441 S    
C28   C32   1.543048 S    
C12   C102  1.400266 A    
C145  N9    1.424315 S    
O14   Cu3   1.972563 S    
C80   C100  1.402304 A    
C19   C104  1.417027 A    
C31   C43   1.540892 S    
C41   H13   1.110162 S    
C23   C35   1.536823 S    
Cu1   Cu3   2.678369 S    
C26   H2    1.110162 S    
C43   H15   1.110159 S    
C30   C110  1.460401 S    
C157  H92   1.110441 S    
C17   N5    1.441147 S    
Cu10  O46   1.965115 S    
C154  H79   1.111345 S    
C47   C51   1.527934 S    
N5    O50   1.301338 A    
O25   C109  1.287064 A    
C11   C19   1.399125 A    
C12   C20   1.399116 A    
C94   H46   1.083271 S    
C25   C29   1.543050 S    
C47   N15   1.457242 S    
C62   C66   1.404083 A    
C90   H42   1.083033 S    
C77   C97   1.402306 A    
C76   C100  1.469712 S    
C67   H27   1.083046 S    
C70   C74   1.401979 A    
N13   O57   1.300177 A    
C134  C137  1.404397 A    
C54   C58   1.393772 A    
C57   H21   1.083049 S    
C72   H32   1.083274 S    
