data_mof_unit_42524.cif
_audit_creation_date              2013-03-05T15:50:03-0500
_audit_creation_method            fapswitch 2.2
_symmetry_space_group_name_H-M    P1
_symmetry_Int_Tables_number       1
_space_group_crystal_system       triclinic
_cell_length_a                    8.431512
_cell_length_b                    12.816461
_cell_length_c                    17.506953
_cell_angle_alpha                 95.429324
_cell_angle_beta                  95.825226
_cell_angle_gamma                 98.158246
_cell_volume                      1851.57112362

loop_
_atom_site_label
_atom_site_type_symbol
_atom_site_description
_atom_site_fract_x
_atom_site_fract_y
_atom_site_fract_z
_atom_type_partial_charge
P1    P     P_3+3 0.990420 0.746550 0.559720 0.477451
O1    O     O_2   0.163080 0.763400 0.536930 -0.363579
O2    O     O_3   0.893330 0.628980 0.538660 -0.409087
O3    O     O_3   0.379830 0.697590 0.399610 -0.374950
O4    O     O_2   0.288857 0.882130 0.446191 -0.381370
O5    O     O_3   0.022550 0.773939 0.660438 -0.549643
O6    O     O_3   0.378844 0.876252 0.308968 -0.607850
H1    H     H_    0.307599 0.719268 0.260830 0.060852
C1    C     C_3   0.319674 0.823828 0.171954 -0.975900
H2    H     H_    0.196317 0.777236 0.152627 0.261159
H3    H     H_    0.309865 0.909942 0.176450 0.263100
P2    P     P_3+3 0.330880 0.415450 0.326700 0.523862
P3    P     P_3+3 0.914459 0.627061 0.259948 0.517827
O7    O     O_2   0.161570 0.447940 0.314920 -0.321429
O8    O     O_3   0.953630 0.643360 0.361440 -0.401411
O9    O     O_2   0.047526 0.570472 0.227581 -0.367092
O10   O     O_3   0.279317 0.277390 0.308695 -0.527245
O11   O     O_3   0.947268 0.752443 0.225922 -0.508618
C2    C     C_3   0.964188 0.832662 0.288371 0.525190
H4    H     H_    0.079525 0.833236 0.325448 0.114753
H5    H     H_    0.863826 0.822096 0.324583 0.114027
C3    C     C_3   0.964455 0.940388 0.258155 -0.946430
H6    H     H_    0.985596 0.003508 0.307634 0.213039
H7    H     H_    0.058237 0.953072 0.218332 0.263617
C4    C     C_3   0.756817 0.264535 0.288506 0.259791
H8    H     H_    0.819644 0.348303 0.298077 0.097476
C5    C     C_3   0.782263 0.213009 0.208008 -0.096996
H9    H     H_    0.699181 0.136024 0.193530 0.124705
H10   H     H_    0.907972 0.194712 0.210178 0.184357
Ba1   Ba    Ba6+2 0.158660 0.552610 0.463110 1.608127
C6    C     C_3   0.063024 0.685217 0.694467 0.394859
H11   H     H_    0.178395 0.665187 0.676161 0.091332
H12   H     H_    0.965590 0.615836 0.679395 0.120163
C7    C     C_3   0.083861 0.713891 0.781771 -0.924035
H13   H     H_    0.187053 0.778968 0.798587 0.263239
H14   H     H_    0.107080 0.644515 0.812196 0.218021
H15   H     H_    0.971959 0.740828 0.800090 0.264830
C8    C     C_3   0.249663 0.229739 0.375439 0.340964
H16   H     H_    0.121207 0.228973 0.382571 0.103126
H17   H     H_    0.326751 0.268724 0.428459 0.128670
C9    C     C_3   0.282385 0.116107 0.362483 -0.903121
H18   H     H_    0.236259 0.082310 0.302345 0.274324
H19   H     H_    0.225485 0.066624 0.403942 0.224596
H20   H     H_    0.413792 0.114704 0.369020 0.268474
P4    P     P_3+3 0.819870 0.253440 0.440220 0.465958
O12   O     O_2   0.647210 0.236530 0.463040 -0.385990
O13   O     O_3   0.916960 0.371010 0.461280 -0.389767
O14   O     O_3   0.430470 0.302400 0.600330 -0.407137
O15   O     O_3   0.820897 0.204551 0.342505 -0.609368
P5    P     P_3+3 0.890192 0.375837 0.742113 0.475023
O16   O     O_3   0.388290 0.554800 0.590630 -0.415553
O17   O     O_3   0.856660 0.356630 0.638500 -0.353779
O18   O     O_2   0.772258 0.445856 0.775160 -0.409282
O19   O     O_3   0.849760 0.259594 0.787517 -0.596518
Ba2   Ba    Ba6+2 0.651510 0.447380 0.536830 1.589684
P6    P     P_3+3 0.418136 0.837364 0.401975 0.491921
C10   C     C_3   0.386322 0.793061 0.250869 0.830625
H21   H     H_    0.395787 0.806896 0.124588 0.268202
O20   O     O_3   0.422000 0.445190 0.409310 -0.414826
C11   C     C_3   0.535476 0.770913 0.677533 0.200999
H22   H     H_    0.663890 0.768145 0.669386 0.101007
H23   H     H_    0.449917 0.749342 0.624432 0.117189
C12   C     C_3   0.519861 0.882999 0.704891 -0.122367
H24   H     H_    0.603688 0.911386 0.757703 0.110205
H25   H     H_    0.394682 0.887776 0.718643 0.153151
P7    P     P_3+3 0.471960 0.575001 0.689102 0.427442
O21   O     O_2   0.648720 0.552000 0.685060 -0.355822
O22   O     O_3   0.490627 0.705290 0.731926 -0.598204
H26   H     H_    0.846099 0.946996 0.226443 0.298713
C13   C     C_3   0.872385 0.166197 0.743240 0.832109
H27   H     H_    0.781868 0.151998 0.691328 0.097879
C14   C     C_3   0.844809 0.075803 0.794661 -0.894398
H28   H     H_    0.839353 0.997736 0.759229 0.259761
H29   H     H_    0.949269 0.081084 0.841719 0.254066
H30   H     H_    0.733060 0.078838 0.822996 0.230432
P8    P     P_3+3 0.380942 0.164835 0.595636 0.548982
C15   C     C_3   0.444437 0.211624 0.744817 0.472007
H31   H     H_    0.342426 0.256953 0.736604 0.108152
O23   O     O_2   0.499113 0.119756 0.544515 -0.324500
O24   O     O_3   0.435818 0.125626 0.686810 -0.506767
H32   H     H_    0.556988 0.268975 0.743279 0.120219
H33   H     H_    0.317144 0.164395 0.842236 0.225622
C16   C     C_3   0.440722 0.168692 0.824043 -0.635960
H34   H     H_    0.469786 0.086308 0.819974 0.227519
C17   C     C_R   0.075880 0.181616 0.523572 -0.448006
C18   C     C_R   0.715610 0.820219 0.487572 -0.211711
C19   C     C_R   0.696749 0.995773 0.447124 -0.172458
C20   C     C_R   0.627279 0.889810 0.449509 0.328788
C21   C     C_R   0.880184 0.851812 0.515962 0.220063
C22   C     C_R   0.946995 0.963160 0.518099 -0.087799
C23   C     C_R   0.852440 0.036909 0.484791 -0.038489
C24   C     C_R   0.917267 0.149306 0.490673 0.312778
C25   C     C_R   0.170208 0.111128 0.554083 0.312213
C26   C     C_R   0.103644 0.003984 0.554340 -0.082013
H35   H     H_    0.626007 0.046050 0.417043 0.167615
H36   H     H_    0.172946 0.953436 0.584555 0.214563
H37   H     H_    0.128160 0.264137 0.525410 0.161520
H38   H     H_    0.545708 0.540609 0.851684 0.177839
H39   H     H_    0.726536 0.583772 0.103583 0.162393
C27   C     C_R   0.611271 0.512972 0.274272 -0.449651
C28   C     C_R   0.448784 0.471760 0.251463 0.132192
C29   C     C_R   0.386375 0.465605 0.172156 0.249369
C30   C     C_R   0.488104 0.506722 0.118439 -0.078274
C31   C     C_R   0.649440 0.551088 0.144091 -0.146269
C32   C     C_R   0.711214 0.554166 0.221967 0.370499
C33   C     C_R   0.422321 0.504808 0.832213 -0.263145
C34   C     C_R   0.364482 0.496689 0.753575 0.304782
C35   C     C_R   0.097605 0.431666 0.781168 0.299102
C36   C     C_R   0.153751 0.437171 0.860395 -0.238118
C37   C     C_R   0.317739 0.474368 0.886293 0.006101
C38   C     C_1   0.378829 0.486347 0.967955 0.039064
C39   C     C_1   0.430914 0.496651 0.036105 0.141854
C40   C     C_R   0.203884 0.459495 0.728642 -0.433061
H40   H     H_    0.070949 0.412961 0.901210 0.196753
H41   H     H_    0.659579 0.516815 0.334307 0.179751
H42   H     H_    0.159016 0.457663 0.668242 0.165486
N1    N     N_R   0.754476 0.280983 0.146644 0.240038
O25   O     O_R   0.610292 0.302830 0.127071 -0.458645
O26   O     O_R   0.862380 0.296182 0.098843 -0.291019
N2    N     N_R   0.552696 0.771815 0.251356 0.186434
O27   O     O_R   0.640719 0.796209 0.196774 -0.444843
O28   O     O_R   0.612776 0.725258 0.307665 -0.514000
N3    N     N_R   0.554368 0.945097 0.641805 0.252996
O29   O     O_R   0.703669 0.973538 0.630317 -0.466339
O30   O     O_R   0.445131 0.931265 0.582474 -0.392596
N4    N     N_R   0.034898 0.170685 0.719219 0.183951
O31   O     O_R   0.083595 0.241291 0.674994 -0.505343
O32   O     O_R   0.110742 0.088990 0.722897 -0.451586
N5    N     N_3   0.556241 0.235947 0.882443 -0.159974
H43   H     H_    0.562745 0.197124 0.932489 0.194045
H44   H     H_    0.509347 0.305774 0.896705 0.158122
N6    N     N_3   0.633463 0.718112 0.500703 -0.119052
H45   H     H_    0.673819 0.699718 0.554751 0.116221
H46   H     H_    0.520371 0.728794 0.514807 0.157201
N7    N     N_R   0.224751 0.413879 0.145285 0.265872
O33   O     O_R   0.170894 0.323308 0.169144 -0.332945
O34   O     O_R   0.137697 0.449470 0.090155 -0.363136
N8    N     N_3   0.587147 0.256877 0.296317 -0.180753
H47   H     H_    0.516073 0.258915 0.243173 0.170719
H48   H     H_    0.578676 0.320456 0.336291 0.131099

loop_
_geom_bond_atom_site_label_1
_geom_bond_atom_site_label_2
_geom_bond_distance
_ccdc_geom_bond_type
O14   Ba2   2.826748 S    
P7    O22   1.743491 S    
C19   C20   1.406809 A    
C12   H25   1.114815 S    
N4    O31   1.295608 A    
Ba2   O20   2.797366 S    
C5    H10   1.115311 S    
C7    H15   1.115862 S    
C9    H18   1.109099 S    
O14   P8    1.745366 S    
O4    P6    1.543131 D    
C2    H4    1.111769 S    
P8    O23   1.540809 D    
P7    C34   1.807334 S    
Ba1   O16   2.797982 S    
N3    O29   1.301158 A    
C15   H31   1.109268 S    
C27   C32   1.396134 A    
P5    O19   1.761424 S    
P3    O11   1.761270 S    
C11   C12   1.498895 S    
P1    Ba1   3.426855 S    
C2    H5    1.108572 S    
C16   N5    1.459389 S    
C19   C23   1.413539 A    
N1    O26   1.304254 A    
C8    H16   1.101549 S    
H1    C10   1.114450 S    
C18   C20   1.412268 A    
P6    C20   1.874492 S    
C33   C34   1.402207 A    
C15   C16   1.541385 S    
C35   C36   1.411257 A    
C11   H23   1.104389 S    
O11   C2    1.409490 S    
P4    C24   1.903339 S    
C29   N7    1.439548 S    
C34   C40   1.381575 A    
O5    C6    1.400506 S    
C37   C38   1.455785 S    
P2    O20   1.553770 S    
O2    Ba2   2.863750 S    
C38   C39   1.217030 T    
N6    H45   1.032618 S    
C19   H35   1.076030 S    
O12   Ba2   2.876617 S    
P5    O17   1.795159 S    
C6    H12   1.113325 S    
C13   H27   1.109067 S    
C15   H32   1.119152 S    
C1    H2    1.125566 S    
C3    H26   1.109801 S    
C7    H14   1.109281 S    
O17   Ba2   2.801905 S    
C40   H42   1.083236 S    
C13   N4    1.468627 S    
C5    N1    1.466943 S    
H39   C31   1.083261 S    
O3    P6    1.770375 S    
P5    C35   1.829578 S    
C9    H19   1.109334 S    
C27   H41   1.081951 S    
C17   C25   1.393913 A    
O6    P6    1.760779 S    
O7    Ba1   2.809726 S    
C14   H30   1.112188 S    
C31   C32   1.404092 A    
C17   C24   1.390336 A    
N2    O28   1.296218 A    
C22   C26   1.411289 A    
P4    O13   1.600036 S    
P1    C21   1.917731 S    
P5    O18   1.549369 D    
P1    O5    1.750604 S    
C28   C29   1.424778 A    
Ba1   O13   2.863149 S    
N7    O33   1.307207 A    
C2    C3    1.524354 S    
C17   H37   1.082719 S    
C8    C9    1.520784 S    
C14   H29   1.133254 S    
C23   C24   1.456552 A    
C4    H8    1.117067 S    
P4    O12   1.539735 D    
C30   C39   1.460451 S    
P1    O2    1.600038 S    
O16   P7    1.775824 S    
C35   C40   1.383629 A    
P2    O10   1.751456 S    
O2    Ba1   2.947765 S    
P8    C25   1.858981 S    
Ba2   O21   2.809917 S    
C16   H34   1.114789 S    
O19   C13   1.410443 S    
P4    O15   1.766586 S    
C7    H13   1.111269 S    
Ba1   O20   2.959601 S    
C6    C7    1.524095 S    
C25   C26   1.408421 A    
C26   H36   1.072612 S    
C1    H3    1.114424 S    
C11   O22   1.375331 S    
N8    H48   1.038070 S    
C36   H40   1.084428 S    
C10   N2    1.465762 S    
P3    C32   1.856976 S    
P2    O7    1.542399 D    
P3    O8    1.760925 S    
C9    H20   1.105120 S    
C3    H7    1.111118 S    
C5    H9    1.117561 S    
N2    O27   1.302415 A    
O8    Ba1   2.801289 S    
O13   Ba2   2.948627 S    
N5    H43   1.048191 S    
C33   C37   1.402806 A    
C15   O24   1.414876 S    
N7    O34   1.308776 A    
C1    H21   1.122525 S    
N4    O32   1.305295 A    
P2    Ba1   3.396446 S    
C6    H11   1.110610 S    
P8    O24   1.755626 S    
C14   H28   1.118785 S    
C18   C21   1.413829 A    
C1    C10   1.545430 S    
C12   N3    1.450423 S    
C4    C5    1.547158 S    
Ba1   Ba2   4.645847 S    
H38   C33   1.082577 S    
O1    Ba1   2.875949 S    
C4    N8    1.441278 S    
P2    C28   1.867116 S    
C36   C37   1.410452 A    
C8    H17   1.109639 S    
C18   N6    1.441225 S    
C22   C23   1.446670 A    
P1    O1    1.539518 D    
C27   C28   1.399653 A    
P7    O21   1.566910 D    
O16   Ba2   2.958741 S    
O10   C8    1.397093 S    
C29   C30   1.423733 A    
C4    O15   1.388660 S    
N3    O30   1.297398 A    
N8    H47   1.058916 S    
C12   H24   1.103395 S    
P4    Ba2   3.427428 S    
N6    H46   1.033140 S    
H33   C16   1.115588 S    
P3    O9    1.545356 D    
C30   C31   1.408393 A    
C3    H6    1.109813 S    
C11   H22   1.111389 S    
C13   C14   1.539496 S    
C21   C22   1.453531 A    
N1    O25   1.305344 A    
O6    C10   1.415012 S    
O3    Ba1   2.827413 S    
N5    H44   1.047750 S    
