data_mof_unit_26751.cif
_audit_creation_date              2012-12-11T14:36:10-0500
_audit_creation_method            fapswitch 2.2
_symmetry_space_group_name_H-M    P1
_symmetry_Int_Tables_number       1
_space_group_crystal_system       triclinic
_cell_length_a                    13.498582
_cell_length_b                    13.474281
_cell_length_c                    27.530092
_cell_angle_alpha                 90.804547
_cell_angle_beta                  90.348345
_cell_angle_gamma                 59.983522
_cell_volume                      4335.27679941

loop_
_atom_site_label
_atom_site_type_symbol
_atom_type_description
_atom_site_fract_x
_atom_site_fract_y
_atom_site_fract_z
_atom_type_partial_charge
C1    C     C_R   0.620548 0.101837 0.570039 0.543230
C2    C     C_1   0.629833 0.733887 0.616885 -0.030459
C3    C     C_3   0.706367 0.559404 0.767659 -0.103093
C4    C     C_3   0.680618 0.653971 0.805741 0.048890
C5    C     C_3   0.594275 0.642463 0.740966 -0.100986
C6    C     C_3   0.661125 0.685410 0.711321 0.053252
C7    C     C_3   0.568960 0.736443 0.779816 -0.109133
C8    C     C_3   0.635316 0.779949 0.749472 -0.100141
C9    C     C_1   0.689174 0.632992 0.858012 -0.058191
C10   C     C_1   0.647017 0.707212 0.659014 -0.074225
C11   C     C_3   0.083067 0.144008 0.738017 0.167880
C12   C     C_R   0.599368 0.780104 0.568972 0.544233
C13   C     C_3   0.170157 0.063003 0.775241 0.044439
C14   C     C_1   0.096846 0.201362 0.901891 -0.017968
C15   C     C_1   0.229007 0.138621 0.617374 -0.024748
C16   C     C_3   0.056438 0.249031 0.770237 -0.105408
C17   C     C_3   0.146238 0.167477 0.807140 0.025642
C18   C     C_3   0.152056 0.259372 0.743695 -0.127838
C19   C     C_3   0.176507 0.154836 0.711623 0.048443
C20   C     C_3   0.241172 0.178186 0.781181 -0.121846
C21   C     C_3   0.266118 0.072992 0.748642 -0.128797
C22   C     C_1   0.124442 0.182138 0.859701 -0.062314
C23   C     C_R   0.277802 0.121932 0.569694 0.544408
C24   C     C_1   0.200161 0.147699 0.659334 -0.062426
C25   C     C_3   0.684534 0.247290 0.739466 -0.104169
C26   C     C_3   0.583486 0.281583 0.775013 -0.103779
C27   C     C_1   0.690772 0.206749 0.903026 -0.020088
C28   C     C_1   0.636415 0.134926 0.617908 -0.023586
C29   C     C_3   0.764537 0.148259 0.773534 -0.096848
C30   C     C_3   0.663154 0.182359 0.808278 0.036172
C31   C     C_3   0.732057 0.067172 0.746515 0.027020
C32   C     C_3   0.653192 0.165666 0.712913 0.046330
C33   C     C_3   0.631839 0.100174 0.781968 -0.109577
C34   C     C_R   0.622153 0.101142 0.431979 0.549128
C35   C     C_3   0.552031 0.199450 0.747822 -0.117622
C36   C     C_1   0.674065 0.194244 0.860851 -0.062426
C37   C     C_1   0.645354 0.153661 0.660178 -0.067130
C38   C     C_R   0.734544 0.703323 0.359442 -0.133480
C39   C     C_R   0.746878 0.686114 0.309124 0.015625
C40   C     C_R   0.764399 0.661784 0.207563 0.014287
C41   C     C_R   0.855590 0.654820 0.234978 -0.126897
C42   C     C_R   0.846322 0.668386 0.285472 -0.125698
C43   C     C_R   0.775448 0.639399 0.157614 -0.133805
C44   C     C_R   0.685139 0.640338 0.131571 -0.003128
C45   C     C_R   0.601384 0.776368 0.430173 0.547221
C46   C     C_R   0.548616 0.715671 0.354884 -0.127502
C47   C     C_R   0.556528 0.705729 0.304838 0.012473
C48   C     C_R   0.655484 0.691824 0.281670 0.062649
C49   C     C_R   0.464309 0.715255 0.277600 -0.125545
C50   C     C_R   0.469493 0.712023 0.227230 -0.132340
C51   C     C_R   0.568832 0.694541 0.203846 0.012034
C52   C     C_R   0.662617 0.683785 0.230995 0.063496
C53   C     C_R   0.578980 0.678741 0.153958 -0.134044
C54   C     C_R   0.633227 0.722893 0.382023 -0.003532
C55   C     C_R   0.212829 0.057113 0.358154 -0.136422
C56   C     C_R   0.277416 0.120932 0.431130 0.547412
C57   C     C_R   0.186362 0.070943 0.308616 0.016685
C58   C     C_R   0.147725 0.095403 0.207916 0.015987
C59   C     C_R   0.166115 0.995335 0.230929 -0.134077
C60   C     C_R   0.185695 0.983029 0.280973 -0.129365
C61   C     C_R   0.123141 0.111187 0.158262 -0.138448
C62   C     C_R   0.102546 0.213220 0.136246 -0.003236
C63   C     C_R   0.185386 0.249744 0.362567 -0.131326
C64   C     C_R   0.163906 0.262867 0.313139 0.013529
C65   C     C_R   0.165952 0.172638 0.285788 0.064706
C66   C     C_R   0.146796 0.362452 0.290315 -0.132302
C67   C     C_3   0.773074 0.602820 0.737274 -0.099798
C68   C     C_R   0.133328 0.372146 0.240242 -0.128163
C69   C     C_R   0.133943 0.283602 0.212776 0.014486
C70   C     C_R   0.149444 0.183671 0.235459 0.064644
C71   C     C_R   0.114282 0.295905 0.163204 -0.126711
C72   C     C_R   0.217516 0.144606 0.384593 -0.005118
C73   C     C_R   0.547925 0.231442 0.362138 -0.130443
C74   C     C_R   0.557606 0.251053 0.313390 0.011515
C75   C     C_R   0.574677 0.276617 0.212934 0.044533
C76   C     C_R   0.469858 0.342539 0.237449 -0.116249
C77   C     C_R   0.461671 0.330144 0.287215 -0.144123
C78   C     C_3   0.747482 0.697003 0.776242 -0.090295
C79   C     C_R   0.585251 0.287687 0.162432 0.126067
C80   C     C_R   0.692291 0.216963 0.139758 0.004767
C81   C     C_R   0.748738 0.083882 0.364391 -0.133810
C82   C     C_R   0.759938 0.102808 0.315804 0.017821
C83   C     C_R   0.663293 0.184721 0.289749 0.063862
C84   C     C_R   0.864393 0.035546 0.292123 -0.123706
C85   C     C_R   0.872223 0.046277 0.242495 -0.119460
C86   C     C_R   0.776179 0.125462 0.216324 -0.001470
C87   C     C_R   0.671490 0.196604 0.239683 0.031516
C88   C     C_R   0.784770 0.134487 0.167036 -0.151572
C89   C     C_1   0.697314 0.607417 0.900164 -0.014344
C90   C     C_R   0.641744 0.143516 0.386800 -0.004337
C91   C     C_R   0.049234 0.236132 0.949765 0.546162
C92   C     C_R   0.711531 0.562791 0.948183 0.545763
C93   C     C_R   0.722045 0.225302 0.950867 0.544514
C94   C     C_R   0.047717 0.245557 0.088647 0.547555
C95   C     C_R   0.707655 0.575987 0.086028 0.548315
C96   C     C_R   0.720338 0.234807 0.090309 0.547045
Cr1   Cr    Cr6+3 0.417550 0.169090 0.500530 1.017233
Cr2   Cr    Cr6+3 0.669180 0.913420 0.499920 1.016837
Cr3   Cr    Cr6+3 0.413260 0.917540 0.499520 1.017286
Cr4   Cr    Cr6+3 0.909170 0.177380 0.020380 1.014521
Cr5   Cr    Cr6+3 0.912710 0.429210 0.018220 1.019409
Cr6   Cr    Cr6+3 0.657170 0.432570 0.019030 1.010106
H1    H     H_    0.810126 0.719852 0.791220 0.120846
H2    H     H_    0.307055 0.191979 0.799335 0.111377
H3    H     H_    0.144215 0.340492 0.730514 0.105187
H4    H     H_    0.969663 0.320953 0.779206 0.101297
H5    H     H_    0.521667 0.370208 0.787343 0.104337
H6    H     H_    0.706163 0.307537 0.721741 0.100624
H7    H     H_    0.464344 0.220958 0.736735 0.106470
H8    H     H_    0.610429 0.039759 0.799697 0.100997
H9    H     H_    0.851187 0.128844 0.785191 0.127786
H10   H     H_    0.857027 0.611850 0.140085 0.121932
H11   H     H_    0.856881 0.547758 0.719268 0.100305
H12   H     H_    0.800384 0.707906 0.380441 0.119901
H13   H     H_    0.934030 0.638426 0.217398 0.096751
H14   H     H_    0.917117 0.663976 0.306015 0.100612
H15   H     H_    0.507915 0.683254 0.133527 0.118421
H16   H     H_    0.397448 0.719389 0.206646 0.094509
H17   H     H_    0.387839 0.726407 0.295263 0.095866
H18   H     H_    0.470558 0.729268 0.372009 0.130099
H19   H     H_    0.114537 0.047024 0.137429 0.114638
H20   H     H_    0.236904 0.976043 0.375168 0.119628
H21   H     H_    0.165324 0.926720 0.210251 0.091431
H22   H     H_    0.604231 0.871496 0.741754 0.097774
H23   H     H_    0.200379 0.904886 0.298042 0.092865
H24   H     H_    0.098970 0.374791 0.146513 0.129842
H25   H     H_    0.121268 0.449277 0.223058 0.094836
H26   H     H_    0.146108 0.431771 0.311053 0.094143
H27   H     H_    0.186875 0.318459 0.382958 0.126978
H28   H     H_    0.464842 0.278397 0.379559 0.130684
H29   H     H_    0.393209 0.402776 0.218396 0.140921
H30   H     H_    0.379545 0.380611 0.305026 0.103436
H31   H     H_    0.867694 0.079499 0.150486 0.140980
H32   H     H_    0.486881 0.792044 0.798810 0.116020
H33   H     H_    0.953043 0.991611 0.224412 0.103702
H34   H     H_    0.938953 0.972474 0.311664 0.101948
H35   H     H_    0.821252 0.016958 0.383664 0.124221
H36   H     H_    0.531377 0.619973 0.725990 0.099057
H37   H     H_    0.735735 0.468330 0.775803 0.099074
H38   H     H_    0.353109 0.001964 0.739326 0.096715
O1    O     O_R   0.301710 0.195650 0.554160 -0.508565
O2    O     O_R   0.658900 0.818120 0.449760 -0.498919
O3    O     O_R   0.503220 0.801620 0.445520 -0.524184
O4    O     O_R   0.319370 0.022040 0.450020 -0.501555
O5    O     O_3   0.499990 0.000010 0.499990 -0.241873
O6    O     O_R   0.818720 0.150820 0.967160 -0.510829
O7    O     O_R   0.006410 0.181720 0.970200 -0.497241
O8    O     O_R   0.027890 0.334070 0.964920 -0.506607
O9    O     O_R   0.809600 0.521790 0.967960 -0.496040
O10   O     O_R   0.635520 0.542770 0.964420 -0.508026
O11   O     O_R   0.665950 0.325030 0.970100 -0.495209
O12   O     O_R   0.522390 0.158990 0.550460 -0.494488
O13   O     O_R   0.816620 0.158530 0.074540 -0.528570
O14   O     O_R   0.004460 0.188870 0.069750 -0.502866
O15   O     O_R   0.025800 0.341780 0.072300 -0.522546
O16   O     O_R   0.807650 0.528950 0.067500 -0.502138
O17   O     O_R   0.633420 0.550490 0.071810 -0.531208
O18   O     O_R   0.664000 0.332180 0.069640 -0.492322
O19   O     O_3   0.826350 0.346390 0.019210 -0.241821
O20   O     O_R   0.694390 0.003530 0.554040 -0.510500
O21   O     O_R   0.657700 0.819660 0.549320 -0.500384
O22   O     O_R   0.501930 0.803280 0.552920 -0.505907
O23   O     O_R   0.318170 0.023580 0.549580 -0.496608
O24   O     O_R   0.303010 0.193990 0.446760 -0.524544
O25   O     O_R   0.523600 0.157450 0.450900 -0.505613
O26   O     O_R   0.695690 0.001860 0.446640 -0.518020
C97   C     C_R   0.814740 0.945898 0.730268 0.019752
C98   C     C_R   0.924661 0.885934 0.750510 -0.103661
C99   C     C_R   0.002337 0.774558 0.734661 -0.124720
C100  C     C_R   0.971000 0.722156 0.698410 -0.117765
C101  C     C_R   0.861599 0.780721 0.678273 -0.101904
C102  C     C_R   0.783081 0.891425 0.694586 -0.090375
H39   H     H_    0.950283 0.925238 0.778478 0.124696
H40   H     H_    0.087025 0.728916 0.750278 0.122509
H41   H     H_    0.031345 0.636128 0.686005 0.105099
H42   H     H_    0.837672 0.740034 0.650105 0.123948
H43   H     H_    0.698010 0.934360 0.679167 0.113448
N1    N     N_2   0.488295 0.365933 0.134764 -0.523778
H44   H     H_    0.482848 0.340005 0.099915 0.257191
C103  C     C_3   0.453480 0.486251 0.139898 -0.296119
H45   H     H_    0.466834 0.518641 0.105147 0.170539
H46   H     H_    0.502146 0.501321 0.168997 0.157504
H47   H     H_    0.361058 0.535785 0.149007 0.120629
C104  C     C_R   0.180713 0.953598 0.793998 0.036170
C105  C     C_R   0.265435 0.846912 0.775622 -0.118211
C106  C     C_R   0.279107 0.745364 0.794900 -0.123138
C107  C     C_R   0.207535 0.749556 0.832288 -0.110453
C108  C     C_R   0.121029 0.855317 0.849893 -0.121580
C109  C     C_R   0.106888 0.957027 0.830557 -0.095848
H48   H     H_    0.320874 0.841997 0.746344 0.098544
H49   H     H_    0.345135 0.663412 0.780815 0.102064
H50   H     H_    0.218137 0.670893 0.847158 0.109946
H51   H     H_    0.064381 0.858556 0.878305 0.115593
H52   H     H_    0.038463 0.038096 0.844203 0.114506
N2    N     N_2   0.993504 0.131071 0.714820 -0.538680
H53   H     H_    0.932580 0.205082 0.698406 0.244466
C110  C     C_3   0.030713 0.030258 0.684410 -0.300013
H54   H     H_    0.954856 0.025464 0.671894 0.160422
H55   H     H_    0.086894 0.951470 0.704930 0.167320
H56   H     H_    0.076891 0.034494 0.652021 0.146693

loop_
_geom_bond_atom_site_label_1
_geom_bond_atom_site_label_2
_ccdc_geom_bond_type
C102  H43   S    
Cr4   O13   S    
C66   C68   A    
C101  C102  A    
C4    C9    S    
Cr5   O8    S    
C40   C41   A    
C41   C42   A    
C96   O18   A    
C74   C83   A    
C43   C44   A    
C2    C12   S    
Cr6   O18   S    
C91   O7    A    
N1    H44   S    
C5    H36   S    
C47   C49   A    
C49   H17   S    
C85   C86   A    
C81   H35   S    
C11   C19   S    
C20   C21   S    
Cr3   O3    S    
C60   H23   S    
C19   C21   S    
C11   N2    S    
C73   C90   A    
C18   C19   S    
C5    C6    S    
C38   H12   S    
C76   H29   S    
C53   H15   S    
C100  C101  A    
Cr5   O15   S    
Cr4   O7    S    
Cr4   O14   S    
C65   C70   A    
C17   C20   S    
C58   C70   A    
C104  C105  A    
C1    O12   A    
C69   C71   A    
C95   O16   A    
C73   C74   A    
C106  H49   S    
C110  H55   S    
C12   O21   A    
C73   H28   S    
C109  H52   S    
C40   C43   A    
C96   O13   A    
Cr4   O6    S    
C68   C69   A    
C56   C72   S    
C74   C77   A    
C1    C28   S    
C99   H40   S    
C31   C33   S    
C71   H24   S    
C80   C96   S    
C34   O25   A    
C18   C20   S    
C55   C72   A    
C35   H7    S    
C103  H47   S    
C16   H4    S    
Cr6   O11   S    
Cr1   O24   S    
C58   C61   A    
C15   C23   S    
Cr3   O5    S    
C55   H20   S    
C59   C60   A    
C50   H16   S    
Cr2   O2    S    
C8    C78   S    
C69   C70   A    
C67   C78   S    
C41   H13   S    
C4    C7    S    
C44   C53   A    
Cr6   O17   S    
C91   O8    A    
C103  H46   S    
C81   C82   A    
C39   C42   A    
C23   O23   A    
C100  H41   S    
C1    O20   A    
C59   H21   S    
C98   H39   S    
C46   H18   S    
C51   C52   A    
C32   C35   S    
C98   C99   A    
Cr3   O4    S    
C7    C8    S    
C84   C85   A    
C7    H32   S    
C9    C89   T    
C97   C98   A    
C5    C7    S    
C86   C87   A    
C16   C17   S    
C57   C60   A    
C6    C8    S    
Cr5   O16   S    
C25   C26   S    
C40   C52   A    
Cr6   O19   S    
C63   C64   A    
C108  C109  A    
C51   C53   A    
C77   H30   S    
C64   C66   A    
C26   H5    S    
C110  H56   S    
C75   C76   A    
C34   C90   S    
C4    C78   S    
C29   C30   S    
Cr3   O22   S    
C11   C16   S    
N1    C103  S    
C47   C48   A    
C38   C54   A    
C94   O14   A    
C13   C104  S    
C46   C54   A    
C50   C51   A    
C94   O15   A    
C79   N1    S    
C13   C21   S    
C93   O6    A    
C99   C100  A    
C32   C37   S    
C76   C77   A    
C89   C92   S    
C68   H25   S    
Cr1   O1    S    
C107  H50   S    
Cr2   O26   S    
Cr6   O10   S    
Cr3   O23   S    
C81   C90   A    
C8    H22   S    
C15   C24   T    
C31   C97   S    
Cr2   O20   S    
C45   C54   S    
C26   C30   S    
C82   C84   A    
C62   C94   S    
C92   O10   A    
C45   O2    A    
C49   C50   A    
C79   C80   A    
C27   C93   S    
C3    H37   S    
C43   H10   S    
C3    C4    S    
C2    C10   T    
Cr2   O21   S    
C103  H45   S    
C42   H14   S    
C46   C47   A    
C84   H34   S    
C30   C33   S    
C78   H1    S    
C95   O17   A    
Cr1   O5    S    
C29   H9    S    
C31   C32   S    
C3    C67   S    
C61   H19   S    
C57   C65   A    
C3    C5    S    
C16   C18   S    
C83   C87   A    
C6    C10   S    
C61   C62   A    
C108  H51   S    
C97   C102  A    
C20   H2    S    
Cr2   O5    S    
C30   C36   S    
C27   C36   T    
C101  H42   S    
C56   O24   A    
C17   C22   S    
C13   C17   S    
C64   C65   A    
C14   C22   T    
C55   C57   A    
C19   C24   S    
C58   C59   A    
C18   H3    S    
C107  C108  A    
C80   C88   A    
C44   C95   S    
C6    C67   S    
C11   C13   S    
Cr4   O19   S    
C25   C29   S    
C105  C106  A    
C38   C39   A    
C28   C37   T    
C25   C32   S    
Cr1   O25   S    
Cr5   O9    S    
C33   C35   S    
Cr1   O12   S    
C66   H26   S    
C62   C71   A    
C86   C88   A    
C63   H27   S    
C67   H11   S    
C110  H54   S    
C14   C91   S    
C93   O11   A    
C12   O22   A    
N2    H53   S    
C56   O4    A    
C26   C35   S    
C48   C52   A    
C63   C72   A    
Cr5   O19   S    
C29   C31   S    
C82   C83   A    
C105  H48   S    
C92   O9    A    
C45   O3    A    
C104  C109  A    
C23   O1    A    
C33   H8    S    
C21   H38   S    
C88   H31   S    
C106  C107  A    
C34   O26   A    
C75   C79   A    
C85   H33   S    
C75   C87   A    
C25   H6    S    
C39   C48   A    
N2    C110  S    
