data_mof_unit_6474.cif
_audit_creation_date              2013-03-05T16:13:32-0500
_audit_creation_method            fapswitch 2.2
_symmetry_space_group_name_H-M    P1
_symmetry_Int_Tables_number       1
_space_group_crystal_system       triclinic
_cell_length_a                    10.842505
_cell_length_b                    9.947469
_cell_length_c                    10.851401
_cell_angle_alpha                 93.512757
_cell_angle_beta                  96.224193
_cell_angle_gamma                 93.968487
_cell_volume                      1157.89991263

loop_
_atom_site_label
_atom_site_type_symbol
_atom_site_description
_atom_site_fract_x
_atom_site_fract_y
_atom_site_fract_z
_atom_type_partial_charge
O1    O     O_R   0.316770 0.614620 0.499990 -0.565202
O2    O     O_R   0.683230 0.614620 0.500010 -0.571842
O3    O     O_R   0.316800 0.385290 0.500000 -0.561159
O4    O     O_R   0.683200 0.385290 0.500000 -0.585296
C1    C     C_R   0.260169 0.495702 0.503347 0.964616
C2    C     C_R   0.739643 0.503584 0.495050 0.971565
O5    O     O_R   0.500000 0.614690 0.316780 -0.595423
O6    O     O_R   0.500000 0.614690 0.683220 -0.575352
O7    O     O_R   0.500020 0.385360 0.316780 -0.547216
O8    O     O_R   0.499980 0.385360 0.683220 -0.577009
C3    C     C_R   0.502837 0.496512 0.260336 0.971754
C4    C     C_R   0.494858 0.502727 0.739098 0.989829
Zn1   Zn    Zn3+2 0.500000 0.653120 0.500000 1.154385
Zn2   Zn    Zn3+2 0.500000 0.346880 0.500000 1.163161
C5    C     C_R   0.523174 0.613167 0.074348 -0.091840
C6    C     C_R   0.517646 0.619759 0.948647 -0.035870
C7    C     C_R   0.500661 0.491635 0.127456 -0.197986
C8    C     C_R   0.480574 0.505062 0.869322 -0.183230
C9    C     C_R   0.462245 0.374618 0.049091 0.386764
C10   C     C_R   0.437647 0.385510 0.921353 0.346242
C11   C     C_3   0.619439 0.733828 0.960797 0.312178
C12   C     C_3   0.625165 0.724816 0.102991 0.325179
C13   C     C_R   0.048471 0.379591 0.452978 0.204340
C14   C     C_R   0.920962 0.391210 0.435771 0.231294
C15   C     C_R   0.872065 0.508246 0.485237 -0.307348
C16   C     C_R   0.127596 0.488903 0.511422 -0.328286
C17   C     C_R   0.951661 0.617251 0.542864 0.205086
C18   C     C_R   0.078528 0.604316 0.562226 0.219180
C19   C     C_R   0.580877 0.083498 0.581713 0.266224
C20   C     C_R   0.418772 0.057859 0.415129 0.239568
C21   C     C_R   0.581572 0.940507 0.579513 0.373876
C22   C     C_R   0.415872 0.914234 0.421148 0.390581
N1    N     N_R   0.500000 0.857200 0.500000 -0.193201
N2    N     N_R   0.500000 0.142810 0.500000 -0.218281
Cl1   Cl    Cl    0.470172 0.211119 0.100783 -0.272334
Cl2   Cl    Cl    0.353305 0.247330 0.830709 -0.340090
N3    N     N_R   0.735586 0.700828 0.911129 0.233940
O9    O     O_R   0.832692 0.786982 0.931340 -0.164185
O10   O     O_R   0.747425 0.582450 0.857657 -0.343431
N4    N     N_R   0.582570 0.842245 0.171141 0.229355
O11   O     O_R   0.650195 0.902614 0.267809 -0.283957
O12   O     O_R   0.473854 0.884466 0.137908 -0.251493
N5    N     N_R   0.575607 0.861516 0.918764 0.249937
O13   O     O_R   0.467326 0.864969 0.854546 -0.245699
O14   O     O_R   0.642883 0.974173 0.951050 -0.182176
N6    N     N_R   0.744110 0.681265 0.160985 0.207323
O15   O     O_R   0.766509 0.554362 0.155450 -0.330789
O16   O     O_R   0.836779 0.770647 0.195365 -0.187795
N7    N     N_R   0.095529 0.256166 0.410605 0.265616
O17   O     O_R   0.137007 0.174643 0.492096 -0.245472
O18   O     O_R   0.067729 0.210366 0.295186 -0.207036
N8    N     N_R   0.841372 0.283727 0.366986 0.265951
O19   O     O_R   0.765883 0.309285 0.271222 -0.267851
O20   O     O_R   0.843977 0.160184 0.399777 -0.208660
N9    N     N_R   0.905754 0.742161 0.581863 0.264157
O21   O     O_R   0.868641 0.822431 0.497385 -0.217702
O22   O     O_R   0.936277 0.791764 0.695749 -0.186692
N10   N     N_R   0.157788 0.708593 0.635406 0.269525
O23   O     O_R   0.226415 0.679175 0.734608 -0.305825
O24   O     O_R   0.165902 0.831241 0.599937 -0.227435
N11   N     N_R   0.666366 0.165641 0.669503 0.265468
O25   O     O_R   0.637926 0.189354 0.781702 -0.241187
O26   O     O_R   0.782229 0.183061 0.649327 -0.254993
N12   N     N_R   0.338131 0.110517 0.316885 0.287540
O27   O     O_R   0.316052 0.235824 0.318600 -0.299977
O28   O     O_R   0.290611 0.035921 0.218335 -0.159712
Cl3   Cl    Cl    0.686186 0.868702 0.682285 -0.343913
Cl4   Cl    Cl    0.300769 0.805362 0.330041 -0.351689

loop_
_geom_bond_atom_site_label_1
_geom_bond_atom_site_label_2
_geom_bond_distance
_ccdc_geom_bond_type
Zn2   N2    2.029981 S    
C20   C22   1.432517 A    
O7    Zn2   2.047627 S    
C21   N1    1.363414 A    
N7    O18   1.302415 A    
Zn1   N1    2.030079 S    
C6    C11   1.516516 S    
C18   N10   1.439723 S    
O6    C4    1.301042 A    
C15   C17   1.407827 A    
N5    O14   1.301542 A    
C16   C18   1.405556 A    
C9    C10   1.395164 A    
C22   Cl4   1.766921 S    
C13   C14   1.388654 A    
C12   N4    1.472266 S    
C22   N1    1.359388 A    
N9    O21   1.301547 A    
N4    O12   1.300313 A    
C19   C21   1.421692 A    
C19   N11   1.429228 S    
C9    Cl1   1.757236 S    
C11   C12   1.545865 S    
N12   O27   1.284835 A    
C21   Cl3   1.725099 S    
O7    C3    1.296527 A    
O6    Zn1   2.047484 S    
O3    Zn2   2.048563 S    
O8    C4    1.289704 A    
O1    C1    1.298817 A    
C6    C8    1.394785 A    
N4    O11   1.301416 A    
C7    C9    1.409391 A    
N3    O9    1.301199 A    
N8    O20   1.301502 A    
O5    C3    1.295737 A    
C20   N12   1.450903 S    
C14   N8    1.442157 S    
N9    O22   1.301630 A    
N5    O13   1.302413 A    
O4    Zn2   1.996625 S    
N11   O25   1.299749 A    
N3    O10   1.301223 A    
C17   N9    1.427441 S    
C13   N7    1.430928 S    
C2    C15   1.448964 S    
O1    Zn1   1.997042 S    
C20   N2    1.401314 A    
N10   O24   1.301701 A    
C5    C6    1.364645 A    
C10   Cl2   1.777190 S    
N6    O16   1.301426 A    
O5    Zn1   2.001478 S    
C11   N3    1.472019 S    
C14   C15   1.412501 A    
C1    C16   1.446728 S    
C8    C10   1.418577 A    
O4    C2    1.295104 A    
N7    O17   1.301529 A    
O8    Zn2   2.001569 S    
C13   C16   1.410323 A    
C4    C8    1.437126 S    
C17   C18   1.384914 A    
N11   O26   1.300100 A    
O2    Zn1   2.049100 S    
N6    O15   1.300937 A    
C3    C7    1.437350 S    
C12   N6    1.477061 S    
N10   O23   1.301219 A    
C5    C7    1.388617 A    
C19   N2    1.367633 A    
C5    C12   1.505364 S    
C11   N5    1.467920 S    
O2    C2    1.300141 A    
N8    O19   1.300457 A    
O3    C1    1.295358 A    
N12   O28   1.300029 A    
