data_mof_unit_9279.cif
_audit_creation_date              2012-10-26T21:04:56-0400
_audit_creation_method            fapswitch 2.2
_symmetry_space_group_name_H-M    P1
_symmetry_Int_Tables_number       1
_space_group_crystal_system       triclinic
_cell_length_a                    11.655761
_cell_length_b                    12.368282
_cell_length_c                    13.225066
_cell_angle_alpha                 116.785621
_cell_angle_beta                  77.972376
_cell_angle_gamma                 99.998394
_cell_volume                      1657.65886763

loop_
_atom_site_label
_atom_site_type_symbol
_atom_type_description
_atom_site_fract_x
_atom_site_fract_y
_atom_site_fract_z
_atom_type_partial_charge
C1    C     C_R   0.514263 0.854925 0.286340 0.526610
C2    C     C_R   0.610422 0.491294 0.132699 -0.130765
C3    C     C_R   0.601813 0.613463 0.167019 -0.109622
C4    C     C_R   0.715349 0.998991 0.499930 0.543811
C5    C     C_R   0.470593 0.349469 0.870792 -0.123380
C6    C     C_R   0.535109 0.192767 0.902875 -0.132381
C7    C     C_R   0.508399 0.774084 0.164060 0.004187
C8    C     C_R   0.726496 0.371307 0.385139 -0.029756
C9    C     C_R   0.336984 0.757100 0.639684 0.075484
C10   C     C_R   0.303807 0.661589 0.671640 0.044979
C11   C     C_R   0.368725 0.560571 0.620279 -0.130024
C12   C     C_R   0.490598 0.227993 0.833050 0.002465
C13   C     C_R   0.466975 0.553981 0.535954 -0.027331
C14   C     C_R   0.502037 0.656902 0.512307 0.175982
C15   C     C_R   0.535034 0.450802 0.478711 -0.004848
C16   C     C_R   0.485373 0.145043 0.712981 0.546218
C17   C     C_R   0.651200 0.464865 0.424562 0.035651
C18   C     C_R   0.685609 0.568570 0.404780 -0.180187
C19   C     C_R   0.608406 0.656889 0.440135 -0.096967
C20   C     C_R   0.489532 0.331690 0.465366 0.128607
C21   C     C_R   0.681633 0.264413 0.396481 0.047298
C22   C     C_R   0.284642 0.001021 0.500157 0.548604
C23   C     C_R   0.458647 0.814738 0.101045 -0.129230
C24   C     C_1   0.836855 0.997782 0.500386 -0.021907
C25   C     C_1   0.939734 0.998833 0.500415 -0.039096
C26   C     C_1   0.060100 0.001014 0.500261 -0.045445
C27   C     C_1   0.163050 0.002174 0.500075 -0.028398
C28   C     C_R   0.570007 0.280574 0.005380 -0.134808
C29   C     C_3   0.856025 0.384119 0.338601 -0.270369
C30   C     C_3   0.874840 0.337327 0.208095 -0.306627
C31   C     C_3   0.005546 0.345443 0.160747 -0.435012
C32   C     C_3   0.362876 0.291227 0.442016 -0.218408
C33   C     C_3   0.358436 0.193479 0.318436 -0.279072
C34   C     C_R   0.427090 0.733610 0.994840 -0.122714
C35   C     C_3   0.232231 0.156254 0.292228 -0.453145
C36   C     C_R   0.440553 0.610159 0.951669 -0.105565
C37   C     C_R   0.492738 0.565922 0.011747 0.033861
C38   C     C_R   0.533995 0.651473 0.115154 0.032225
C39   C     C_R   0.505939 0.440207 0.973393 0.033547
C40   C     C_R   0.560246 0.403888 0.038620 0.051027
Cu1   Cu    Cu3+1 0.526510 0.098270 0.475420 0.916083
Cu2   Cu    Cu3+1 0.473490 0.901730 0.524580 0.936665
H1    H     H_    0.551032 0.098983 0.874370 0.133559
H2    H     H_    0.409351 0.552428 0.871270 0.118002
H3    H     H_    0.387412 0.765865 0.947609 0.151068
H4    H     H_    0.651243 0.679235 0.232515 0.105306
H5    H     H_    0.739558 0.193996 0.369172 0.139063
H6    H     H_    0.044397 0.441333 0.197996 0.162722
H7    H     H_    0.053399 0.289109 0.181036 0.153011
H8    H     H_    0.016454 0.311364 0.066260 0.156607
H9    H     H_    0.837674 0.240925 0.168193 0.163093
H10   H     H_    0.829040 0.391898 0.184108 0.158806
H11   H     H_    0.894224 0.479797 0.379921 0.156999
H12   H     H_    0.769082 0.578879 0.354496 0.110847
H13   H     H_    0.905996 0.331181 0.361207 0.140304
H14   H     H_    0.178307 0.120108 0.351811 0.167755
H15   H     H_    0.191978 0.235469 0.300450 0.150562
H16   H     H_    0.232273 0.084339 0.203216 0.149475
H17   H     H_    0.409660 0.230098 0.257824 0.147785
H18   H     H_    0.398990 0.111647 0.302503 0.211245
H19   H     H_    0.308453 0.264931 0.507854 0.167967
H20   H     H_    0.319269 0.366927 0.447562 0.128721
H21   H     H_    0.286160 0.835069 0.679158 0.153201
H22   H     H_    0.343270 0.488713 0.648120 0.126575
H23   H     H_    0.635546 0.723995 0.409469 0.170019
H24   H     H_    0.659151 0.464985 0.177862 0.104707
H25   H     H_    0.610065 0.252758 0.055903 0.103213
H26   H     H_    0.433137 0.371034 0.814935 0.113739
H27   H     H_    0.439032 0.908399 0.136195 0.118095
I1    I     I_    0.156220 0.669882 0.797313 -0.460760
N1    N     N_R   0.566700 0.246290 0.438210 -0.239324
N2    N     N_R   0.434010 0.754320 0.561170 -0.251106
O1    O     O_R   0.533340 0.972510 0.318140 -0.516600
O2    O     O_R   0.488570 0.806530 0.359650 -0.504382
O3    O     O_R   0.685190 0.083000 0.479260 -0.504129
O4    O     O_R   0.640410 0.917020 0.520770 -0.515549
O5    O     O_R   0.511430 0.193470 0.640350 -0.488263
O6    O     O_R   0.466660 0.027490 0.681860 -0.503494
O7    O     O_R   0.359590 0.082980 0.479230 -0.516372
O8    O     O_R   0.314810 0.917000 0.520740 -0.490710

loop_
_geom_bond_atom_site_label_1
_geom_bond_atom_site_label_2
_ccdc_geom_bond_type
C30   H9    S    
Cu2   O8    S    
Cu1   Cu2   S    
C23   H27   S    
C9    N2    A    
C26   C27   T    
C29   C30   S    
C21   N1    A    
C35   H16   S    
C8    C29   S    
C36   C37   A    
C22   O7    A    
C16   O5    A    
C6    C12   A    
C30   C31   S    
C4    C24   S    
C28   C40   A    
C18   C19   A    
C4    O3    A    
C6    C28   A    
C12   C16   S    
C3    C38   A    
C20   N1    A    
C9    C10   A    
C16   O6    A    
Cu1   N1    S    
C33   H17   S    
C9    H21   S    
C13   C14   A    
C31   H6    S    
C31   H7    S    
C5    H26   S    
C8    C21   A    
C15   C20   A    
Cu2   O2    S    
C28   H25   S    
C24   C25   T    
C5    C12   A    
C11   H22   S    
C39   C40   A    
C29   H13   S    
C25   C26   S    
Cu1   O1    S    
Cu1   O7    S    
C37   C38   A    
Cu1   O3    S    
C23   C34   A    
Cu2   N2    S    
C17   C18   A    
C34   H3    S    
C10   I1    S    
Cu2   O6    S    
C33   H18   S    
C22   C27   S    
C13   C15   A    
C36   H2    S    
C1    O2    A    
C31   H8    S    
C20   C32   S    
C15   C17   A    
C30   H10   S    
C35   H14   S    
C1    C7    S    
C14   N2    A    
C14   C19   A    
C2    H24   S    
C32   H19   S    
C3    H4    S    
Cu2   O4    S    
C8    C17   A    
C35   H15   S    
C1    O1    A    
C32   C33   S    
C5    C39   A    
C2    C3    A    
C22   O8    A    
C37   C39   A    
Cu1   O5    S    
C11   C13   A    
C29   H11   S    
C7    C23   A    
C33   C35   S    
C7    C38   A    
C19   H23   S    
C34   C36   A    
C4    O4    A    
C10   C11   A    
C18   H12   S    
C32   H20   S    
C2    C40   A    
C6    H1    S    
C21   H5    S    
