data_mof_unit_67436.cif
_audit_creation_date              2012-12-10T16:42:59-0500
_audit_creation_method            fapswitch 2.2
_symmetry_space_group_name_H-M    P1
_symmetry_Int_Tables_number       1
_space_group_crystal_system       triclinic
_cell_length_a                    7.67632
_cell_length_b                    8.882277
_cell_length_c                    13.048237
_cell_angle_alpha                 77.794992
_cell_angle_beta                  77.427828
_cell_angle_gamma                 104.220939
_cell_volume                      808.067109817

loop_
_atom_site_label
_atom_site_type_symbol
_atom_type_description
_atom_site_fract_x
_atom_site_fract_y
_atom_site_fract_z
_atom_type_partial_charge
C1    C     C_R   0.451717 0.199491 0.503363 0.818442
C2    C     C_R   0.548282 0.800507 0.496642 0.818455
C3    C     C_R   0.463333 0.496175 0.701930 0.760846
C4    C     C_R   0.536667 0.503828 0.298069 0.760850
C5    C     C_R   0.557364 0.506659 0.182927 -0.032539
C6    C     C_R   0.442638 0.493353 0.817071 -0.032535
C7    C     C_R   0.250045 0.454220 0.000201 -0.219627
C8    C     C_R   0.749958 0.545801 0.999795 -0.219614
C9    C     C_R   0.265867 0.459635 0.890782 -0.206473
C10   C     C_R   0.734135 0.540379 0.109216 -0.206485
C11   C     C_R   0.603758 0.522383 0.854057 -0.227460
C12   C     C_R   0.396245 0.477636 0.145940 -0.227486
C13   C     C_R   0.589143 0.517243 0.963171 0.153311
C14   C     C_R   0.410860 0.482780 0.036825 0.153302
C15   C     C_2   0.425773 0.027646 0.517651 -0.047291
C16   C     C_2   0.574228 0.972350 0.482365 -0.047302
Cu1   Cu    Cu3+1 0.686350 0.517570 0.488220 0.943289
Cu2   Cu    Cu3+1 0.313650 0.482430 0.511780 0.943291
H1    H     H_    0.258452 0.451195 0.201840 0.181524
H2    H     H_    0.741551 0.548822 0.798157 0.181528
H3    H     H_    0.859859 0.563750 0.135838 0.164602
H4    H     H_    0.140143 0.436260 0.864160 0.164608
H5    H     H_    0.112317 0.427263 0.056194 0.150035
H6    H     H_    0.887687 0.572758 0.943803 0.150043
N1    N     N_2   0.033570 0.455950 0.529530 -0.130075
N2    N     N_2   0.966430 0.544050 0.470470 -0.130082
O1    O     O_R   0.621060 0.286250 0.492350 -0.581736
O2    O     O_R   0.378940 0.713750 0.507650 -0.581731
O3    O     O_R   0.306310 0.256580 0.512240 -0.574453
O4    O     O_R   0.693690 0.743420 0.487760 -0.574453
O5    O     O_R   0.631800 0.512400 0.642670 -0.597542
O6    O     O_R   0.368200 0.487600 0.357330 -0.597541
O7    O     O_R   0.317060 0.482730 0.662570 -0.609962
O8    O     O_R   0.682940 0.517270 0.337430 -0.609963
C17   C     C_R   0.921980 0.315570 0.630878 0.345801
C18   C     C_R   0.017169 0.228960 0.693664 -0.101904
C19   C     C_R   0.932191 0.106577 0.792417 -0.205393
C20   C     C_R   0.740891 0.053556 0.835322 -0.068308
C21   C     C_R   0.636145 0.121785 0.777898 -0.222025
C22   C     C_R   0.723052 0.245481 0.679552 -0.127956
H7    H     H_    0.160470 0.243969 0.673330 0.187937
H8    H     H_    0.016853 0.050632 0.834900 0.142300
H9    H     H_    0.674129 0.957956 0.911166 0.139887
H10   H     H_    0.484486 0.077982 0.809662 0.134010
H11   H     H_    0.614463 0.271381 0.653313 0.179777
C23   C     C_R   0.078018 0.684439 0.369130 0.345824
C24   C     C_R   0.982834 0.771053 0.306344 -0.101885
C25   C     C_R   0.067807 0.893457 0.207623 -0.205467
C26   C     C_R   0.259088 0.946499 0.164766 -0.068299
C27   C     C_R   0.363839 0.878263 0.222175 -0.222121
C28   C     C_R   0.276945 0.754539 0.320467 -0.127932
H12   H     H_    0.839541 0.756032 0.326661 0.187929
H13   H     H_    0.983150 0.949406 0.165139 0.142306
H14   H     H_    0.325838 0.042119 0.088962 0.139935
H15   H     H_    0.515492 0.922080 0.190433 0.134017
H16   H     H_    0.385531 0.728621 0.346680 0.179776
I1    I     I_    0.150275 0.879281 0.619175 -0.349005
I2    I     I_    0.849740 0.120711 0.380871 -0.348979

loop_
_geom_bond_atom_site_label_1
_geom_bond_atom_site_label_2
_ccdc_geom_bond_type
C24   H12   S    
C1    C15   S    
C2    C16   S    
C11   C13   A    
C26   H14   S    
C24   C25   A    
C2    O4    A    
C3    C6    S    
C6    C9    A    
C1    O3    A    
Cu1   Cu2   S    
C20   H9    S    
Cu2   O3    S    
C16   I2    S    
C13   C14   A    
C3    O5    A    
Cu1   O4    S    
C15   I1    S    
C18   H7    S    
C4    O6    A    
Cu2   N1    S    
N1    C17   S    
C7    H5    S    
Cu1   N2    S    
C20   C21   A    
C12   H1    S    
C8    C10   A    
C18   C19   A    
C8    H6    S    
C19   C20   A    
C12   C14   A    
C17   C22   A    
C6    C11   A    
C10   H3    S    
C25   H13   S    
Cu1   O5    S    
Cu2   O7    S    
C4    O8    A    
C11   H2    S    
Cu2   O6    S    
Cu1   O8    S    
C3    O7    A    
C21   H10   S    
C15   C16   D    
Cu1   O1    S    
C8    C13   A    
C7    C9    A    
C5    C10   A    
Cu2   O2    S    
C22   H11   S    
C5    C12   A    
C19   H8    S    
C26   C27   A    
C21   C22   A    
C1    O1    A    
N2    C23   S    
C9    H4    S    
C25   C26   A    
C2    O2    A    
C27   C28   A    
N1    N2    D    
C23   C24   A    
C23   C28   A    
C7    C14   A    
C27   H15   S    
C4    C5    S    
C17   C18   A    
C28   H16   S    
