data_mof_unit_68393.cif
_audit_creation_date              2012-10-26T19:39:07-0400
_audit_creation_method            fapswitch 2.2
_symmetry_space_group_name_H-M    P1
_symmetry_Int_Tables_number       1
_space_group_crystal_system       triclinic
_cell_length_a                    11.969285
_cell_length_b                    13.01624
_cell_length_c                    7.630624
_cell_angle_alpha                 89.610141
_cell_angle_beta                  109.598194
_cell_angle_gamma                 90.780224
_cell_volume                      1119.83640365

loop_
_atom_site_label
_atom_site_type_symbol
_atom_type_description
_atom_site_fract_x
_atom_site_fract_y
_atom_site_fract_z
_atom_type_partial_charge
C1    C     C_R   0.348034 0.852749 0.453526 0.560329
C2    C     C_2   0.736187 0.770383 0.572550 -0.002999
C3    C     C_2   0.750485 0.216969 0.569547 0.009758
C4    C     C_2   0.249642 0.782906 0.430347 0.009623
C5    C     C_2   0.763835 0.729634 0.427456 -0.003000
C6    C     C_2   0.236264 0.270438 0.572577 -0.002864
C7    C     C_2   0.250379 0.717077 0.569645 0.009564
C8    C     C_2   0.749518 0.283036 0.430458 0.009767
C9    C     C_2   0.710595 0.763610 0.232078 0.630167
C10   C     C_2   0.289812 0.236660 0.768009 0.630132
C11   C     C_2   0.359333 0.691389 0.725218 0.574695
C12   C     C_R   0.652005 0.147221 0.546474 0.560975
C13   C     C_2   0.640338 0.309105 0.275610 0.573730
C14   C     C_2   0.210208 0.263352 0.232002 0.630110
C15   C     C_2   0.789447 0.736419 0.767935 0.630133
C16   C     C_2   0.859667 0.190906 0.724400 0.573731
C17   C     C_2   0.140717 0.808563 0.274703 0.574769
C18   C     C_2   0.331074 0.992153 0.925745 0.784623
C19   C     C_2   0.668928 0.007767 0.074238 0.783993
C20   C     C_2   0.831071 0.492234 0.925761 0.783998
C21   C     C_2   0.168927 0.507828 0.074251 0.784656
C22   C     C_R   0.651237 0.852436 0.546680 0.553411
C23   C     C_R   0.348760 0.147563 0.453315 0.553769
C24   C     C_R   0.847993 0.352784 0.453526 0.561001
C25   C     C_R   0.151974 0.647245 0.546475 0.560226
C26   C     C_R   0.151244 0.352439 0.546687 0.553766
C27   C     C_R   0.848770 0.647569 0.453322 0.553371
C28   C     C_2   0.263749 0.229571 0.427432 -0.002861
Cu1   Cu    Cu3+1 0.517640 1.000000 0.687200 1.155595
Cu2   Cu    Cu3+1 0.482360 1.000000 0.312800 1.155856
Cu3   Cu    Cu3+1 0.017640 0.500000 0.687200 1.155869
Cu4   Cu    Cu3+1 0.982360 0.500000 0.312800 1.155601
H1    H     H_    0.565291 0.778076 0.007090 0.364621
H2    H     H_    0.807193 0.009761 0.314595 0.341230
H3    H     H_    0.692807 0.490240 0.685403 0.341209
H4    H     H_    0.307189 0.509758 0.314613 0.340972
H5    H     H_    0.435343 0.222478 0.992664 0.364665
H6    H     H_    0.521963 0.630593 0.800184 0.389701
H7    H     H_    0.477470 0.369292 0.202139 0.389327
H8    H     H_    0.064674 0.277557 0.007346 0.364638
H9    H     H_    0.934757 0.721948 0.992883 0.364641
H10   H     H_    0.022553 0.130760 0.797904 0.389319
H11   H     H_    0.978130 0.869489 0.199583 0.389726
H12   H     H_    0.192813 0.990230 0.685379 0.340986
N1    N     N_2   0.455760 1.000000 0.031460 -0.188549
N2    N     N_2   0.544240 1.000000 0.968540 -0.188942
N3    N     N_2   0.955760 0.500000 0.031460 -0.188928
N4    N     N_2   0.044240 0.500000 0.968540 -0.188562
O1    O     O_R   0.398880 0.887420 0.621600 -0.496299
O2    O     O_R   0.630920 0.112580 0.694560 -0.443256
O3    O     O_R   0.630920 0.887420 0.694560 -0.471172
O4    O     O_R   0.369080 0.112580 0.305440 -0.470924
O5    O     O_R   0.869080 0.387420 0.305440 -0.443256
O6    O     O_R   0.130920 0.612580 0.694560 -0.443181
O7    O     O_R   0.130920 0.387420 0.694560 -0.470922
O8    O     O_R   0.869080 0.612580 0.305440 -0.471177
O9    O     O_2   0.773448 0.805588 0.155454 -0.478352
O10   O     O_R   0.590804 0.744881 0.134646 -0.620824
O11   O     O_2   0.227239 0.194537 0.844956 -0.478534
O12   O     O_R   0.601120 0.112580 0.378400 -0.496208
O13   O     O_R   0.409609 0.255606 0.865047 -0.620440
O14   O     O_2   0.358001 0.690184 0.884704 -0.416776
O15   O     O_R   0.460192 0.661046 0.686989 -0.691484
O16   O     O_2   0.641479 0.311465 0.116052 -0.416968
O17   O     O_R   0.539444 0.338493 0.314695 -0.691957
O18   O     O_2   0.272790 0.305466 0.155061 -0.478542
O19   O     O_R   0.090408 0.244417 0.134955 -0.620451
O20   O     O_2   0.726611 0.694445 0.844593 -0.478404
O21   O     O_R   0.909241 0.755146 0.865330 -0.620858
O22   O     O_2   0.858521 0.188536 0.883955 -0.416967
O23   O     O_R   0.601120 0.887420 0.378400 -0.469868
O24   O     O_R   0.960572 0.161543 0.685331 -0.691939
O25   O     O_2   0.142062 0.809595 0.115229 -0.416881
O26   O     O_R   0.039881 0.839082 0.312843 -0.691435
O27   O     O_2   0.261518 0.986838 0.011337 -0.423609
O28   O     O_R   0.282636 0.996215 0.733904 -0.660334
O29   O     O_2   0.738479 0.012930 0.988624 -0.423027
O30   O     O_R   0.717366 0.003827 0.266087 -0.660496
O31   O     O_2   0.761521 0.487070 0.011373 -0.423022
O32   O     O_R   0.782634 0.496173 0.733912 -0.660495
O33   O     O_2   0.238482 0.513113 0.988653 -0.423531
O34   O     O_R   0.398880 0.112580 0.621600 -0.469991
O35   O     O_R   0.217365 0.503790 0.266094 -0.660350
O36   O     O_R   0.898880 0.387420 0.621600 -0.496208
O37   O     O_R   0.101120 0.612580 0.378400 -0.496320
O38   O     O_R   0.101120 0.387420 0.378400 -0.469998
O39   O     O_R   0.898880 0.612580 0.621600 -0.469866
O40   O     O_R   0.369080 0.887420 0.305440 -0.443223

loop_
_geom_bond_atom_site_label_1
_geom_bond_atom_site_label_2
_ccdc_geom_bond_type
C18   O27   D    
C23   O34   A    
C22   O23   A    
Cu2   N1    S    
C16   O24   S    
C11   O14   D    
C26   O7    A    
Cu2   O23   S    
C19   N2    S    
Cu1   O1    S    
N1    N2    D    
C7    C11   S    
H1    O10   S    
C11   O15   S    
Cu4   O37   S    
H4    O35   S    
H3    O32   S    
H12   O28   S    
C9    O10   S    
C19   O29   D    
C3    C12   S    
C5    C27   S    
C6    C28   D    
Cu3   Cu4   S    
H8    O19   S    
Cu2   O12   S    
C2    C22   S    
C14   O19   S    
C21   N4    S    
C1    O40   A    
C17   O25   D    
H7    O17   S    
C4    C7    D    
H10   O24   S    
Cu1   O2    S    
C15   O21   S    
Cu3   O39   S    
C20   O32   S    
C21   O35   S    
C16   O22   D    
C25   O6    A    
C3    C8    D    
C27   O8    A    
C13   O17   S    
C24   O5    A    
Cu3   O36   S    
C12   O12   A    
C19   O30   S    
C5    C9    S    
Cu1   Cu2   S    
H5    O13   S    
N3    N4    D    
C26   O38   A    
Cu4   O38   S    
C25   O37   A    
C14   O18   D    
C23   C28   S    
C27   O39   A    
C2    C15   S    
C4    C17   S    
C21   O33   D    
Cu3   N4    S    
C17   O26   S    
Cu4   N3    S    
C2    C5    D    
Cu2   O40   S    
C18   N1    S    
Cu4   O5    S    
H9    O21   S    
H6    O15   S    
Cu1   O3    S    
Cu2   O4    S    
C18   O28   S    
C20   O31   D    
C6    C10   S    
C12   O2    A    
C7    C25   S    
Cu1   N2    S    
C1    C4    S    
Cu3   O7    S    
C10   O11   D    
C24   O36   A    
Cu1   O34   S    
H2    O30   S    
C23   O4    A    
C6    C26   S    
C13   O16   D    
H11   O26   S    
C15   O20   D    
C8    C24   S    
C9    O9    D    
Cu3   O6    S    
C20   N3    S    
C10   O13   S    
C8    C13   S    
C14   C28   S    
C1    O1    A    
Cu4   O8    S    
C3    C16   S    
C22   O3    A    
