data_mof_unit_42982.cif
_audit_creation_date              2012-12-11T17:07:30-0500
_audit_creation_method            fapswitch 2.2
_symmetry_space_group_name_H-M    P1
_symmetry_Int_Tables_number       1
_space_group_crystal_system       triclinic
_cell_length_a                    6.993754
_cell_length_b                    14.625408
_cell_length_c                    15.980468
_cell_angle_alpha                 89.942758
_cell_angle_beta                  89.947932
_cell_angle_gamma                 90.081146
_cell_volume                      1634.58309905

loop_
_atom_site_label
_atom_site_type_symbol
_atom_type_description
_atom_site_fract_x
_atom_site_fract_y
_atom_site_fract_z
_atom_type_partial_charge
O1    O     O_R   0.505720 0.583900 0.413310 -0.536671
O2    O     O_R   0.175940 0.594920 0.586080 -0.542128
O3    O     O_R   0.005640 0.416100 0.586690 -0.533818
C1    C     C_R   0.344814 0.616242 0.615309 0.706277
O4    O     O_R   0.176000 0.594930 0.413930 -0.547200
O5    O     O_R   0.005700 0.416110 0.413310 -0.543049
C2    C     C_R   0.345052 0.616137 0.384676 0.698459
O6    O     O_R   0.505660 0.583890 0.586690 -0.538199
O7    O     O_3   0.339200 0.441330 0.500000 -0.367002
V1    V     V_3+5 0.064350 0.510880 0.500000 1.404233
O8    O     O_R   0.675980 0.405080 0.413920 -0.539543
C3    C     C_R   0.845042 0.383361 0.385075 0.671585
O9    O     O_R   0.675920 0.405070 0.586070 -0.536427
C4    C     C_R   0.844312 0.384771 0.615706 0.699054
V2    V     V_3+5 0.564340 0.489120 0.500000 1.417971
O10   O     O_3   0.839360 0.558670 0.500000 -0.374444
H1    H     H_    0.914171 0.081335 0.495512 0.117530
C5    C     C_R   0.807814 0.435774 0.790071 -0.138258
C6    C     C_R   0.793235 0.463270 0.873295 -0.125584
C7    C     C_R   0.808576 0.399232 0.937307 -0.112161
C8    C     C_R   0.837849 0.307258 0.918495 -0.128775
C9    C     C_R   0.852438 0.277367 0.834495 0.064209
C10   C     C_R   0.838201 0.343191 0.769001 0.064419
C11   C     C_R   0.879622 0.183650 0.815228 -0.172251
C12   C     C_R   0.890112 0.155848 0.730089 0.057580
C13   C     C_R   0.878656 0.222281 0.664870 0.073473
C14   C     C_R   0.853838 0.315833 0.684223 -0.176301
C15   C     C_R   0.909352 0.062518 0.707987 -0.188366
C16   C     C_R   0.916745 0.036011 0.623809 0.030396
C17   C     C_R   0.908177 0.101464 0.560738 -0.160668
C18   C     C_R   0.889733 0.193353 0.580688 -0.146645
H2    H     H_    0.793850 0.487415 0.742256 0.090710
H3    H     H_    0.769738 0.534606 0.888115 0.115532
H4    H     H_    0.797247 0.420833 0.001904 0.130864
H5    H     H_    0.848436 0.260041 0.970455 0.105970
H6    H     H_    0.916698 0.009834 0.755565 0.087461
H7    H     H_    0.882117 0.241233 0.529139 0.102068
C19   C     C_R   0.715157 0.193406 0.232718 0.095030
C20   C     C_R   0.879508 0.184987 0.183429 -0.070063
C21   C     C_R   0.033604 0.242733 0.202168 -0.191829
H8    H     H_    0.156303 0.242285 0.161990 0.134858
C22   C     C_R   0.023830 0.306081 0.268302 -0.177058
H9    H     H_    0.141820 0.352709 0.277721 0.130542
C23   C     C_R   0.858150 0.313631 0.317964 -0.083659
C24   C     C_R   0.705942 0.254623 0.299962 0.055487
C25   C     C_3   0.506278 0.281305 0.279719 -0.404575
C26   C     C_3   0.519336 0.218731 0.204098 0.024547
H10   H     H_    0.492827 0.355330 0.264671 0.180309
H11   H     H_    0.405045 0.256004 0.328159 0.149296
H12   H     H_    0.418373 0.159871 0.204668 0.112500
C27   C     C_R   0.513287 0.686226 0.739307 0.103077
C28   C     C_R   0.353309 0.680892 0.686854 -0.116835
C29   C     C_R   0.197515 0.737541 0.706299 -0.161769
H13   H     H_    0.071256 0.734841 0.668123 0.174312
C30   C     C_R   0.208500 0.802462 0.771145 -0.168792
H14   H     H_    0.089969 0.848588 0.780627 0.134139
C31   C     C_R   0.375712 0.811969 0.819414 -0.113073
C32   C     C_R   0.524167 0.750220 0.803987 0.104957
C33   C     C_3   0.728547 0.770360 0.786194 -0.414216
C34   C     C_3   0.716607 0.701263 0.715758 -0.403337
H15   H     H_    0.822912 0.748240 0.838340 0.171562
H16   H     H_    0.750819 0.841640 0.763902 0.175899
H17   H     H_    0.806835 0.640291 0.726885 0.159673
H18   H     H_    0.730635 0.732038 0.652469 0.203878
C35   C     C_R   0.519750 0.737984 0.303752 0.109826
C36   C     C_R   0.355205 0.685534 0.317121 -0.065555
C37   C     C_R   0.200798 0.699860 0.262877 -0.186484
H19   H     H_    0.078027 0.656355 0.268058 0.129517
C38   C     C_R   0.210893 0.764376 0.197575 -0.177932
H20   H     H_    0.092809 0.769879 0.154334 0.131185
C39   C     C_R   0.377385 0.816582 0.184476 -0.087529
C40   C     C_R   0.529226 0.803833 0.240257 0.050918
C41   C     C_3   0.729657 0.779573 0.218973 -0.414769
C42   C     C_3   0.716886 0.704968 0.285126 0.025693
H21   H     H_    0.829522 0.835616 0.236267 0.147919
H22   H     H_    0.744424 0.754543 0.153564 0.178758
H23   H     H_    0.816253 0.713585 0.338907 0.125458
O11   O     O_R   0.229140 0.916090 0.913340 -0.541498
O12   O     O_R   0.558860 0.905090 0.086080 -0.539983
O13   O     O_R   0.729100 0.083920 0.086690 -0.538685
C43   C     C_R   0.389731 0.882949 0.114557 0.690809
O14   O     O_R   0.558860 0.905090 0.913930 -0.539882
O15   O     O_R   0.729100 0.083920 0.913310 -0.534014
C44   C     C_R   0.389694 0.883021 0.885352 0.701500
O16   O     O_R   0.229140 0.916080 0.086720 -0.540960
O17   O     O_3   0.395570 0.058660 0.000020 -0.373611
V3    V     V_3+5 0.670450 0.989140 0.000000 1.395786
O18   O     O_R   0.058810 0.094980 0.913910 -0.536253
C45   C     C_R   0.890287 0.114958 0.883957 0.701602
O19   O     O_R   0.058810 0.094980 0.086060 -0.547421
C46   C     C_R   0.889665 0.117834 0.113979 0.685408
V4    V     V_3+5 0.170450 0.010950 0.999970 1.394125
O20   O     O_3   0.895460 0.941370 0.999990 -0.373809
N1    N     N_3   0.526393 0.269509 0.124869 -0.649054
H24   H     H_    0.496017 0.223961 0.076321 0.246360
H25   H     H_    0.418692 0.318948 0.123896 0.224875
N2    N     N_3   0.713388 0.612663 0.249065 -0.645701
H26   H     H_    0.814888 0.607615 0.201252 0.221130
H27   H     H_    0.755811 0.566554 0.295460 0.231230
C47   C     C_1   0.929909 0.941351 0.600600 0.268845
N3    N     N_1   0.939760 0.865730 0.580128 -0.402961

loop_
_geom_bond_atom_site_label_1
_geom_bond_atom_site_label_2
_ccdc_geom_bond_type
O15   V3    S    
C30   H14   S    
C41   C42   S    
C6    C7    A    
C1    O6    A    
C11   C45   S    
O12   V3    S    
N2    H26   S    
C31   C32   A    
C29   H13   S    
C28   C29   A    
C12   C15   A    
C25   H11   S    
C13   C14   A    
C1    C28   S    
C34   H17   S    
C15   C16   A    
O13   V3    S    
O5    C3    A    
C17   C18   A    
O4    V1    S    
O14   V3    S    
C5    C6    A    
C38   C39   A    
V4    O20   S    
C19   C24   A    
O8    V2    S    
O18   V4    S    
C42   H23   S    
O1    V2    S    
C10   C14   A    
C4    C14   S    
C42   N2    S    
O7    V1    S    
C7    H4    S    
C21   C22   A    
C36   C37   A    
C13   C18   A    
O9    C4    A    
H1    C17   S    
C41   H21   S    
C38   H20   S    
C22   C23   A    
C20   C46   S    
N2    H27   S    
O16   V4    S    
C26   H12   S    
C29   C30   A    
O15   C45   A    
C25   H10   S    
C33   H15   S    
C5    C10   A    
C11   C12   A    
C6    H3    S    
C20   C21   A    
O4    C2    A    
O17   V3    S    
O11   V4    S    
C12   C13   A    
C24   C25   S    
C35   C42   S    
C37   H19   S    
C18   H7    S    
C37   C38   A    
O2    C1    A    
C16   C17   A    
O19   V4    S    
C31   C44   S    
C27   C32   A    
O18   C45   A    
N1    H25   S    
C19   C26   S    
O3    C4    A    
C21   H8    S    
O6    V2    S    
O14   C44   A    
C30   C31   A    
C41   H22   S    
C9    C11   A    
C5    H2    S    
C22   H9    S    
O2    V1    S    
C23   C24   A    
O12   C43   A    
C25   C26   S    
C33   H16   S    
C16   C47   S    
O1    C2    A    
C40   C41   S    
O5    V1    S    
O8    C3    A    
C8    H5    S    
C35   C40   A    
C34   H18   S    
O13   C46   A    
O9    V2    S    
C32   C33   S    
C27   C28   A    
C3    C23   S    
O3    V1    S    
V1    O10   S    
C2    C36   S    
O19   C46   A    
C19   C20   A    
V3    O20   S    
C47   N3    T    
C26   N1    S    
O7    V2    S    
N1    H24   S    
O11   C44   A    
C33   C34   S    
C39   C40   A    
C7    C8    A    
C15   H6    S    
C35   C36   A    
C9    C10   A    
O17   V4    S    
C27   C34   S    
C8    C9    A    
C43   O16   A    
V2    O10   S    
C39   C43   S    
