data_mof_unit_61577.cif
_audit_creation_date              2012-10-26T20:36:49-0400
_audit_creation_method            fapswitch 2.2
_symmetry_space_group_name_H-M    P1
_symmetry_Int_Tables_number       1
_space_group_crystal_system       triclinic
_cell_length_a                    15.844785
_cell_length_b                    17.013766
_cell_length_c                    27.792119
_cell_angle_alpha                 90.864414
_cell_angle_beta                  92.896208
_cell_angle_gamma                 96.336247
_cell_volume                      7435.29459564

loop_
_atom_site_label
_atom_site_type_symbol
_atom_type_description
_atom_site_fract_x
_atom_site_fract_y
_atom_site_fract_z
_atom_type_partial_charge
Br1   Br    Br    0.592021 0.359849 0.363002 -0.459938
Br2   Br    Br    0.239255 0.404803 0.120365 -0.332039
Br3   Br    Br    0.414531 0.643368 0.637569 -0.456786
Br4   Br    Br    0.341602 0.898823 0.533523 -0.393453
Br5   Br    Br    0.658430 0.101143 0.466656 -0.393221
Br6   Br    Br    0.714536 0.631221 0.580506 -0.399436
Br7   Br    Br    0.285432 0.368925 0.419410 -0.398306
Br8   Br    Br    0.588062 0.357831 0.639218 -0.415318
Br9   Br    Br    0.404498 0.637100 0.359591 -0.414058
Br10  Br    Br    0.769768 0.539403 0.879409 -0.334905
C1    C     C_R   0.489725 0.348331 0.498835 0.587555
C2    C     C_R   0.580684 0.512950 0.874867 0.027273
C3    C     C_R   0.499284 0.499092 0.354881 0.036929
C4    C     C_R   0.500638 0.500190 0.645035 0.037076
C5    C     C_R   0.578300 0.514502 0.977438 -0.009720
C6    C     C_R   0.422816 0.474655 0.022566 -0.009753
C7    C     C_R   0.423152 0.479979 0.971538 0.030939
C8    C     C_R   0.576228 0.518804 0.028509 0.031117
C9    C     C_R   0.501484 0.497655 0.949116 0.034303
C10   C     C_R   0.498745 0.496493 0.050912 0.034432
C11   C     C_R   0.655226 0.525387 0.953723 -0.103376
C12   C     C_R   0.510275 0.651669 0.501171 0.586915
C13   C     C_R   0.348890 0.447087 0.046210 -0.103465
C14   C     C_R   0.657360 0.524904 0.903722 0.187053
C15   C     C_R   0.347219 0.445144 0.096201 0.186678
C16   C     C_R   0.499842 0.499765 0.407585 0.612244
C17   C     C_R   0.500145 0.500144 0.592386 0.613641
C18   C     C_R   0.649144 0.545717 0.058121 -0.123143
C19   C     C_R   0.347359 0.469060 0.941987 -0.123060
C20   C     C_R   0.485173 0.261816 0.495266 0.002563
C21   C     C_R   0.514832 0.738182 0.504787 0.002156
C22   C     C_R   0.558952 0.226146 0.486740 -0.076525
C23   C     C_R   0.497348 0.496143 0.102109 -0.054833
C24   C     C_R   0.441060 0.773841 0.513348 -0.076645
C25   C     C_R   0.556106 0.144232 0.482682 0.202265
C26   C     C_R   0.443914 0.855751 0.517458 0.202301
C27   C     C_R   0.478524 0.096673 0.488252 0.242632
C28   C     C_R   0.521497 0.903317 0.511904 0.242610
C29   C     C_R   0.404476 0.132347 0.495063 -0.094707
C30   C     C_R   0.595541 0.867652 0.505066 -0.094895
C31   C     C_R   0.407621 0.214404 0.498771 -0.126667
C32   C     C_R   0.592388 0.785599 0.501309 -0.127091
C33   C     C_R   0.750842 0.460895 0.476467 0.017125
C34   C     C_R   0.502833 0.498500 0.897923 -0.054783
C35   C     C_R   0.249189 0.538970 0.523639 0.016626
C36   C     C_R   0.840265 0.462804 0.477617 -0.103484
C37   C     C_R   0.159766 0.537085 0.522498 -0.103739
C38   C     C_R   0.891495 0.515593 0.509582 0.186520
C39   C     C_R   0.108520 0.484442 0.490453 0.186620
C40   C     C_R   0.570879 0.521140 0.180618 0.411400
C41   C     C_R   0.427176 0.485462 0.819449 0.411098
C42   C     C_R   0.850373 0.564336 0.539230 -0.080859
C43   C     C_R   0.149620 0.435798 0.460729 -0.080677
C44   C     C_R   0.761433 0.560983 0.537221 0.295891
C45   C     C_R   0.572304 0.521132 0.130311 0.030659
C46   C     C_R   0.238555 0.439123 0.462727 0.296530
C47   C     C_R   0.423650 0.472337 0.176155 0.432614
C48   C     C_R   0.578139 0.514287 0.823873 0.431933
C49   C     C_R   0.457581 0.554245 0.278368 -0.020884
C50   C     C_R   0.538937 0.441861 0.721091 -0.020744
C51   C     C_R   0.457972 0.555374 0.328590 0.118146
C52   C     C_R   0.538753 0.441539 0.670890 0.116540
C53   C     C_R   0.539457 0.441785 0.330130 0.118038
C54   C     C_R   0.463459 0.559078 0.670121 0.117202
C55   C     C_R   0.538644 0.441580 0.279905 -0.015911
C56   C     C_R   0.425872 0.484817 0.869761 0.030880
C57   C     C_R   0.464416 0.558774 0.720353 -0.015362
C58   C     C_R   0.497901 0.497632 0.253969 0.168789
C59   C     C_R   0.501904 0.500271 0.745958 0.166502
C60   C     C_R   0.647117 0.546515 0.107914 -0.087572
C61   C     C_R   0.348911 0.471118 0.892207 -0.087207
C62   C     C_R   0.421438 0.471019 0.125129 0.026631
Cu1   Cu    Cu3+1 0.415220 0.496180 0.497670 1.082962
Cu2   Cu    Cu3+1 0.584780 0.503820 0.502330 1.083157
H1    H     H_    0.344453 0.096220 0.498474 0.178868
H2    H     H_    0.112135 0.394877 0.435698 0.159421
H3    H     H_    0.569016 0.397329 0.260839 0.179076
H4    H     H_    0.436549 0.604407 0.739665 0.181571
H5    H     H_    0.704949 0.567508 0.128874 0.182777
H6    H     H_    0.288919 0.462071 0.871298 0.183716
H7    H     H_    0.716089 0.532164 0.973268 0.150241
H8    H     H_    0.290871 0.424095 0.026600 0.150322
H9    H     H_    0.381096 0.738080 0.517684 0.177007
H10   H     H_    0.618915 0.261901 0.482390 0.177229
H11   H     H_    0.567416 0.396325 0.740936 0.180807
H12   H     H_    0.655564 0.903784 0.501667 0.178867
H13   H     H_    0.426485 0.597803 0.258150 0.177544
H14   H     H_    0.708720 0.568765 0.043974 0.129223
H15   H     H_    0.285073 0.460755 0.956176 0.129841
H16   H     H_    0.349665 0.240598 0.504739 0.174028
H17   H     H_    0.650341 0.759413 0.495319 0.174033
H18   H     H_    0.287677 0.579625 0.548263 0.172581
H19   H     H_    0.712386 0.420081 0.451944 0.174507
H20   H     H_    0.131560 0.576399 0.546410 0.159500
H21   H     H_    0.868479 0.423373 0.453785 0.159907
H22   H     H_    0.887843 0.605341 0.564218 0.159326
N1    N     N_R   0.497456 0.497022 0.202339 -0.408251
N2    N     N_R   0.502398 0.500098 0.797651 -0.407098
N3    N     N_2   0.472520 0.013245 0.486629 -0.161563
N4    N     N_2   0.527494 0.986745 0.513540 -0.161171
N5    N     N_R   0.712130 0.509560 0.505840 -0.228349
N6    N     N_R   0.287870 0.490440 0.494160 -0.228107
N7    N     N_2   0.982946 0.522385 0.513694 -0.211432
N8    N     N_2   0.017071 0.477659 0.486351 -0.211469
O1    O     O_R   0.420530 0.382500 0.497820 -0.477372
O2    O     O_2   0.353766 0.470912 0.792369 -0.465947
O3    O     O_2   0.649940 0.530641 0.800263 -0.393000
O4    O     O_2   0.353418 0.449164 0.199869 -0.391020
O5    O     O_R   0.579470 0.617500 0.502180 -0.477177
O6    O     O_R   0.563720 0.388950 0.501760 -0.499959
O7    O     O_R   0.436280 0.611050 0.498240 -0.500230
O8    O     O_R   0.428410 0.496790 0.428290 -0.433064
O9    O     O_R   0.571590 0.503210 0.571710 -0.433377
O10   O     O_R   0.571600 0.503240 0.432230 -0.495157
O11   O     O_R   0.428400 0.496760 0.567770 -0.496009
O12   O     O_2   0.642278 0.545576 0.207781 -0.464625

loop_
_geom_bond_atom_site_label_1
_geom_bond_atom_site_label_2
_ccdc_geom_bond_type
C23   C45   A    
C5    C8    A    
C20   C22   A    
C53   C55   A    
C13   H8    S    
C7    C19   A    
Cu1   Cu2   S    
C44   N5    A    
C34   C56   A    
C48   N2    A    
Cu2   O5    S    
C16   O10   A    
C37   C39   A    
Br3   C54   S    
C5    C9    A    
C54   C57   A    
Br9   C51   S    
C21   C32   A    
C48   O3    S    
C4    C52   A    
C8    C10   A    
C50   C52   A    
C32   H17   S    
C30   H12   S    
C35   H18   S    
C58   N1    S    
C23   C62   A    
C33   H19   S    
C17   O11   A    
C36   H21   S    
C56   C61   A    
C1    C20   S    
C6    C7    A    
C18   H14   S    
C20   C31   A    
C29   H1    S    
C4    C17   S    
C24   C26   A    
C2    C48   A    
C59   N2    S    
C12   O5    A    
C41   N2    A    
C30   C32   A    
C31   H16   S    
C4    C54   A    
C1    O6    A    
C57   H4    S    
Br7   C46   S    
Br6   C44   S    
Br1   C53   S    
C19   H15   S    
C61   H6    S    
C42   C44   A    
Cu1   O7    S    
C35   C37   A    
C22   H10   S    
C36   C38   A    
C49   C51   A    
C55   H3    S    
C12   C21   S    
C22   C25   A    
C8    C18   A    
Br4   C26   S    
C28   N4    S    
Br10  C14   S    
Cu2   O9    S    
C57   C59   A    
C41   C56   A    
C33   N5    A    
C1    O1    A    
C49   C58   A    
Cu1   O1    S    
N3    N4    D    
C3    C53   A    
C38   C42   A    
C6    C10   A    
C55   C58   A    
C47   N1    A    
C21   C24   A    
C15   C62   A    
Cu2   N5    S    
C10   C23   A    
C17   O9    A    
Cu1   N6    S    
C11   H7    S    
C6    C13   A    
C3    C16   S    
C43   H2    S    
C24   H9    S    
C16   O8    A    
C27   N3    S    
C9    C34   A    
Cu1   O8    S    
C43   C46   A    
C40   N1    A    
C25   C27   A    
C60   H5    S    
C18   C60   A    
Cu2   O6    S    
C50   H11   S    
C2    C14   A    
C40   C45   A    
Cu1   O11   S    
C39   N8    S    
C26   C28   A    
C46   N6    A    
C27   C29   A    
C28   C30   A    
C38   N7    S    
C50   C59   A    
C41   O2    S    
C39   C43   A    
Br5   C25   S    
C7    C9    A    
C37   H20   S    
C42   H22   S    
Br2   C15   S    
C40   O12   S    
C13   C15   A    
C47   C62   A    
C33   C36   A    
C49   H13   S    
C45   C60   A    
C35   N6    A    
C5    C11   A    
C47   O4    S    
C3    C51   A    
C29   C31   A    
C2    C34   A    
C12   O7    A    
C11   C14   A    
N7    N8    D    
Br8   C52   S    
C19   C61   A    
Cu2   O10   S    
