data_mof_unit_43049.cif
_audit_creation_date              2012-12-10T17:32:25-0500
_audit_creation_method            fapswitch 2.2
_symmetry_space_group_name_H-M    P1
_symmetry_Int_Tables_number       1
_space_group_crystal_system       triclinic
_cell_length_a                    15.528251
_cell_length_b                    15.529614
_cell_length_c                    15.480603
_cell_angle_alpha                 91.365645
_cell_angle_beta                  71.918631
_cell_angle_gamma                 111.629336
_cell_volume                      3281.51153152

loop_
_atom_site_label
_atom_site_type_symbol
_atom_type_description
_atom_site_fract_x
_atom_site_fract_y
_atom_site_fract_z
_atom_type_partial_charge
C1    C     C_R   0.461843 0.258385 0.464058 0.493202
C2    C     C_R   0.532977 0.508058 0.110925 -0.140756
C3    C     C_R   0.612782 0.669524 0.128625 -0.125606
C4    C     C_R   0.534637 0.741221 0.536326 0.494813
C5    C     C_R   0.432185 0.421572 0.838867 0.036486
C6    C     C_R   0.324443 0.007370 0.454894 0.139032
C7    C     C_R   0.442875 0.160865 0.454573 -0.012880
C8    C     C_R   0.651458 0.895517 0.548302 -0.191873
C9    C     C_R   0.690170 0.991147 0.527792 -0.124255
C10   C     C_R   0.638781 0.035605 0.499246 0.264966
C11   C     C_R   0.539121 0.984725 0.503742 0.025125
C12   C     C_R   0.403495 0.299441 0.951204 -0.131494
C13   C     C_R   0.499974 0.886382 0.526286 -0.009784
C14   C     C_R   0.477593 0.026070 0.484377 -0.006267
C15   C     C_R   0.383552 0.968121 0.479600 0.063781
C16   C     C_R   0.756384 0.551117 0.462985 0.497263
C17   C     C_R   0.346662 0.872904 0.506400 -0.129291
C18   C     C_R   0.402110 0.833727 0.533007 -0.129912
C19   C     C_R   0.502781 0.122949 0.475855 -0.140667
C20   C     C_R   0.355075 0.103865 0.442624 -0.120644
C21   C     C_R   0.559443 0.841919 0.541710 0.007396
C22   C     C_R   0.014900 0.598245 0.324728 0.135324
C23   C     C_R   0.446533 0.365731 0.002508 -0.164590
C24   C     C_R   0.859827 0.569445 0.443378 0.003433
C25   C     C_R   0.074687 0.393693 0.650212 0.254520
C26   C     C_R   0.981651 0.397027 0.681201 -0.128846
C27   C     C_R   0.950024 0.438937 0.625564 -0.164446
C28   C     C_R   0.242732 0.448921 0.536238 0.512271
C29   C     C_R   0.009518 0.476247 0.534772 0.023942
C30   C     C_R   0.102205 0.468114 0.501250 -0.017275
C31   C     C_R   0.980142 0.521207 0.476075 0.010136
C32   C     C_R   0.042658 0.554085 0.384188 0.071318
C33   C     C_R   0.129182 0.537618 0.351399 -0.125936
C34   C     C_R   0.478717 0.462262 0.976607 -0.015415
C35   C     C_R   0.157466 0.494199 0.408214 -0.134647
C36   C     C_R   0.889102 0.531598 0.504477 -0.141106
C37   C     C_R   0.922958 0.603954 0.354694 -0.115765
C38   C     C_R   0.137570 0.433127 0.561159 0.021202
C39   C     C_R   0.551995 0.551994 0.258842 0.495575
C40   C     C_R   0.448859 0.448981 0.742437 0.552845
C41   C     C_R   0.611606 0.696629 0.043601 0.275860
C42   C     C_R   0.572591 0.576207 0.162365 -0.012972
C43   C     C_R   0.399506 0.325995 0.867823 0.244471
C44   C     C_3   0.235916 0.909817 0.362515 -0.321839
C45   C     C_R   0.463788 0.489739 0.897424 -0.017046
C46   C     C_3   0.733297 0.134567 0.370608 -0.023274
C47   C     C_3   0.783175 0.236710 0.332872 -0.362894
C48   C     C_3   0.151235 0.722485 0.220959 -0.324344
C49   C     C_3   0.650274 0.784120 0.808505 -0.282903
C50   C     C_3   0.069102 0.264057 0.720730 -0.008651
C51   C     C_3   0.119305 0.229289 0.774179 -0.331666
C52   C     C_3   0.751162 0.828270 0.994848 -0.004391
C53   C     C_3   0.791883 0.929467 0.955481 -0.367934
C54   C     C_3   0.431406 0.221216 0.769903 -0.002161
C55   C     C_3   0.384847 0.138720 0.722120 -0.360698
C56   C     C_R   0.524602 0.531823 0.027242 -0.043877
C57   C     C_3   0.328433 0.587059 0.868891 -0.311690
C58   C     C_R   0.560232 0.628269 0.995218 0.047730
C59   C     C_R   0.537337 0.653816 0.920310 0.154104
C60   C     C_R   0.479900 0.584348 0.878814 0.145125
H1    H     H_    0.640647 0.722136 0.170979 0.113297
H2    H     H_    0.878396 0.440692 0.656259 0.108808
H3    H     H_    0.934705 0.370020 0.750662 0.120667
H4    H     H_    0.222706 0.479689 0.377285 0.138768
H5    H     H_    0.501132 0.437730 0.142853 0.112804
H6    H     H_    0.453544 0.338044 0.061837 0.110960
H7    H     H_    0.377359 0.226238 0.974232 0.121103
H8    H     H_    0.308027 0.134596 0.428128 0.101236
H9    H     H_    0.180670 0.981453 0.465181 0.245302
H10   H     H_    0.265247 0.965278 0.305093 0.138939
H11   H     H_    0.283040 0.868610 0.350042 0.158611
H12   H     H_    0.272815 0.828149 0.510308 0.152957
H13   H     H_    0.161109 0.862520 0.365369 0.140573
H14   H     H_    0.677716 0.099257 0.336557 0.137613
H15   H     H_    0.789691 0.103106 0.353764 0.130365
H16   H     H_    0.839896 0.273958 0.364736 0.165716
H17   H     H_    0.818625 0.242800 0.257779 0.096839
H18   H     H_    0.728298 0.269626 0.347622 0.177201
H19   H     H_    0.037676 0.623955 0.187161 0.248786
H20   H     H_    0.199698 0.739200 0.148685 0.144397
H21   H     H_    0.196756 0.725686 0.264835 0.155666
H22   H     H_    0.117526 0.775200 0.238403 0.131861
H23   H     H_    0.562555 0.170801 0.495038 0.183569
H24   H     H_    0.509369 0.768587 0.890182 0.244097
H25   H     H_    0.670579 0.859840 0.793142 0.131250
H26   H     H_    0.633929 0.748186 0.749264 0.146240
H27   H     H_    0.713682 0.773275 0.817993 0.155383
H28   H     H_    0.081680 0.235768 0.652979 0.125585
H29   H     H_    0.989144 0.236896 0.758920 0.114681
H30   H     H_    0.108140 0.255807 0.842411 0.161353
H31   H     H_    0.088094 0.151972 0.783396 0.080302
H32   H     H_    0.199083 0.253718 0.736544 0.212624
H33   H     H_    0.786223 0.789315 0.943667 0.117458
H34   H     H_    0.697182 0.862896 0.562323 0.133720
H35   H     H_    0.771492 0.826811 0.057495 0.113902
H36   H     H_    0.758992 0.970275 0.005598 0.158735
H37   H     H_    0.872589 0.959631 0.939938 0.087000
H38   H     H_    0.775110 0.934416 0.891573 0.152215
H39   H     H_    0.459878 0.196091 0.817796 0.114337
H40   H     H_    0.493688 0.274945 0.717485 0.130519
H41   H     H_    0.354058 0.160248 0.674557 0.186124
H42   H     H_    0.440693 0.111373 0.682915 0.103186
H43   H     H_    0.324992 0.082495 0.773401 0.145859
H44   H     H_    0.467295 0.672401 0.785957 0.257682
H45   H     H_    0.764066 0.030728 0.527676 0.127669
H46   H     H_    0.295969 0.602696 0.819602 0.146582
H47   H     H_    0.318140 0.629964 0.926834 0.135392
H48   H     H_    0.289424 0.512039 0.894534 0.164973
H49   H     H_    0.366586 0.761030 0.559399 0.144820
H50   H     H_    0.898703 0.631801 0.307221 0.106143
H51   H     H_    0.175322 0.556870 0.280656 0.151323
H52   H     H_    0.835999 0.504836 0.571217 0.107517
N1    N     N_2   0.231393 0.950509 0.447987 -0.530845
N2    N     N_2   0.075844 0.630572 0.232520 -0.531782
N3    N     N_2   0.566113 0.749402 0.890657 -0.454722
N4    N     N_2   0.431633 0.608349 0.823735 -0.503784
O1    O     O_3   0.500000 0.500000 0.500000 -0.437256
O2    O     O_R   0.588830 0.499590 0.285390 -0.544379
O3    O     O_R   0.395900 0.395880 0.699370 -0.504697
O4    O     O_R   0.493280 0.582590 0.315890 -0.537806
O5    O     O_R   0.521980 0.521940 0.699340 -0.531899
O6    O     O_3   0.689297 0.128292 0.466104 -0.586949
O7    O     O_3   0.108414 0.362376 0.711048 -0.540049
O8    O     O_3   0.648342 0.790841 0.014909 -0.522625
O9    O     O_3   0.360536 0.257785 0.816090 -0.550997
O10   O     O_R   0.708210 0.582550 0.530770 -0.546247
O11   O     O_R   0.270260 0.395900 0.573760 -0.510023
O12   O     O_R   0.537060 0.322180 0.411040 -0.538031
O13   O     O_R   0.484470 0.699370 0.484430 -0.540988
O14   O     O_R   0.404710 0.279110 0.530840 -0.561538
O15   O     O_R   0.573760 0.699350 0.573690 -0.556222
O16   O     O_R   0.714470 0.499570 0.411000 -0.542061
O17   O     O_R   0.307050 0.521980 0.484470 -0.554095
Zn1   Zn    Zn3+2 0.574690 0.574670 0.574650 0.920284
Zn2   Zn    Zn3+2 0.583640 0.456100 0.403530 0.920621
Zn3   Zn    Zn3+2 0.447120 0.574690 0.447120 0.926761
Zn4   Zn    Zn3+2 0.394550 0.394550 0.574700 0.944492

loop_
_geom_bond_atom_site_label_1
_geom_bond_atom_site_label_2
_ccdc_geom_bond_type
C45   C60   A    
C34   C56   A    
C27   C29   A    
C52   O8    S    
C49   H27   S    
C18   H49   S    
C2    H5    S    
C43   O9    S    
C3    C42   A    
C40   O5    A    
C55   H42   S    
H9    N1    S    
C26   C27   A    
C24   C36   A    
C22   C32   A    
C13   C18   A    
C52   H35   S    
C41   O8    S    
C47   H16   S    
C12   C43   A    
C31   C36   A    
C51   H30   S    
C25   C38   A    
C11   C14   A    
C9    H45   S    
C39   O4    A    
C55   H43   S    
C48   H21   S    
C30   C38   A    
C44   H11   S    
C39   C42   S    
C51   H31   S    
C6    C15   A    
H44   N4    S    
C48   H22   S    
C8    C9    A    
C36   H52   S    
O17   Zn3   S    
C1    O12   A    
C44   H10   S    
C35   H4    S    
C33   H51   S    
O5    Zn1   S    
C57   N4    S    
C9    C10   A    
C28   O11   A    
C50   H28   S    
O15   Zn1   S    
C57   H46   S    
C5    C43   A    
C59   C60   A    
C16   C24   S    
C53   H36   S    
C54   H40   S    
C19   H23   S    
O1    Zn1   S    
C49   H26   S    
C46   H15   S    
C54   O9    S    
C24   C37   A    
C4    O15   A    
C3    H1    S    
C12   H7    S    
C28   O17   A    
O3    Zn4   S    
C49   H25   S    
C8    H34   S    
C1    O14   A    
O12   Zn2   S    
C50   C51   S    
C58   C59   A    
C22   C37   A    
C5    C45   A    
O4    Zn3   S    
C26   H3    S    
C6    N1    S    
C29   C30   A    
C27   H2    S    
C51   H32   S    
O13   Zn3   S    
C50   H29   S    
C31   C32   A    
C12   C23   A    
C28   C38   S    
C23   C34   A    
C57   H48   S    
C17   C18   A    
C13   C21   A    
C52   H33   S    
C34   C45   A    
C25   O7    S    
C37   H50   S    
C30   C35   A    
C57   H47   S    
C44   N1    S    
H24   N3    S    
C7    C19   A    
C54   H39   S    
C60   N4    S    
C47   H17   S    
O1    Zn2   S    
C46   H14   S    
C52   C53   S    
C23   H6    S    
C48   N2    S    
C54   C55   S    
C15   C17   A    
C46   C47   S    
C3    C41   A    
C49   N3    S    
C1    C7    S    
C14   C19   A    
C20   H8    S    
O1    Zn4   S    
C50   O7    S    
C10   O6    S    
C8    C21   A    
C41   C58   A    
C4    O13   A    
C53   H38   S    
C39   O2    A    
C6    C20   A    
C55   H41   S    
C53   H37   S    
C32   C33   A    
C48   H20   S    
C25   C26   A    
C29   C31   A    
C2    C56   A    
C4    C21   S    
C11   C13   A    
C2    C42   A    
O16   Zn2   S    
C33   C35   A    
C56   C58   A    
C44   H13   S    
C16   O16   A    
C10   C11   A    
O14   Zn4   S    
C22   N2    S    
C40   O3    A    
O10   Zn1   S    
C17   H12   S    
C59   N3    S    
C7    C20   A    
H19   N2    S    
C14   C15   A    
C46   O6    S    
O11   Zn4   S    
C47   H18   S    
C5    C40   S    
O1    Zn3   S    
C16   O10   A    
O2    Zn2   S    
