data_mof_unit_18050.cif
_audit_creation_date              2013-03-05T16:03:51-0500
_audit_creation_method            fapswitch 2.2
_symmetry_space_group_name_H-M    P1
_symmetry_Int_Tables_number       1
_space_group_crystal_system       triclinic
_cell_length_a                    6.928545
_cell_length_b                    17.555534
_cell_length_c                    19.664435
_cell_angle_alpha                 109.008092
_cell_angle_beta                  90.216723
_cell_angle_gamma                 90.616605
_cell_volume                      2261.24930953

loop_
_atom_site_label
_atom_site_type_symbol
_atom_site_description
_atom_site_fract_x
_atom_site_fract_y
_atom_site_fract_z
_atom_type_partial_charge
O1    O     O_R   0.505700 0.440210 0.561730 -0.609161
O2    O     O_R   0.169350 0.406300 0.412660 -0.598905
O3    O     O_R   0.005650 0.559790 0.438270 -0.585369
C1    C     C_R   0.338184 0.382945 0.384986 0.930346
O4    O     O_R   0.175560 0.430650 0.559600 -0.602245
O5    O     O_R   0.011900 0.584320 0.586250 -0.591399
C2    C     C_R   0.344474 0.415666 0.581236 0.905058
O6    O     O_R   0.499450 0.415680 0.413750 -0.600119
O7    O     O_3   0.341370 0.550390 0.508570 -0.243875
V1    V     V_3+5 0.063940 0.490650 0.498410 1.179547
O8    O     O_R   0.682570 0.593700 0.587340 -0.573002
C3    C     C_R   0.852892 0.618769 0.613740 1.025716
O9    O     O_R   0.676370 0.569350 0.440400 -0.584517
C4    C     C_R   0.844586 0.580733 0.415867 1.030478
V2    V     V_3+5 0.564750 0.509350 0.501590 1.197479
O10   O     O_3   0.837190 0.449610 0.491430 -0.293224
C5    C     C_R   0.046037 0.693200 0.295159 -0.159442
H1    H     H_    0.187591 0.710875 0.282249 0.101865
C6    C     C_R   0.034890 0.647397 0.341454 -0.077117
H2    H     H_    0.168076 0.629874 0.360893 0.140524
C7    C     C_R   0.855226 0.626534 0.363986 -0.107857
C8    C     C_R   0.686753 0.649557 0.336081 -0.124487
H3    H     H_    0.545786 0.633280 0.350996 0.127341
C9    C     C_R   0.697804 0.693593 0.288156 -0.150035
H4    H     H_    0.564455 0.708411 0.266867 0.096679
C10   C     C_R   0.877736 0.717334 0.267720 0.105718
C11   C     C_R   0.742845 0.822003 0.217779 -0.147765
H5    H     H_    0.619270 0.829602 0.252715 0.112210
C12   C     C_R   0.754316 0.869000 0.172444 -0.163134
H6    H     H_    0.637976 0.909885 0.172994 0.123564
C13   C     C_R   0.915390 0.864602 0.128161 -0.125049
C14   C     C_R   0.063612 0.811165 0.129528 -0.156416
H7    H     H_    0.188725 0.805717 0.095480 0.127630
C15   C     C_R   0.050141 0.762649 0.173580 -0.153037
H8    H     H_    0.164862 0.720553 0.171114 0.100424
C16   C     C_R   0.890058 0.767598 0.218933 0.116162
H9    H     H_    0.575957 0.653174 0.920873 0.114055
C17   C     C_R   0.099119 0.894055 0.757782 -0.169100
C18   C     C_R   0.183880 0.903787 0.697577 -0.197669
C19   C     C_R   0.151068 0.847160 0.630933 -0.149765
C20   C     C_R   0.034313 0.779158 0.623356 0.348813
C21   C     C_R   0.963144 0.762560 0.685437 -0.043762
C22   C     C_R   0.990942 0.823621 0.753722 0.107147
C23   C     C_R   0.865263 0.688780 0.681941 -0.300789
C24   C     C_R   0.787803 0.679660 0.745868 0.120563
C25   C     C_R   0.805946 0.743237 0.812640 0.125817
C26   C     C_R   0.906784 0.815106 0.816429 -0.291335
C27   C     C_R   0.694815 0.606953 0.745139 -0.182640
C28   C     C_R   0.618103 0.598124 0.807527 -0.115024
C29   C     C_R   0.634299 0.660542 0.872368 -0.109946
C30   C     C_R   0.728288 0.732047 0.875331 -0.162746
H10   H     H_    0.120351 0.943261 0.807245 0.141892
H11   H     H_    0.268266 0.957576 0.702238 0.150195
H12   H     H_    0.207156 0.859099 0.584010 0.170357
H13   H     H_    0.681137 0.555539 0.696803 0.112761
H14   H     H_    0.547108 0.542189 0.805582 0.120517
H15   H     H_    0.741756 0.777700 0.927624 0.110768
H16   H     H_    0.050776 0.451597 0.183780 0.115621
C31   C     C_R   0.517624 0.232770 0.380697 -0.148118
C32   C     C_R   0.615331 0.163742 0.380461 -0.108774
C33   C     C_R   0.649431 0.102854 0.316017 -0.115629
C34   C     C_R   0.585687 0.110398 0.251287 -0.175992
C35   C     C_R   0.487543 0.180029 0.249539 0.121554
C36   C     C_R   0.453176 0.242873 0.315783 0.120375
C37   C     C_R   0.420211 0.186832 0.183535 -0.323862
C38   C     C_R   0.319785 0.257365 0.184266 0.121366
C39   C     C_R   0.285921 0.320333 0.250500 0.122670
C40   C     C_R   0.352745 0.313386 0.316513 -0.319178
C41   C     C_R   0.255126 0.267416 0.119361 -0.146266
C42   C     C_R   0.158133 0.336597 0.119573 -0.111132
C43   C     C_R   0.125081 0.397721 0.183977 -0.122063
C44   C     C_R   0.188886 0.390225 0.248723 -0.182814
H17   H     H_    0.491204 0.277476 0.432473 0.106090
H18   H     H_    0.663641 0.157238 0.430679 0.118942
H19   H     H_    0.724512 0.049132 0.316167 0.123664
H20   H     H_    0.614021 0.060855 0.202876 0.117371
H21   H     H_    0.280920 0.222568 0.067604 0.102856
H22   H     H_    0.109727 0.343066 0.069351 0.113816
H23   H     H_    0.161662 0.440077 0.297085 0.109628
C45   C     C_R   0.539250 0.319371 0.714655 -0.158394
H24   H     H_    0.673360 0.320999 0.743516 0.103339
C46   C     C_R   0.527850 0.364395 0.667700 -0.163210
H25   H     H_    0.654236 0.398196 0.661311 0.124787
C47   C     C_R   0.355375 0.366868 0.630496 -0.123784
C48   C     C_R   0.194687 0.322678 0.641276 -0.157782
H26   H     H_    0.059821 0.322843 0.613295 0.128593
C49   C     C_R   0.206849 0.276615 0.687510 -0.148602
H27   H     H_    0.081220 0.241885 0.692829 0.101487
C50   C     C_R   0.379297 0.274371 0.725156 0.112151
C51   C     C_R   0.230259 0.214957 0.814272 -0.152284
H28   H     H_    0.094043 0.242673 0.809921 0.101131
C52   C     C_R   0.242059 0.169286 0.860712 -0.167603
H29   H     H_    0.114022 0.162380 0.889707 0.130920
C53   C     C_R   0.416929 0.133968 0.870370 -0.131815
C54   C     C_R   0.579577 0.145166 0.832006 -0.150708
H30   H     H_    0.716063 0.118167 0.837554 0.125888
C55   C     C_R   0.567173 0.189908 0.784715 -0.150110
H31   H     H_    0.694545 0.195163 0.754789 0.100670
C56   C     C_R   0.392352 0.225783 0.775198 0.110512
O11   O     O_R   0.273230 0.084330 0.086440 -0.586364
O12   O     O_R   0.596660 0.069390 0.940470 -0.596443
O13   O     O_R   0.760270 0.915710 0.913690 -0.587002
C57   C     C_R   0.427678 0.084618 0.919116 0.913027
O14   O     O_R   0.603330 0.093680 0.087390 -0.590273
O15   O     O_R   0.766990 0.940160 0.061660 -0.602611
C58   C     C_R   0.434557 0.117160 0.115086 0.943163
O16   O     O_R   0.266510 0.059870 0.938470 -0.604849
O17   O     O_3   0.431050 0.949630 0.991510 -0.271161
V3    V     V_3+5 0.708490 0.009340 0.001580 1.153720
O18   O     O_R   0.096270 0.930570 0.059390 -0.595278
C59   C     C_R   0.927228 0.915106 0.080573 0.914367
O19   O     O_R   0.089600 0.906290 0.912460 -0.596121
C60   C     C_R   0.919661 0.882752 0.885503 0.933675
V4    V     V_3+5 0.207670 0.990600 0.998190 1.153761
O20   O     O_3   0.935250 0.050360 0.008480 -0.272180
N1    N     N_R   0.970679 0.735150 0.552205 0.205081
O21   O     O_R   0.093079 0.722752 0.499848 -0.431175
O22   O     O_R   0.786933 0.732900 0.537640 -0.433336

loop_
_geom_bond_atom_site_label_1
_geom_bond_atom_site_label_2
_geom_bond_distance
_ccdc_geom_bond_type
C27   H13   1.079693 S    
C49   H27   1.082189 S    
C35   C37   1.419195 A    
C11   C12   1.400011 A    
C20   C21   1.432310 A    
C37   C58   1.499616 S    
C41   H21   1.081719 S    
C54   H30   1.083219 S    
C1    O6    1.291626 A    
O19   V4    2.009992 S    
V4    O20   2.147412 S    
C18   H11   1.083172 S    
C48   H26   1.083106 S    
C33   H19   1.082792 S    
C31   C36   1.416031 A    
C12   H6    1.082808 S    
C50   C56   1.500630 S    
C5    C10   1.408968 A    
C36   C40   1.422621 A    
C4    C7    1.492126 S    
C6    C7    1.407155 A    
C9    C10   1.411064 A    
C39   C44   1.415712 A    
C44   H23   1.081056 S    
O5    C3    1.295219 A    
O14   V3    1.993869 S    
H16   C43   1.082813 S    
C38   C41   1.415950 A    
C42   H22   1.082627 S    
O12   V3    1.997882 S    
V2    O10   2.147530 S    
O18   V4    1.992576 S    
O17   V3    2.156763 S    
C15   H8    1.081608 S    
O17   V4    1.701146 S    
C45   C50   1.408569 A    
C28   C29   1.387525 A    
O18   C59   1.299803 A    
O8    V2    2.009867 S    
C6    H2    1.082745 S    
C42   C43   1.389263 A    
C30   H15   1.081335 S    
O7    V1    2.156813 S    
C31   H17   1.081689 S    
C2    C47   1.489743 S    
O15   C59   1.295496 A    
C31   C32   1.393147 A    
O12   C57   1.301811 A    
O9    C4    1.301190 A    
C34   H20   1.080267 S    
C41   C42   1.393183 A    
C21   C23   1.437028 A    
O14   C58   1.304938 A    
O19   C60   1.296231 A    
C55   C56   1.410777 A    
C55   H31   1.082206 S    
C48   C49   1.402629 A    
C39   C40   1.419197 A    
O11   V4    2.010807 S    
C9    H4    1.081547 S    
C45   C46   1.399916 A    
C18   C19   1.378997 A    
C1    C40   1.498997 S    
C29   C30   1.392018 A    
C24   C25   1.423620 A    
C25   C30   1.417167 A    
C17   C22   1.418585 A    
C32   C33   1.389116 A    
C14   C15   1.401440 A    
O2    C1    1.304770 A    
O16   V4    1.986799 S    
C34   C35   1.415257 A    
C51   C52   1.400477 A    
C13   C14   1.404425 A    
C52   C53   1.406973 A    
C5    H1    1.081325 S    
C53   C54   1.405694 A    
C47   C48   1.405926 A    
O3    C4    1.298153 A    
O1    V2    1.991807 S    
C10   C16   1.502259 S    
C19   C20   1.401505 A    
C53   C57   1.488895 S    
C46   H25   1.083007 S    
O6    V2    2.005063 S    
C46   C47   1.407250 A    
C49   C50   1.410845 A    
C8    C9    1.401956 A    
C21   C22   1.430120 A    
C20   N1    1.425740 S    
O2    V1    1.993891 S    
C51   C56   1.408853 A    
C23   C24   1.424181 A    
O4    C2    1.302166 A    
C24   C27   1.419444 A    
C26   C60   1.486361 S    
O15   V3    1.994169 S    
C25   C26   1.415975 A    
C27   C28   1.392371 A    
O1    C2    1.296587 A    
O11   C58   1.291814 A    
C45   H24   1.082203 S    
O5    V1    1.996242 S    
O8    C3    1.300450 A    
C54   C55   1.402084 A    
C11   C16   1.409962 A    
C28   H14   1.082885 S    
C19   H12   1.083189 S    
C14   H7    1.083205 S    
O9    V2    1.992628 S    
O7    V2    1.701319 S    
O4    V1    1.997889 S    
C3    C23   1.496565 S    
O3    V1    1.994236 S    
V1    O10   1.707545 S    
H9    C29   1.082621 S    
C51   H28   1.082211 S    
C17   C18   1.382225 A    
C32   H18   1.082604 S    
C52   H29   1.083185 S    
C5    C6    1.399048 A    
N1    O22   1.301212 A    
N1    O21   1.300466 A    
C38   C39   1.429488 A    
C15   C16   1.411455 A    
C33   C34   1.392720 A    
V3    O20   1.707569 S    
C35   C36   1.429201 A    
C43   C44   1.392804 A    
C17   H10   1.078326 S    
C12   C13   1.405389 A    
C37   C38   1.422888 A    
C11   H5    1.081693 S    
O13   C60   1.292691 A    
C13   C59   1.485930 S    
C8    H3    1.082759 S    
O13   V3    1.996104 S    
C57   O16   1.296537 A    
C7    C8    1.405978 A    
C22   C26   1.416517 A    
