data_mof_unit_10137.cif
_audit_creation_date              2012-10-26T20:25:37-0400
_audit_creation_method            fapswitch 2.2
_symmetry_space_group_name_H-M    P1
_symmetry_Int_Tables_number       1
_space_group_crystal_system       triclinic
_cell_length_a                    23.456713
_cell_length_b                    10.664335
_cell_length_c                    9.519009
_cell_angle_alpha                 90.287056
_cell_angle_beta                  87.517591
_cell_angle_gamma                 91.300795
_cell_volume                      2378.31545948

loop_
_atom_site_label
_atom_site_type_symbol
_atom_type_description
_atom_site_fract_x
_atom_site_fract_y
_atom_site_fract_z
_atom_type_partial_charge
C1    C     C_R   0.501586 0.260142 0.499505 0.608132
C2    C     C_R   0.702510 0.610672 0.465072 0.202399
C3    C     C_R   0.237277 0.389968 0.540685 0.259837
C4    C     C_R   0.762599 0.610537 0.458234 0.260419
C5    C     C_R   0.209409 0.502683 0.512146 0.133090
C6    C     C_R   0.790604 0.498230 0.487990 0.131162
C7    C     C_3   0.511369 0.042119 0.628247 0.218694
C8    C     C_3   0.488824 0.957917 0.371803 0.218734
C9    C     C_3   0.550645 0.956422 0.537656 -0.119109
C10   C     C_3   0.449537 0.043586 0.462408 -0.120605
C11   C     C_3   0.497631 0.876392 0.501323 -0.060569
C12   C     C_R   0.498488 0.739871 0.500498 0.608483
C13   C     C_3   0.502544 0.123632 0.498730 -0.060275
C14   C     C_3   0.458931 0.961224 0.592268 0.211366
C15   C     C_3   0.541258 0.038815 0.407817 0.211539
C16   C     C_R   0.391420 0.500160 0.502264 0.619489
C17   C     C_R   0.608581 0.499900 0.497744 0.621114
C18   C     C_3   0.549129 0.532323 0.042712 0.284469
C19   C     C_3   0.450857 0.467630 0.957287 0.263428
C20   C     C_3   0.512441 0.609504 0.949952 0.303854
C21   C     C_3   0.487551 0.390470 0.050048 0.290673
C22   C     C_3   0.536992 0.422343 0.943516 -0.011027
C23   C     C_R   0.241275 0.612633 0.478660 0.276956
C24   C     C_3   0.463016 0.577662 0.056475 -0.017770
C25   C     C_R   0.877083 0.530101 0.612460 0.487986
C26   C     C_R   0.122951 0.471101 0.387547 0.488086
C27   C     C_R   0.882693 0.460810 0.373293 0.505629
C28   C     C_R   0.117356 0.541310 0.626392 0.516942
C29   C     C_R   0.943029 0.461901 0.372468 0.051110
C30   C     C_R   0.057019 0.540301 0.627188 0.052103
C31   C     C_R   0.969897 0.499130 0.497403 -0.065803
C32   C     C_R   0.030148 0.502871 0.502325 -0.065333
C33   C     C_R   0.936612 0.532725 0.617835 0.007203
C34   C     C_R   0.758845 0.388374 0.522497 0.279239
C35   C     C_R   0.063430 0.468999 0.381989 0.006356
C36   C     C_R   0.977608 0.428621 0.252553 0.262869
C37   C     C_R   0.022441 0.573633 0.747081 0.260482
C38   C     C_R   0.036865 0.432617 0.258833 -0.027368
C39   C     C_R   0.963180 0.569290 0.740926 -0.027019
C40   C     C_R   0.300979 0.611634 0.474492 0.211241
C41   C     C_R   0.699131 0.389048 0.526499 0.209448
C42   C     C_R   0.328968 0.501028 0.506399 -0.018375
C43   C     C_R   0.671034 0.499291 0.493658 -0.019480
C44   C     C_R   0.297394 0.389578 0.533951 0.198183
Cl1   Cl    Cl    0.950678 0.380928 0.089853 -0.403294
Cl2   Cl    Cl    0.666070 0.752776 0.451919 -0.406280
Cl3   Cl    Cl    0.530602 0.095199 0.798082 -0.317200
Cl4   Cl    Cl    0.469661 0.904910 0.201885 -0.322098
Cl5   Cl    Cl    0.049376 0.621534 0.909698 -0.398434
Cl6   Cl    Cl    0.531651 0.763489 0.890204 -0.319984
Cl7   Cl    Cl    0.468766 0.236268 0.109679 -0.371250
Cl8   Cl    Cl    0.205667 0.751387 0.438912 -0.338774
Cl9   Cl    Cl    0.794599 0.250097 0.563338 -0.386530
Cl10  Cl    Cl    0.340731 0.747443 0.421823 -0.398259
Cl11  Cl    Cl    0.659501 0.253240 0.579752 -0.403956
Cl12  Cl    Cl    0.333808 0.247288 0.545557 -0.409480
Cu1   Cu    Cu3+1 0.500010 0.499990 0.643150 1.202542
Cu2   Cu    Cu3+1 0.499990 0.500010 0.356850 1.197953
H1    H     H_    0.568480 0.358021 0.893478 0.213322
H2    H     H_    0.805556 0.936237 0.512811 0.408431
H3    H     H_    0.310222 0.932114 0.724067 0.407797
H4    H     H_    0.690080 0.068742 0.277095 0.404538
H5    H     H_    0.431542 0.642018 0.106516 0.214037
H6    H     H_    0.062252 0.406548 0.165863 0.229123
H7    H     H_    0.937791 0.595239 0.833937 0.229000
H8    H     H_    0.591715 0.921817 0.573333 0.253354
H9    H     H_    0.408465 0.078114 0.426684 0.250045
H10   H     H_    0.692565 0.658271 0.964413 0.405026
H11   H     H_    0.343304 0.283236 0.065803 0.403673
H12   H     H_    0.111348 0.182775 0.621356 0.392662
N1    N     N_R   0.851657 0.496189 0.491254 -0.369005
N2    N     N_R   0.148375 0.505054 0.508742 -0.363485
N3    N     N_3   0.500040 0.499970 0.858290 -0.325715
N4    N     N_3   0.499960 0.500030 0.141710 -0.324610
O1    O     O_R   0.500030 0.316850 0.620870 -0.460271
O2    O     O_2   0.155405 0.438566 0.273127 -0.393381
O3    O     O_2   0.854745 0.426411 0.258051 -0.345807
O4    O     O_2   0.145313 0.576221 0.741443 -0.338850
O5    O     O_2   0.615047 0.694617 0.181235 -0.169903
O6    O     O_2   0.650496 0.479281 0.150782 -0.232830
O7    O     O_3   0.654934 0.626527 0.934654 -0.456353
O8    O     O_2   0.349616 0.521945 0.848801 -0.195707
O9    O     O_2   0.384163 0.306615 0.818227 -0.187958
O10   O     O_3   0.344231 0.376130 0.065283 -0.452609
O11   O     O_2   0.206158 0.160287 0.456298 -0.154868
O12   O     O_R   0.499970 0.683150 0.379130 -0.460020
O13   O     O_2   0.222139 0.188510 0.706802 -0.148154
O14   O     O_3   0.128169 0.268499 0.611821 -0.519266
O15   O     O_2   0.864258 0.734598 0.394810 -0.254986
O16   O     O_2   0.778849 0.805744 0.283899 -0.168646
O17   O     O_3   0.789645 0.855134 0.548707 -0.405156
O18   O     O_2   0.400029 0.777511 0.735960 -0.220218
O19   O     O_2   0.410642 0.980473 0.854413 -0.117145
O20   O     O_3   0.339672 0.962179 0.653671 -0.394058
O21   O     O_2   0.589952 0.019082 0.146185 -0.105604
O22   O     O_2   0.599981 0.222594 0.263808 -0.217164
O23   O     O_R   0.500000 0.316860 0.379090 -0.444375
O24   O     O_3   0.660599 0.038894 0.347540 -0.402792
O25   O     O_R   0.500000 0.683140 0.620910 -0.445625
O26   O     O_R   0.417890 0.499960 0.620920 -0.428827
O27   O     O_R   0.582110 0.500040 0.379080 -0.428196
O28   O     O_R   0.417870 0.499970 0.379140 -0.484086
O29   O     O_R   0.582130 0.500030 0.620860 -0.480762
O30   O     O_2   0.844620 0.562161 0.727045 -0.401778
S1    S     S_3+6 0.619224 0.583502 0.084377 0.132857
S2    S     S_3+6 0.380570 0.417532 0.915652 0.139975
S3    S     S_3+6 0.198354 0.247803 0.579564 0.156773
S4    S     S_3+6 0.801142 0.752518 0.416278 0.148809
S5    S     S_3+6 0.402019 0.917071 0.715399 0.166246
S6    S     S_3+6 0.598252 0.083107 0.284995 0.169604

loop_
_geom_bond_atom_site_label_1
_geom_bond_atom_site_label_2
_ccdc_geom_bond_type
C14   S5    S    
O24   S6    S    
C27   C29   A    
C26   N2    A    
H12   O14   S    
C17   C43   S    
C23   Cl8   S    
C10   H9    S    
C2    Cl2   S    
C34   C41   A    
C29   C36   A    
C33   C39   A    
H10   O7    S    
C19   C21   S    
C5    N2    S    
C11   C14   S    
O18   S5    D    
C23   C40   A    
Cu1   O25   S    
O5    S1    D    
Cu1   N3    S    
C17   O27   A    
C9    H8    S    
C41   Cl11  S    
C12   O25   A    
C20   Cl6   S    
H4    O24   S    
C7    C14   S    
C20   C24   S    
O10   S2    S    
C31   C33   A    
C25   N1    A    
C28   O4    S    
C41   C43   A    
C40   C42   A    
C18   N4    S    
C21   C22   S    
C39   H7    S    
C15   S6    S    
C28   N2    A    
Cu2   O23   S    
C42   C44   A    
Cu2   O12   S    
C38   H6    S    
C6    N1    S    
Cu1   O29   S    
O7    S1    S    
C3    C44   A    
C1    O1    A    
C32   C35   A    
C19   N3    S    
C35   C38   A    
C4    C6    A    
C10   C14   S    
C1    O23   A    
C22   H1    S    
O14   S3    S    
H3    O20   S    
C16   O26   A    
C3    S3    S    
Cu1   O26   S    
O22   S6    D    
O6    S1    D    
O21   S6    D    
C6    C34   A    
C30   C37   A    
C7    Cl3   S    
C2    C4    A    
C8    Cl4   S    
C37   Cl5   S    
C44   Cl12  S    
C26   O2    S    
C31   C32   A    
C5    C23   A    
C2    C43   A    
C36   Cl1   S    
Cu2   O27   S    
C9    C11   S    
Cu2   O28   S    
C16   O28   A    
C8    C15   S    
C40   Cl10  S    
C13   C15   S    
C1    C13   S    
C16   C42   S    
C21   Cl7   S    
C27   N1    A    
Cu2   N4    S    
H2    O17   S    
C7    C9    S    
C18   C22   S    
O17   S4    S    
C8    C10   S    
C3    C5    A    
C10   C13   S    
C11   C12   S    
C25   O30   S    
C24   H5    S    
O20   S5    S    
O9    S2    D    
C12   O12   A    
Cu1   O1    S    
C28   C30   A    
C19   C24   S    
C9    C15   S    
C18   S1    S    
O16   S4    D    
C29   C31   A    
H11   O10   S    
C30   C32   A    
C24   N4    S    
Cu1   Cu2   S    
C8    C11   S    
C21   N4    S    
O15   S4    D    
C36   C38   A    
C20   N3    S    
C18   C20   S    
O8    S2    D    
C17   O29   A    
C19   S2    S    
C26   C35   A    
C7    C13   S    
O13   S3    D    
C34   Cl9   S    
C37   C39   A    
O19   S5    D    
C27   O3    S    
C4    S4    S    
C22   N3    S    
O11   S3    D    
C25   C33   A    
