data_mof_unit_18265.cif
_audit_creation_date              2012-12-11T16:58:16-0500
_audit_creation_method            fapswitch 2.2
_symmetry_space_group_name_H-M    P1
_symmetry_Int_Tables_number       1
_space_group_crystal_system       triclinic
_cell_length_a                    16.946966
_cell_length_b                    7.259008
_cell_length_c                    16.773373
_cell_angle_alpha                 89.981066
_cell_angle_beta                  100.270622
_cell_angle_gamma                 90.017107
_cell_volume                      2030.36616114

loop_
_atom_site_label
_atom_site_type_symbol
_atom_type_description
_atom_site_fract_x
_atom_site_fract_y
_atom_site_fract_z
_atom_type_partial_charge
O1    O     O_R   0.413450 0.494370 0.415710 -0.534440
O2    O     O_R   0.586550 0.994370 0.584290 -0.535396
O3    O     O_R   0.578420 0.819350 0.429360 -0.540371
O4    O     O_R   0.421580 0.319350 0.570640 -0.540658
C1    C     C_R   0.605062 0.656948 0.414069 0.700793
C2    C     C_R   0.394915 0.156863 0.585890 0.700516
O5    O     O_R   0.413570 0.823780 0.406240 -0.541175
O6    O     O_R   0.586430 0.323780 0.593760 -0.541584
O7    O     O_R   0.420530 0.998740 0.561000 -0.535424
O8    O     O_R   0.579470 0.498740 0.439000 -0.535245
C3    C     C_R   0.386369 0.655201 0.383343 0.686553
C4    C     C_R   0.614086 0.155376 0.616138 0.685636
O9    O     O_3   0.502480 0.662320 0.550800 -0.378229
O10   O     O_3   0.497520 0.162320 0.449200 -0.376736
V1    V     V_3+5 0.499540 0.935370 0.490580 1.391218
V2    V     V_3+5 0.500460 0.435370 0.509420 1.389783
C5    C     C_R   0.734464 0.990626 0.694569 0.111953
C6    C     C_R   0.282168 0.475748 0.288509 0.121362
C7    C     C_R   0.685242 0.147096 0.682264 -0.109613
C8    C     C_R   0.320437 0.643678 0.311905 -0.108361
C9    C     C_R   0.708828 0.300022 0.732706 -0.188570
C10   C     C_R   0.295710 0.798281 0.262677 -0.189643
H1    H     H_    0.674108 0.425629 0.725006 0.145361
H2    H     H_    0.325666 0.929568 0.275113 0.136298
C11   C     C_R   0.774642 0.288779 0.797141 -0.182975
C12   C     C_R   0.229855 0.786820 0.198145 -0.185489
H3    H     H_    0.788245 0.406878 0.836503 0.138059
H4    H     H_    0.211775 0.909978 0.163238 0.134439
C13   C     C_R   0.819010 0.123941 0.813438 -0.108228
C14   C     C_R   0.186572 0.620495 0.180911 -0.107012
C15   C     C_R   0.799348 0.979255 0.758260 0.115138
C16   C     C_R   0.217306 0.464333 0.224874 0.109506
C17   C     C_3   0.784162 0.780620 0.772315 -0.424415
C18   C     C_3   0.175873 0.324708 0.268176 -0.413638
C19   C     C_3   0.713346 0.792965 0.702659 -0.408498
C20   C     C_3   0.246786 0.337120 0.337725 -0.412705
H5    H     H_    0.766181 0.755333 0.831984 0.169257
H6    H     H_    0.171077 0.188828 0.237221 0.174341
H7    H     H_    0.833300 0.691307 0.758592 0.177766
H8    H     H_    0.118989 0.377421 0.283955 0.170848
H9    H     H_    0.654380 0.774625 0.721997 0.173341
H10   H     H_    0.282793 0.208460 0.346770 0.173061
H11   H     H_    0.721772 0.710813 0.648880 0.170763
H12   H     H_    0.231077 0.397019 0.393893 0.164453
C21   C     C_R   0.331417 0.160872 0.636698 -0.062677
C22   C     C_R   0.668459 0.661266 0.363127 -0.064101
C23   C     C_R   0.167787 0.108686 0.863150 -0.061049
C24   C     C_R   0.832226 0.608323 0.136864 -0.061778
C25   C     C_R   0.275176 0.934259 0.817768 -0.191658
C26   C     C_R   0.725438 0.432849 0.182925 -0.191945
C27   C     C_R   0.221709 0.958990 0.871379 -0.158775
C28   C     C_R   0.778793 0.457667 0.129202 -0.160496
C29   C     C_R   0.169826 0.236646 0.800683 -0.238524
C30   C     C_R   0.829738 0.737195 0.198817 -0.239325
C31   C     C_R   0.223140 0.211284 0.745723 0.154670
C32   C     C_R   0.776511 0.711811 0.253863 0.154850
C33   C     C_R   0.275968 0.058175 0.754004 0.155885
C34   C     C_R   0.724230 0.557702 0.246206 0.156020
C35   C     C_R   0.329282 0.032780 0.699064 -0.239941
C36   C     C_R   0.671033 0.532247 0.301269 -0.239264
C37   C     C_R   0.277588 0.310699 0.628466 -0.160702
C38   C     C_R   0.721738 0.812160 0.370707 -0.160588
C39   C     C_R   0.224010 0.335310 0.681991 -0.190173
C40   C     C_R   0.775200 0.836838 0.317072 -0.191142
H13   H     H_    0.371066 0.918349 0.706809 0.120054
H14   H     H_    0.629681 0.416966 0.294007 0.121478
H15   H     H_    0.277893 0.411639 0.580901 0.121245
H16   H     H_    0.721098 0.913901 0.417843 0.124583
H17   H     H_    0.315222 0.816680 0.825662 0.120287
H18   H     H_    0.685807 0.314499 0.175497 0.120640
H19   H     H_    0.183997 0.452947 0.674108 0.120270
H20   H     H_    0.814773 0.955290 0.324459 0.120540
H21   H     H_    0.221591 0.858166 0.919017 0.125591
H22   H     H_    0.779217 0.356142 0.081942 0.125200
H23   H     H_    0.128031 0.351051 0.792925 0.122232
H24   H     H_    0.871124 0.852410 0.206124 0.122653
O11   O     O_R   0.920630 0.775410 0.061150 -0.533309
O12   O     O_R   0.079370 0.275410 0.938850 -0.533041
O13   O     O_R   0.086500 0.441450 0.093690 -0.536087
O14   O     O_R   0.913500 0.941450 0.906310 -0.536303
C41   C     C_R   0.114510 0.610090 0.115738 0.685868
C42   C     C_R   0.885967 0.110274 0.883804 0.684928
O15   O     O_R   0.921670 0.445960 0.070740 -0.540244
O16   O     O_R   0.078330 0.945960 0.929260 -0.539930
O17   O     O_R   0.913380 0.271130 0.915780 -0.539711
O18   O     O_R   0.086620 0.771130 0.084220 -0.539277
C43   C     C_R   0.895594 0.612775 0.085828 0.685755
C44   C     C_R   0.104386 0.112864 0.914150 0.688535
O19   O     O_3   0.997500 0.603030 0.949220 -0.376011
O20   O     O_3   0.002500 0.103030 0.050780 -0.376076
V3    V     V_3+5 0.000470 0.329940 0.009420 1.394515
V4    V     V_3+5 0.999530 0.829940 0.990580 1.394290

loop_
_geom_bond_atom_site_label_1
_geom_bond_atom_site_label_2
_ccdc_geom_bond_type
O15   C43   A    
O11   V4    S    
O4    V2    S    
C2    C21   S    
C20   H10   S    
O1    C3    A    
O2    C4    A    
C2    O7    A    
O17   V3    S    
C24   C30   A    
C17   H7    S    
C22   C38   A    
C18   H8    S    
C7    C9    A    
C28   H22   S    
C33   C35   A    
C34   C36   A    
C25   C33   A    
C37   C39   A    
C38   C40   A    
C17   C19   S    
C25   C27   A    
C31   C39   A    
C26   C28   A    
C32   C40   A    
C19   H11   S    
O13   V3    S    
C41   O18   A    
C23   C29   A    
O5    V1    S    
C36   H14   S    
O6    V2    S    
C25   H17   S    
C29   H23   S    
C29   C31   A    
C11   C13   A    
C30   C32   A    
C3    C8    S    
C26   C34   A    
O16   C44   A    
O4    C2    A    
O13   C41   A    
C23   C27   A    
C17   H5    S    
C16   C18   S    
O14   V4    S    
O5    C3    A    
C37   H15   S    
C24   C28   A    
O6    C4    A    
C15   C17   S    
C24   C43   S    
O1    V2    S    
O19   V4    S    
O16   V4    S    
O2    V1    S    
C30   H24   S    
O14   C42   A    
C39   H19   S    
C12   C14   A    
C31   C33   A    
C5    C15   A    
C10   H2    S    
C20   H12   S    
C6    C16   A    
O3    V1    S    
O12   C44   A    
C9    C11   A    
C21   C35   A    
C22   C36   A    
C18   H6    S    
C27   H21   S    
C8    C10   A    
O3    C1    A    
O12   V3    S    
C11   H3    S    
C42   O17   A    
O15   V3    S    
C1    C22   S    
C12   H4    S    
C38   H16   S    
C23   C44   S    
C14   C41   S    
C9    H1    S    
C26   H18   S    
C1    O8    A    
C13   C15   A    
O8    V2    S    
C35   H13   S    
C14   C16   A    
O20   V3    S    
C4    C7    S    
C21   C37   A    
C5    C7    A    
C18   C20   S    
C32   C34   A    
C6    C8    A    
C40   H20   S    
O7    V1    S    
C19   H9    S    
C13   C42   S    
O11   C43   A    
C10   C12   A    
O9    V2    S    
O10   V1    S    
O18   V4    S    
C5    C19   S    
C6    C20   S    
