data_mof_unit_24229.cif
_audit_creation_date              2013-03-05T16:06:19-0500
_audit_creation_method            fapswitch 2.2
_symmetry_space_group_name_H-M    P1
_symmetry_Int_Tables_number       1
_space_group_crystal_system       triclinic
_cell_length_a                    10.920154
_cell_length_b                    9.502423
_cell_length_c                    27.729242
_cell_angle_alpha                 90.515781
_cell_angle_beta                  90.543851
_cell_angle_gamma                 90.263054
_cell_volume                      2877.12816199

loop_
_atom_site_label
_atom_site_type_symbol
_atom_site_description
_atom_site_fract_x
_atom_site_fract_y
_atom_site_fract_z
_atom_type_partial_charge
O1    O     O_R   0.319640 0.618740 0.500000 -0.550522
O2    O     O_R   0.680360 0.381260 0.500000 -0.571809
O3    O     O_R   0.680360 0.618740 0.500000 -0.534604
O4    O     O_R   0.319640 0.381260 0.500000 -0.546819
C1    C     C_R   0.261682 0.499709 0.500013 0.892779
C2    C     C_R   0.737568 0.500207 0.499982 0.904423
O5    O     O_R   0.500020 0.618770 0.430260 -0.568848
O6    O     O_R   0.499980 0.381230 0.569740 -0.599254
O7    O     O_R   0.499980 0.618770 0.569740 -0.544952
O8    O     O_R   0.500020 0.381230 0.430260 -0.584080
C3    C     C_R   0.499626 0.499526 0.407402 0.840032
C4    C     C_R   0.507839 0.500531 0.592473 0.838491
Cu1   Cu    Cu3+1 0.500000 0.640660 0.500000 1.052960
Cu2   Cu    Cu3+1 0.500000 0.359340 0.500000 1.019032
C5    C     C_R   0.423247 0.521047 0.173871 0.585340
C6    C     C_R   0.665086 0.492956 0.823018 0.592616
O9    O     O_2   0.322433 0.568016 0.196390 -0.474154
O10   O     O_2   0.765122 0.534846 0.798940 -0.461985
N1    N     N_R   0.526266 0.493040 0.200803 -0.457850
N2    N     N_R   0.560501 0.461204 0.797358 -0.460923
C7    C     C_R   0.633830 0.456479 0.179164 0.581284
C8    C     C_R   0.456780 0.416286 0.819808 0.576698
C9    C     C_R   0.602476 0.576179 0.280549 -0.107950
C10   C     C_R   0.472832 0.573814 0.725765 -0.114389
C11   C     C_R   0.597254 0.575718 0.330874 0.209921
C12   C     C_R   0.458604 0.583414 0.675983 0.211094
C13   C     C_R   0.416849 0.423208 0.326188 0.158282
C14   C     C_R   0.626133 0.416077 0.665295 0.187369
C15   C     C_R   0.428318 0.418823 0.276045 -0.090388
C16   C     C_R   0.633348 0.402525 0.715732 -0.088249
C17   C     C_R   0.519322 0.496247 0.252801 0.213465
C18   C     C_R   0.556714 0.480166 0.745900 0.220648
C19   C     C_R   0.534795 0.467954 0.100634 -0.096508
C20   C     C_R   0.557817 0.443834 0.897506 -0.095039
C21   C     C_R   0.422957 0.502349 0.123190 -0.078610
C22   C     C_R   0.667292 0.483044 0.874077 -0.079515
C23   C     C_R   0.316492 0.517514 0.094019 0.294830
C24   C     C_R   0.772231 0.514287 0.902869 0.292210
C25   C     C_R   0.641140 0.448275 0.128781 -0.052483
C26   C     C_R   0.452588 0.410244 0.870104 -0.058071
C27   C     C_R   0.504517 0.498757 0.354337 -0.155612
C28   C     C_R   0.531123 0.500350 0.645040 -0.163291
H1    H     H_    0.363968 0.356349 0.254837 0.182406
H2    H     H_    0.697834 0.330385 0.731874 0.170409
C29   C     C_R   0.437995 0.424085 0.971615 0.023037
C30   C     C_R   0.655458 0.436982 0.027048 0.036491
C31   C     C_R   0.660802 0.454453 0.976237 0.011341
C32   C     C_R   0.432030 0.454237 0.021851 0.017010
C33   C     C_R   0.552377 0.440129 0.948499 0.021370
C34   C     C_R   0.540733 0.453012 0.049807 0.021815
C35   C     C_R   0.335433 0.379273 0.943495 0.216642
C36   C     C_R   0.759217 0.404615 0.056072 0.229157
C37   C     C_R   0.344992 0.370584 0.893290 -0.157147
C38   C     C_R   0.751370 0.413541 0.106322 -0.168759
O11   O     O_2   0.357228 0.378726 0.793349 -0.506771
O12   O     O_2   0.733199 0.425737 0.206342 -0.508627
C39   C     C_R   0.322475 0.493296 0.044459 -0.198805
C40   C     C_R   0.768846 0.495505 0.952819 -0.207020
H3    H     H_    0.415233 0.636255 0.749188 0.189464
H4    H     H_    0.672538 0.637671 0.262971 0.198463
H5    H     H_    0.266897 0.334142 0.872267 0.206987
H6    H     H_    0.831777 0.389101 0.127816 0.208740
H7    H     H_    0.240809 0.513613 0.023613 0.206292
H8    H     H_    0.849805 0.523671 0.973516 0.196543
C41   C     C_R   0.060818 0.389964 0.476394 0.194348
C42   C     C_R   0.935714 0.602486 0.526980 0.196521
C43   C     C_R   0.933363 0.397177 0.473200 0.239579
C44   C     C_R   0.063170 0.608558 0.524151 0.248164
C45   C     C_R   0.870722 0.500291 0.499952 -0.261842
C46   C     C_R   0.127170 0.499274 0.500199 -0.280839
C47   C     C_R   0.441620 0.073092 0.464237 0.063060
C48   C     C_R   0.558882 0.926812 0.535652 0.068988
C49   C     C_R   0.559151 0.075630 0.535594 0.032445
C50   C     C_R   0.441005 0.924290 0.464368 0.055140
H9    H     H_    0.395550 0.127892 0.435410 0.148129
H10   H     H_    0.605614 0.871865 0.564318 0.167567
H11   H     H_    0.606887 0.132437 0.564052 0.140325
H12   H     H_    0.393300 0.867320 0.435901 0.138735
N3    N     N_R   0.500000 0.852070 0.500000 -0.175869
N4    N     N_R   0.500000 0.147930 0.500000 -0.175979
N5    N     N_2   0.313117 0.356354 0.346862 -0.430507
H13   H     H_    0.323955 0.322267 0.381645 0.282157
C51   C     C_3   0.199027 0.430396 0.339355 -0.533030
H14   H     H_    0.121605 0.365604 0.352422 0.272089
H15   H     H_    0.182956 0.450310 0.300391 0.255531
H16   H     H_    0.200615 0.532073 0.359513 0.213369
N6    N     N_2   0.714505 0.345753 0.635775 -0.436829
H17   H     H_    0.702474 0.353481 0.599129 0.258059
C52   C     C_3   0.842004 0.367024 0.649066 -0.553586
H18   H     H_    0.901488 0.316140 0.621753 0.233168
H19   H     H_    0.863212 0.318383 0.684346 0.244614
H20   H     H_    0.864125 0.481261 0.650480 0.259010
Br1   Br    Br    0.156252 0.565833 0.117406 -0.439902
Br2   Br    Br    0.922670 0.590762 0.878396 -0.447604
Br3   Br    Br    0.334532 0.708340 0.653135 -0.377980
Br4   Br    Br    0.722519 0.677822 0.365796 -0.411284
N7    N     N_2   0.228213 0.325778 0.965686 -0.455220
H21   H     H_    0.226125 0.217453 0.967408 0.269826
C53   C     C_3   0.113980 0.385746 0.949203 -0.646756
H22   H     H_    0.042140 0.362983 0.975654 0.252977
H23   H     H_    0.085586 0.338984 0.913984 0.253406
H24   H     H_    0.122390 0.501927 0.946230 0.264724
N8    N     N_2   0.866352 0.344445 0.035808 -0.461975
H25   H     H_    0.944637 0.359923 0.056357 0.280668
C54   C     C_3   0.851299 0.198980 0.020783 -0.643142
H26   H     H_    0.937945 0.159497 0.005155 0.233997
H27   H     H_    0.778154 0.188959 0.992840 0.244132
H28   H     H_    0.827768 0.132682 0.052228 0.240522
Br5   Br    Br    0.138540 0.227593 0.447591 -0.454607
Br6   Br    Br    0.852668 0.728782 0.571050 -0.440407
Br7   Br    Br    0.846870 0.270477 0.429221 -0.349338
Br8   Br    Br    0.144669 0.768377 0.554255 -0.299153

loop_
_geom_bond_atom_site_label_1
_geom_bond_atom_site_label_2
_geom_bond_distance
_ccdc_geom_bond_type
C35   N7    1.421902 S    
C2    C45   1.454067 S    
C42   C44   1.395749 A    
N6    H17   1.026700 S    
Cu1   N3    2.008907 S    
C36   N8    1.422752 S    
C13   C15   1.397489 A    
C48   H10   1.080338 S    
O3    C2    1.290506 A    
N1    C17   1.444631 S    
N7    H21   1.031049 S    
C32   C39   1.405761 A    
C31   C33   1.411153 A    
O5    C3    1.293320 A    
C54   H27   1.110715 S    
C19   C25   1.407178 A    
O1    C1    1.293585 A    
C21   C23   1.418642 A    
C10   C12   1.391499 A    
C48   N3    1.366131 A    
C25   C38   1.399967 A    
C29   C35   1.420138 A    
C41   C46   1.418208 A    
C30   C36   1.420033 A    
C44   Br8   1.935424 S    
O7    Cu1   1.946855 S    
C4    C28   1.477306 S    
N5    C51   1.447872 S    
C24   C40   1.398934 A    
C37   H5    1.082258 S    
C51   H14   1.109146 S    
C41   C43   1.395842 A    
Cu2   N4    2.008908 S    
C52   H19   1.108658 S    
O3    Cu1   1.981493 S    
O6    C4    1.294252 A    
C32   C34   1.411729 A    
Cu1   Cu2   2.673222 S    
C15   H1    1.083575 S    
C16   H2    1.081728 S    
O2    C2    1.288932 A    
C5    C21   1.414920 A    
C47   N4    1.366277 A    
N7    C53   1.445738 S    
C36   C38   1.398674 A    
C39   H7    1.077269 S    
C40   H8    1.080770 S    
C9    H4    1.082807 S    
C54   H28   1.111682 S    
C47   H9    1.079582 S    
C13   N5    1.423960 S    
O8    Cu2   1.946855 S    
C11   C27   1.413488 A    
C48   C49   1.414133 A    
C38   H6    1.083776 S    
C19   C34   1.417396 A    
N5    H13   1.026158 S    
C43   C45   1.407463 A    
C9    C17   1.401212 A    
C5    N1    1.372767 A    
C10   C18   1.396208 A    
C1    C46   1.468931 S    
C47   C50   1.414007 A    
C13   C27   1.417945 A    
C53   H22   1.101102 S    
C7    C25   1.401613 A    
C29   C33   1.417560 A    
C6    N2    1.370848 A    
C8    C26   1.397540 A    
C24   Br2   1.925231 S    
C14   N6    1.434919 S    
C51   H16   1.111827 S    
C23   Br1   1.927927 S    
N8    C54   1.448283 S    
C42   Br6   1.939250 S    
C52   H20   1.111268 S    
C41   Br5   1.934309 S    
C43   Br7   1.941689 S    
C51   H15   1.111010 S    
N2    C8    1.366135 A    
C50   N3    1.366173 A    
N6    C52   1.449669 S    
C20   C26   1.405497 A    
O1    Cu1   1.979591 S    
C22   C24   1.419151 A    
C12   C28   1.411676 A    
N2    C18   1.440077 S    
C29   C32   1.421797 A    
C12   Br3   1.912674 S    
C5    O9    1.346719 S    
C30   C31   1.421906 A    
C20   C33   1.416550 A    
O6    Cu2   1.943132 S    
C53   H23   1.110183 S    
O4    C1    1.293829 A    
C7    O12   1.349865 S    
C8    O11   1.350592 S    
C54   H26   1.109932 S    
C30   C34   1.416347 A    
C14   C16   1.407144 A    
C15   C17   1.399394 A    
C6    C22   1.419764 A    
C31   C40   1.407420 A    
C16   C18   1.397236 A    
C10   H3    1.083420 S    
C14   C28   1.427533 A    
C19   C21   1.415637 A    
C49   N4    1.366599 A    
C3    C27   1.472885 S    
C20   C22   1.416017 A    
C9    C11   1.397219 A    
O4    Cu2   1.981493 S    
O2    Cu2   1.979591 S    
O7    C4    1.296035 A    
O8    C3    1.295449 A    
C42   C45   1.406750 A    
O5    Cu1   1.943132 S    
C53   H24   1.111254 S    
C11   Br4   1.922509 S    
C6    O10   1.346190 S    
C26   C37   1.396630 A    
C50   H12   1.081407 S    
N8    H25   1.032087 S    
C44   C46   1.418117 A    
C49   H11   1.080630 S    
C35   C37   1.398744 A    
C52   H18   1.111307 S    
C23   C39   1.393537 A    
N1    C7    1.368885 A    
