data_mof_unit_46405.cif
_audit_creation_date              2012-12-10T16:38:39-0500
_audit_creation_method            fapswitch 2.2
_symmetry_space_group_name_H-M    P1
_symmetry_Int_Tables_number       1
_space_group_crystal_system       triclinic
_cell_length_a                    10.907226
_cell_length_b                    10.832299
_cell_length_c                    17.803063
_cell_angle_alpha                 97.935968
_cell_angle_beta                  72.532845
_cell_angle_gamma                 98.656966
_cell_volume                      1973.94163573

loop_
_atom_site_label
_atom_site_type_symbol
_atom_type_description
_atom_site_fract_x
_atom_site_fract_y
_atom_site_fract_z
_atom_type_partial_charge
C1    C     C_R   0.158205 0.480415 0.517480 0.565461
C2    C     C_R   0.595703 0.391625 0.916539 -0.075625
C3    C     C_R   0.658376 0.329270 0.955346 0.286154
C4    C     C_R   0.843693 0.520141 0.482002 0.532675
C5    C     C_R   0.648137 0.365917 0.036489 -0.040123
C6    C     C_R   0.553251 0.446109 0.080089 -0.073071
C7    C     C_R   0.728144 0.325704 0.076120 0.263904
C8    C     C_R   0.685008 0.330082 0.159451 0.194119
C9    C     C_R   0.546679 0.487289 0.160047 0.132024
C10   C     C_2   0.982812 0.524126 0.473398 0.263008
C11   C     C_2   0.021493 0.473832 0.526625 0.290364
C12   C     C_R   0.262342 0.605030 0.845833 0.301549
C13   C     C_2   0.547841 0.969112 0.477344 0.246593
C14   C     C_2   0.455193 0.036091 0.523490 -0.006921
C15   C     C_R   0.466358 0.168717 0.518621 0.543165
C16   C     C_R   0.531822 0.833678 0.482784 0.521332
C17   C     C_R   0.564503 0.437521 0.287729 0.597935
C18   C     C_R   0.431274 0.559233 0.712935 0.534937
C19   C     C_R   0.385752 0.569012 0.800639 -0.030101
C20   C     C_R   0.595072 0.414087 0.201521 -0.010583
C21   C     C_R   0.231154 0.617852 0.929130 0.270658
C22   C     C_R   0.466701 0.532889 0.839424 -0.163949
C23   C     C_R   0.426976 0.524645 0.921289 -0.001154
C24   C     C_R   0.309905 0.571725 0.966918 0.004511
C25   C     C_R   0.501159 0.470469 0.958947 0.005493
C26   C     C_R   0.468869 0.482546 0.042304 0.042889
C27   C     C_R   0.347081 0.519134 0.085646 -0.037908
C28   C     C_R   0.269348 0.563464 0.048851 -0.090188
H1    H     H_    0.176134 0.588584 0.085491 0.175371
H2    H     H_    0.584793 0.740204 0.097909 0.373163
H3    H     H_    0.643837 0.203592 0.332440 0.367701
H4    H     H_    0.900391 0.133286 0.827668 0.380641
H5    H     H_    0.140262 0.724729 0.018574 0.338311
H6    H     H_    0.129397 0.762494 0.724890 0.367323
H7    H     H_    0.367628 0.993097 0.563191 0.089377
H8    H     H_    0.561842 0.510881 0.804413 0.164112
H9    H     H_    0.309356 0.510600 0.148405 0.190485
H10   H     H_    0.609323 0.363966 0.854217 0.163691
H11   H     H_    0.064529 0.350528 0.072844 0.367018
H12   H     H_    0.032190 0.607810 0.376608 0.365044
H13   H     H_    0.983166 0.393129 0.623479 0.346991
H14   H     H_    0.715061 0.966295 0.397201 0.372024
O1    O     O_3   0.500000 0.500000 0.500000 -0.492439
O2    O     O_R   0.470800 0.371790 0.332500 -0.505720
O3    O     O_R   0.380610 0.619380 0.674980 -0.471990
O4    O     O_R   0.632640 0.524780 0.317540 -0.473486
O5    O     O_R   0.515950 0.484050 0.674980 -0.541952
O6    O     O_2   0.928586 0.192041 0.000259 -0.175283
O7    O     O_2   0.938543 0.401636 0.959629 -0.185287
O8    O     O_3   0.980977 0.386324 0.092797 -0.480833
O9    O     O_3   0.075606 0.578174 0.411136 -0.686144
O10   O     O_3   0.934245 0.423324 0.592126 -0.669175
O11   O     O_3   0.655705 0.028847 0.426239 -0.671865
O12   O     O_R   0.535460 0.243030 0.556410 -0.509644
O13   O     O_2   0.380720 0.630814 0.266700 -0.240469
O14   O     O_2   0.610244 0.707776 0.238989 -0.210895
O15   O     O_3   0.496689 0.730767 0.135245 -0.465387
O16   O     O_2   0.819942 0.137353 0.156851 -0.144274
O17   O     O_2   0.840269 0.322649 0.250079 -0.268021
O18   O     O_3   0.627174 0.169775 0.281379 -0.463107
O19   O     O_2   0.707122 0.095032 0.962725 -0.210162
O20   O     O_2   0.639642 0.131010 0.849442 -0.270876
O21   O     O_3   0.873186 0.216793 0.850888 -0.428918
O22   O     O_3   0.121640 0.672719 0.972112 -0.581698
O23   O     O_R   0.437420 0.784080 0.535340 -0.554071
O24   O     O_2   0.133696 0.522106 0.737776 -0.293300
O25   O     O_2   0.011435 0.632668 0.859492 -0.149724
O26   O     O_3   0.186384 0.764694 0.759271 -0.482166
O27   O     O_R   0.223560 0.397520 0.472140 -0.520249
O28   O     O_R   0.803560 0.575360 0.436110 -0.555579
O29   O     O_R   0.209690 0.568800 0.556400 -0.519319
O30   O     O_R   0.763190 0.458310 0.535350 -0.474468
O31   O     O_R   0.414000 0.207090 0.472140 -0.527038
O32   O     O_R   0.613120 0.765800 0.436110 -0.517076
S1    S     S_3+6 0.897113 0.323947 0.028602 0.132549
S2    S     S_3+6 0.507243 0.641465 0.202762 0.051492
S3    S     S_3+6 0.748875 0.238530 0.211433 0.106211
S4    S     S_3+6 0.718222 0.187582 0.904745 0.087174
S5    S     S_3+6 0.142827 0.628292 0.800615 0.119105
Zn1   Zn    Zn3+2 0.577310 0.422690 0.565550 1.012999
Zn2   Zn    Zn3+2 0.403760 0.371330 0.445150 1.033487
Zn3   Zn    Zn3+2 0.634990 0.589920 0.423760 1.044539
Zn4   Zn    Zn3+2 0.383940 0.616050 0.565540 1.024658

loop_
_geom_bond_atom_site_label_1
_geom_bond_atom_site_label_2
_ccdc_geom_bond_type
H2    O15   S    
O14   S2    D    
O1    Zn4   S    
C1    C11   S    
C18   O5    A    
O17   S3    D    
C6    C9    A    
C4    O28   A    
C7    C8    A    
O24   S5    D    
C26   C27   A    
C8    C20   A    
C16   O32   A    
O15   S2    S    
C28   H1    S    
H14   O11   S    
C5    C6    A    
O23   Zn4   S    
C12   S5    S    
C17   C20   S    
C18   C19   S    
C21   O22   S    
C11   O10   S    
O16   S3    D    
O4    Zn3   S    
O29   Zn4   S    
C23   C24   A    
O7    S1    D    
C9    S2    S    
H13   O10   S    
O12   Zn1   S    
O26   S5    S    
C13   C14   D    
O6    S1    D    
O3    Zn4   S    
O5    Zn1   S    
O32   Zn3   S    
C10   O9    S    
O31   Zn2   S    
C13   O11   S    
O18   S3    S    
C15   O12   A    
C19   C22   A    
O25   S5    D    
C17   O4    A    
O2    Zn2   S    
H6    O26   S    
C14   H7    S    
C5    C7    A    
C7    S1    S    
C25   C26   A    
C12   C21   A    
C1    O27   A    
H3    O18   S    
C2    H10   S    
C9    C20   A    
O19   S4    D    
C1    O29   A    
O13   S2    D    
C15   O31   A    
C8    S3    S    
O1    Zn2   S    
C21   C24   A    
C4    C10   S    
C18   O3    A    
C4    O30   A    
C14   C15   S    
O20   S4    D    
C24   C28   A    
H4    O21   S    
C3    C5    A    
H12   O9    S    
C22   H8    S    
C2    C3    A    
O1    Zn1   S    
C17   O2    A    
O30   Zn1   S    
O8    S1    S    
C6    C26   A    
C27   H9    S    
H5    O22   S    
C12   C19   A    
C2    C25   A    
C23   C25   A    
O28   Zn3   S    
O27   Zn2   S    
C10   C11   D    
H11   O8    S    
C13   C16   S    
C27   C28   A    
O1    Zn3   S    
C22   C23   A    
C16   O23   A    
C3    S4    S    
O21   S4    S    
