data_mof_unit_7754.cif
_audit_creation_date              2012-12-11T14:55:55-0500
_audit_creation_method            fapswitch 2.2
_symmetry_space_group_name_H-M    P1
_symmetry_Int_Tables_number       1
_space_group_crystal_system       triclinic
_cell_length_a                    8.375427
_cell_length_b                    15.068054
_cell_length_c                    18.938529
_cell_angle_alpha                 99.060188
_cell_angle_beta                  91.021223
_cell_angle_gamma                 100.412912
_cell_volume                      2318.74004029

loop_
_atom_site_label
_atom_site_type_symbol
_atom_type_description
_atom_site_fract_x
_atom_site_fract_y
_atom_site_fract_z
_atom_type_partial_charge
Ba1   Ba    Ba6+2 0.854510 0.539840 0.465770 1.679569
Ba2   Ba    Ba6+2 0.335330 0.460240 0.534240 1.678516
C1    C     C_3   0.714549 0.876187 0.299772 0.284142
C2    C     C_R   0.028204 0.528212 0.727208 0.078667
C3    C     C_R   0.830405 0.441626 0.821745 -0.169985
C4    C     C_3   0.143819 0.723947 0.273210 0.342655
C5    C     C_R   0.775035 0.438267 0.750463 0.029798
C6    C     C_R   0.364157 0.566213 0.182136 -0.153481
C7    C     C_R   0.422972 0.564169 0.251445 0.011672
C8    C     C_R   0.135877 0.448937 0.198408 -0.144448
C9    C     C_R   0.173127 0.466330 0.272626 0.056443
C10   C     C_R   0.995575 0.478024 0.845551 -0.003584
C11   C     C_R   0.880456 0.474597 0.702561 -0.214186
C12   C     C_3   0.669972 0.780083 0.318204 0.371322
C13   C     C_R   0.223753 0.503552 0.151511 -0.004612
C14   C     C_R   0.320732 0.521562 0.298180 -0.263465
C15   C     C_R   0.838538 0.359234 0.955790 -0.083431
C16   C     C_3   0.135489 0.749650 0.198920 -0.342808
C17   C     C_R   0.723944 0.337610 0.006058 -0.058088
C18   C     C_R   0.739437 0.390557 0.073816 -0.069348
C19   C     C_R   0.879598 0.456268 0.093222 -0.103134
C20   C     C_R   0.008068 0.464530 0.046643 0.024094
C21   C     C_R   0.968224 0.433473 0.972860 0.032802
C22   C     C_R   0.173465 0.493065 0.071455 -0.008235
C23   C     C_3   0.459879 0.325538 0.313516 0.309279
C24   C     C_R   0.289725 0.501305 0.016994 0.039361
C25   C     C_R   0.237544 0.497111 0.943161 0.014884
C26   C     C_R   0.068333 0.469586 0.920375 -0.016264
C27   C     C_R   0.458063 0.509813 0.033144 -0.081434
C28   C     C_3   0.325826 0.756354 0.702908 0.159078
C29   C     C_R   0.573009 0.533413 0.984222 -0.075157
C30   C     C_R   0.523414 0.536391 0.915018 -0.026359
C31   C     C_R   0.360059 0.511036 0.893703 -0.066319
C32   C     C_R   0.748706 0.237961 0.519024 -0.348906
C33   C     C_R   0.824653 0.183975 0.555598 0.006329
C34   C     C_3   0.443161 0.302816 0.232281 -0.377498
C35   C     C_R   0.741746 0.096392 0.563220 0.379532
C36   C     C_R   0.611192 0.051508 0.512525 -0.046536
C37   C     C_R   0.543794 0.106714 0.470843 -0.179072
C38   C     C_R   0.605815 0.200168 0.478741 0.040209
C39   C     C_R   0.390998 0.912319 0.471949 -0.082002
C40   C     C_3   0.356850 0.746861 0.781466 -0.292398
C41   C     C_R   0.335429 0.818157 0.458093 0.014803
C42   C     C_R   0.581620 0.792764 0.514235 -0.032981
C43   C     C_R   0.650633 0.886728 0.515741 -0.129151
C44   C     C_R   0.549934 0.949034 0.500781 -0.011429
C45   C     C_3   0.968973 0.247657 0.721954 0.292693
C46   C     C_R   0.426757 0.759298 0.482159 -0.278165
C47   C     C_3   0.943482 0.254043 0.376567 0.301165
C48   C     C_3   0.920701 0.150217 0.359570 -0.366503
C49   C     C_3   0.841217 0.754116 0.685956 0.196743
C50   C     C_3   0.835013 0.808879 0.762241 -0.306198
C51   C     C_2   0.989994 0.879049 0.784239 0.879363
C52   C     C_2   0.800580 0.745755 0.817133 0.905363
C53   C     C_3   0.703046 0.886152 0.178656 0.198230
C54   C     C_3   0.435696 0.196263 0.659864 0.190265
C55   C     C_2   0.410939 0.170779 0.863629 0.910105
C56   C     C_3   0.948630 0.202270 0.788562 -0.324670
C57   C     C_3   0.668642 0.037862 0.665716 0.164154
C58   C     C_2   0.828418 0.918100 0.519567 0.973922
C59   C     C_2   0.337173 0.855572 0.693971 0.874141
C60   C     C_3   0.409143 0.274862 0.772385 0.652124
C61   C     C_3   0.453444 0.267920 0.849527 -0.298060
C62   C     C_R   0.081320 0.533726 0.799150 -0.079000
H1    H     H_    0.733059 0.779303 0.370100 0.012862
H2    H     H_    0.928447 0.795440 0.655500 0.119660
H3    H     H_    0.882402 0.689077 0.689004 0.066521
H4    H     H_    0.847842 0.892850 0.291929 0.047873
H5    H     H_    0.735058 0.848488 0.761860 0.054949
H6    H     H_    0.536375 0.764793 0.324239 -0.076976
H7    H     H_    0.690366 0.925529 0.346619 0.030945
H8    H     H_    0.346018 0.345353 0.333874 0.007088
H9    H     H_    0.562751 0.383849 0.328298 0.071819
H10   H     H_    0.334995 0.248381 0.215527 0.133505
H11   H     H_    0.429069 0.364476 0.209387 0.055197
H12   H     H_    0.400571 0.682406 0.784431 0.134304
H13   H     H_    0.553505 0.278872 0.211069 0.129166
H14   H     H_    0.235067 0.807806 0.194317 0.149321
H15   H     H_    0.028995 0.320315 0.737635 0.026216
H16   H     H_    0.845415 0.245137 0.698208 0.004529
H17   H     H_    0.045148 0.235749 0.830133 0.074823
H18   H     H_    0.828193 0.207464 0.810391 0.101779
H19   H     H_    0.954196 0.128486 0.775316 0.190125
H20   H     H_    0.284085 0.234785 0.762882 0.031958
H21   H     H_    0.584331 0.291298 0.859537 0.048604
H22   H     H_    0.047082 0.663288 0.275063 0.083381
H23   H     H_    0.451516 0.803336 0.808931 0.170330
H24   H     H_    0.390181 0.313208 0.886704 0.012899
H25   H     H_    0.184182 0.585671 0.819192 0.056271
H26   H     H_    0.739384 0.424382 0.858517 0.064188
H27   H     H_    0.433922 0.613195 0.151595 0.083393
H28   H     H_    0.037686 0.393092 0.178579 0.077851
H29   H     H_    0.837708 0.472411 0.647913 0.063383
H30   H     H_    0.360600 0.526850 0.353577 0.067633
H31   H     H_    0.830289 0.316449 0.904456 0.066582
H32   H     H_    0.621980 0.281747 0.992086 0.080305
H33   H     H_    0.646864 0.378373 0.112049 0.078077
H34   H     H_    0.244088 0.747160 0.811158 0.168019
H35   H     H_    0.265009 0.707031 0.282498 -0.040086
H36   H     H_    0.892906 0.495838 0.145851 0.129604
H37   H     H_    0.504297 0.496573 0.082943 0.073985
H38   H     H_    0.701317 0.545790 0.999188 0.082875
H39   H     H_    0.612794 0.552188 0.876349 0.097340
H40   H     H_    0.335158 0.497024 0.837416 0.130790
H41   H     H_    0.308555 0.955610 0.459320 0.095742
H42   H     H_    0.444497 0.078932 0.431940 0.092936
H43   H     H_    0.375905 0.687078 0.476452 0.076532
H44   H     H_    0.148008 0.690521 0.157739 0.071399
H45   H     H_    0.824585 0.273720 0.387415 0.001915
H46   H     H_    0.805068 0.308642 0.519595 0.074547
H47   H     H_    0.016847 0.769583 0.188979 0.127732
H48   H     H_    0.416065 0.729450 0.668825 0.062048
H49   H     H_    0.951491 0.955279 0.709441 0.301393
H50   H     H_    0.875814 0.652070 0.868015 0.303338
H51   H     H_    0.752664 0.822338 0.164589 0.063009
H52   H     H_    0.802347 0.947198 0.184637 0.034739
H53   H     H_    0.619767 0.890347 0.133600 0.085702
H54   H     H_    0.366842 0.243121 0.638612 0.125850
H55   H     H_    0.354920 0.130696 0.665197 0.105737
H56   H     H_    0.028489 0.278062 0.424243 0.065859
H57   H     H_    0.525452 0.182226 0.620462 -0.006974
H58   H     H_    0.237560 0.197694 0.932705 0.259251
H59   H     H_    0.669275 0.098739 0.706854 0.118975
H60   H     H_    0.691972 0.981888 0.693615 0.084314
H61   H     H_    0.545273 0.015473 0.639500 0.082126
H62   H     H_    0.042076 0.935410 0.574601 0.347997
H63   H     H_    0.235853 0.822157 0.593800 0.271944
H64   H     H_    0.830920 0.123667 0.313863 0.126173
H65   H     H_    0.876217 0.119408 0.406622 0.096810
H66   H     H_    0.038420 0.129517 0.345590 0.138091
O1    O     O_2   0.872980 0.435970 0.325550 -0.470351
O2    O     O_2   0.151346 0.178185 0.542241 -0.476151
O3    O     O_3   0.066029 0.201944 0.674391 -0.581368
O4    O     O_3   0.121550 0.444190 0.414290 -0.497742
O5    O     O_3   0.581680 0.612000 0.537440 -0.452109
O6    O     O_2   0.334450 0.276040 0.463130 -0.461463
O7    O     O_3   0.488087 0.248261 0.340861 -0.632812
O8    O     O_2   0.536463 0.524215 0.738155 -0.473178
O9    O     O_3   0.399619 0.366542 0.766571 -0.634026
O10   O     O_3   0.664480 0.604250 0.370890 -0.483087
O11   O     O_2   0.746854 0.542945 0.243680 -0.507658
O12   O     O_3   0.684269 0.731911 0.652924 -0.643466
O13   O     O_3   0.004951 0.290534 0.317154 -0.632128
O14   O     O_3   0.719853 0.716579 0.264408 -0.612114
O15   O     O_2   0.855250 0.723990 0.536920 -0.452277
O16   O     O_3   0.087370 0.653760 0.407230 -0.489129
O17   O     O_2   0.004270 0.808951 0.448889 -0.452402
O18   O     O_2   0.076018 0.873625 0.835579 -0.513603
O19   O     O_R   0.034247 0.953154 0.748192 -0.674598
O20   O     O_2   0.685907 0.749955 0.855628 -0.620251
O21   O     O_R   0.906270 0.686601 0.826955 -0.780892
O22   O     O_3   0.614455 0.885095 0.241210 -0.645643
O23   O     O_3   0.120341 0.798203 0.324090 -0.594778
O24   O     O_3   0.518431 0.237166 0.725503 -0.713614
O25   O     O_2   0.483030 0.113061 0.833634 -0.511583
O26   O     O_R   0.291079 0.145357 0.910838 -0.683415
O27   O     O_3   0.794136 0.056335 0.618264 -0.652621
O28   O     O_2   0.890872 0.961271 0.474288 -0.632817
O29   O     O_R   0.924259 0.905116 0.576511 -0.744877
O30   O     O_2   0.389182 0.917748 0.742941 -0.525112
O31   O     O_R   0.286527 0.877822 0.629474 -0.755567
O32   O     O_2   0.316730 0.564060 0.674500 -0.452542
O33   O     O_3   0.068160 0.555880 0.585710 -0.470280
O34   O     O_3   0.525240 0.395830 0.629120 -0.460370
O35   O     O_3   0.170739 0.709728 0.676990 -0.680807
O36   O     O_3   0.608030 0.388080 0.462570 -0.481986
O37   O     O_3   0.102340 0.346310 0.592780 -0.495022
P1    P     P_3+3 0.039940 0.410170 0.336360 0.974260
P2    P     P_3+3 0.679300 0.712470 0.558210 1.021619
P3    P     P_3+3 0.140387 0.770417 0.409745 0.974283
P4    P     P_3+3 0.149780 0.589910 0.663640 0.986167
P5    P     P_3+3 0.035324 0.228354 0.589439 0.983537
P6    P     P_3+3 0.637589 0.606819 0.280500 0.931836
P7    P     P_3+3 0.508877 0.275287 0.434226 0.954166
P8    P     P_3+3 0.559895 0.423957 0.722372 0.993178

loop_
_geom_bond_atom_site_label_1
_geom_bond_atom_site_label_2
_ccdc_geom_bond_type
O35   P4    S    
C37   H42   S    
O11   P6    D    
C43   C58   S    
C2    P4    S    
C61   H24   S    
C31   H40   S    
C12   H6    S    
Ba1   O15   S    
C1    H4    S    
C58   O29   S    
C45   H15   S    
Ba2   O32   S    
O37   P5    S    
C53   O22   S    
C52   O20   D    
C53   H51   S    
C43   C44   A    
C25   C31   A    
C55   O25   D    
C1    O22   S    
Ba2   O4    S    
C39   H41   S    
C10   C26   S    
C32   C38   A    
H50   O21   S    
C33   C35   A    
O3    P5    S    
C58   O28   D    
C32   C33   A    
C34   H13   S    
C40   H34   S    
C36   C37   A    
C10   C62   A    
C4    H35   S    
C46   H43   S    
C53   H52   S    
O34   P8    S    
Ba1   Ba2   S    
C35   O27   S    
C2    C11   A    
C42   P2    S    
C59   O31   S    
C50   H5    S    
C48   H66   S    
O9    P8    S    
C18   H33   S    
C17   C18   A    
O10   P6    S    
C5    P8    S    
O23   P3    S    
C39   C44   A    
C7    P6    S    
C15   H31   S    
C60   O9    S    
O33   P4    S    
C41   C46   A    
Ba2   O36   S    
C23   H9    S    
C3    H26   S    
O17   P3    D    
Ba2   P4    S    
C8    H28   S    
H63   O31   S    
C19   C20   A    
C61   H21   S    
C51   O19   S    
C33   P5    S    
C39   C41   A    
Ba1   O16   S    
C54   H54   S    
C62   H25   S    
C41   P3    S    
C50   C52   S    
C55   C61   S    
C12   O14   S    
C57   H59   S    
C4    C16   S    
C55   O26   S    
O15   P2    D    
O36   P7    S    
O32   P4    D    
C49   C50   S    
C29   H38   S    
H49   O19   S    
C16   H47   S    
C3    C10   A    
C54   O24   S    
C56   H17   S    
Ba2   O34   S    
C37   C38   A    
C3    C5    A    
C19   H36   S    
C6    C7    A    
C49   H3    S    
Ba1   P1    S    
H62   O29   S    
C51   O18   D    
Ba2   O6    S    
C60   O24   S    
C11   H29   S    
C49   H2    S    
O14   P6    S    
C23   O7    S    
C35   C36   A    
C34   H11   S    
C9    C14   A    
C29   C30   A    
C16   H14   S    
C60   C61   S    
C24   C25   A    
C30   H39   S    
C27   H37   S    
C6    H27   S    
C15   C21   A    
C21   C26   A    
Ba1   O10   S    
C48   H65   S    
C52   O21   S    
C1    C12   S    
C34   H10   S    
O12   P2    S    
C13   C22   S    
O1    P1    D    
C6    C13   A    
O16   P3    S    
C9    P1    S    
C32   H46   S    
C54   H55   S    
C20   C22   A    
C59   O30   D    
C48   H64   S    
Ba1   O4    S    
C25   C26   A    
C50   C51   S    
C47   H45   S    
C53   H53   S    
C49   O12   S    
C57   H60   S    
C60   H20   S    
H58   O26   S    
C7    C14   A    
C42   C43   A    
C28   O35   S    
C22   C24   A    
Ba1   O1    S    
Ba2   O33   S    
C1    H7    S    
C57   H61   S    
C2    C62   A    
C40   H12   S    
Ba2   O5    S    
C4    H22   S    
C8    C13   A    
C54   H57   S    
C56   H18   S    
O7    P7    S    
C45   H16   S    
C56   H19   S    
C30   C31   A    
C45   C56   S    
C38   P7    S    
C57   O27   S    
C23   H8    S    
Ba1   O36   S    
C47   O13   S    
Ba1   P2    S    
C15   C17   A    
C12   H1    S    
O4    P1    S    
O5    P2    S    
C16   H44   S    
O13   P1    S    
C36   C44   S    
C4    O23   S    
C8    C9    A    
C23   C34   S    
C47   H56   S    
O6    P7    D    
C5    C11   A    
C18   C19   A    
Ba1   O33   S    
C24   C27   A    
C27   C29   A    
C47   C48   S    
C28   C59   S    
C28   H48   S    
O8    P8    D    
C20   C21   A    
C28   C40   S    
C40   H23   S    
O2    P5    D    
Ba1   O5    S    
Ba2   O37   S    
C45   O3    S    
C17   H32   S    
C42   C46   A    
C14   H30   S    
