data_mof_unit_64721.cif
_audit_creation_date              2012-12-10T18:09:58-0500
_audit_creation_method            fapswitch 2.2
_symmetry_space_group_name_H-M    P1
_symmetry_Int_Tables_number       1
_space_group_crystal_system       triclinic
_cell_length_a                    21.702544
_cell_length_b                    21.702556
_cell_length_c                    32.122016
_cell_angle_alpha                 89.999947
_cell_angle_beta                  89.999947
_cell_angle_gamma                 89.999679
_cell_volume                      15129.4912664

loop_
_atom_site_label
_atom_site_type_symbol
_atom_type_description
_atom_site_fract_x
_atom_site_fract_y
_atom_site_fract_z
_atom_type_partial_charge
C1    C     C_R   0.313688 0.500000 0.000000 -0.126370
C2    C     C_R   0.540645 0.218087 0.973294 -0.057462
C3    C     C_1   0.500000 1.000000 0.661765 -0.013249
C4    C     C_1   0.500000 1.000000 0.838233 -0.013496
C5    C     C_1   1.000000 0.500000 0.838233 -0.013443
C6    C     C_1   0.500000 0.000000 0.161767 -0.013442
C7    C     C_1   0.000000 0.500000 0.161767 -0.013440
C8    C     C_1   0.000000 0.500000 0.124527 -0.142095
C9    C     C_1   0.500000 0.000000 0.124527 -0.142097
C10   C     C_1   1.000000 0.500000 0.875472 -0.142094
C11   C     C_1   0.500000 1.000000 0.875472 -0.142109
C12   C     C_1   0.500000 1.000000 0.624526 -0.142096
C13   C     C_R   0.781914 0.540640 0.973290 -0.057439
C14   C     C_1   1.000000 0.500000 0.624526 -0.142107
C15   C     C_1   0.500000 0.000000 0.375474 -0.142101
C16   C     C_1   0.000000 0.500000 0.375474 -0.142103
C17   C     C_1   0.077477 0.415989 0.205471 0.203046
C18   C     C_1   0.584055 0.077428 0.205471 0.203049
C19   C     C_1   0.922523 0.584010 0.205471 0.203046
C20   C     C_1   0.415945 0.922572 0.205471 0.203049
C21   C     C_1   0.077400 0.584081 0.794529 0.203051
C22   C     C_1   0.585937 0.924664 0.794528 0.203179
C23   C     C_1   0.922600 0.415920 0.794529 0.203051
C24   C     C_R   0.459355 0.781913 0.973294 -0.057462
C25   C     C_1   0.414063 0.075335 0.794528 0.203179
C26   C     C_1   0.586093 0.924843 0.705466 0.202525
C27   C     C_1   0.077225 0.584240 0.705467 0.202623
C28   C     C_1   0.413907 0.075157 0.705466 0.202524
C29   C     C_1   0.922774 0.415760 0.705467 0.202623
C30   C     C_1   0.584214 0.077254 0.294533 0.202627
C31   C     C_1   0.077303 0.415830 0.294533 0.202629
C32   C     C_1   0.415785 0.922747 0.294533 0.202628
C33   C     C_1   0.922697 0.584170 0.294533 0.202629
C34   C     C_1   0.185232 0.420123 0.944061 0.209474
C35   C     C_R   0.218086 0.540639 0.026710 -0.057437
C36   C     C_1   0.579889 0.185232 0.944069 0.209414
C37   C     C_1   0.814768 0.579877 0.944061 0.209475
C38   C     C_1   0.420111 0.814768 0.944069 0.209415
C39   C     C_1   0.185231 0.579876 0.055940 0.209489
C40   C     C_1   0.579886 0.814767 0.055934 0.209499
C41   C     C_1   0.814769 0.420124 0.055940 0.209489
C42   C     C_1   0.420114 0.185233 0.055934 0.209498
C43   C     C_1   0.685219 0.920241 0.443987 0.209636
C44   C     C_1   0.079769 0.685219 0.443994 0.209650
C45   C     C_1   0.314781 0.079758 0.443987 0.209636
C46   C     C_R   0.540644 0.781913 0.026707 -0.057440
C47   C     C_1   0.920231 0.314781 0.443994 0.209650
C48   C     C_1   0.685217 0.079752 0.556017 0.209743
C49   C     C_1   0.079770 0.314780 0.556006 0.209659
C50   C     C_1   0.314783 0.920248 0.556017 0.209743
C51   C     C_1   0.920230 0.685220 0.556006 0.209659
C52   C     C_1   0.315290 0.412745 0.949541 0.203862
C53   C     C_1   0.587263 0.315290 0.949548 0.203835
C54   C     C_1   0.684710 0.587255 0.949540 0.203862
C55   C     C_1   0.412737 0.684710 0.949547 0.203835
C56   C     C_1   0.315289 0.587254 0.050460 0.203880
C57   C     C_R   0.781914 0.459361 0.026710 -0.057437
C58   C     C_1   0.587263 0.684709 0.050453 0.203862
C59   C     C_1   0.684711 0.412745 0.050460 0.203879
C60   C     C_1   0.412737 0.315291 0.050454 0.203861
C61   C     C_1   0.815277 0.912841 0.449461 0.204055
C62   C     C_1   0.087168 0.815277 0.449468 0.204039
C63   C     C_1   0.184723 0.087159 0.449461 0.204055
C64   C     C_1   0.912832 0.184723 0.449468 0.204038
C65   C     C_1   0.815275 0.087156 0.550541 0.204096
C66   C     C_1   0.087169 0.184722 0.550531 0.204049
C67   C     C_1   0.184725 0.912843 0.550541 0.204095
C68   C     C_R   0.459356 0.218087 0.026707 -0.057440
C69   C     C_1   0.912831 0.815278 0.550531 0.204049
C70   C     C_R   0.718079 0.959415 0.473253 -0.057355
C71   C     C_R   0.040589 0.718079 0.473256 -0.057355
C72   C     C_R   0.281921 0.040585 0.473253 -0.057355
C73   C     C_R   0.500000 0.313688 0.000000 -0.126370
C74   C     C_R   0.959411 0.281921 0.473256 -0.057355
C75   C     C_R   0.718078 0.040582 0.526749 -0.057333
C76   C     C_R   0.040590 0.281921 0.526744 -0.057350
C77   C     C_R   0.281922 0.959418 0.526749 -0.057333
C78   C     C_R   0.959410 0.718079 0.526744 -0.057350
C79   C     C_R   0.282132 0.458141 0.974199 -0.056747
C80   C     C_R   0.541863 0.282132 0.974203 -0.056775
C81   C     C_R   0.717869 0.541859 0.974199 -0.056747
C82   C     C_R   0.458137 0.717868 0.974203 -0.056775
C83   C     C_R   0.282131 0.541858 0.025801 -0.056764
C84   C     C_R   0.686312 0.500000 0.000000 -0.126370
C85   C     C_R   0.541863 0.717868 0.025798 -0.056771
C86   C     C_R   0.717869 0.458142 0.025801 -0.056764
C87   C     C_R   0.458137 0.282132 0.025798 -0.056771
C88   C     C_R   0.782124 0.958192 0.474161 -0.056710
C89   C     C_R   0.041812 0.782124 0.474164 -0.056719
C90   C     C_R   0.217876 0.041808 0.474161 -0.056711
C91   C     C_R   0.958188 0.217876 0.474164 -0.056719
C92   C     C_R   0.782123 0.041805 0.525841 -0.056704
C93   C     C_R   0.041813 0.217875 0.525836 -0.056732
C94   C     C_R   0.217877 0.958194 0.525841 -0.056704
C95   C     C_R   0.500000 0.686312 0.000000 -0.126371
C96   C     C_R   0.958187 0.782124 0.525836 -0.056732
C97   C     C_R   0.120075 0.500000 0.000000 0.875270
C98   C     C_R   0.500000 0.120075 0.000000 0.875239
C99   C     C_R   0.879925 0.500000 0.000000 0.875271
C100  C     C_R   0.500000 0.879925 0.000000 0.875239
C101  C     C_R   0.620073 1.000000 0.500000 0.875610
C102  C     C_R   1.000000 0.620073 0.500000 0.875580
C103  C     C_R   0.379927 0.000000 0.500000 0.875611
C104  C     C_R   0.000000 0.379927 0.500000 0.875580
C105  C     C_R   0.000000 0.500000 0.080388 0.898763
C106  C     C_R   0.813683 0.999999 0.500000 -0.126367
C107  C     C_R   0.500000 0.000000 0.080388 0.898757
C108  C     C_R   0.000000 0.500000 0.919612 0.898761
C109  C     C_R   0.500000 1.000000 0.919611 0.898702
C110  C     C_R   0.500000 1.000000 0.580388 0.899139
C111  C     C_R   1.000000 0.500000 0.580388 0.899085
C112  C     C_R   0.500000 0.000000 0.419612 0.899092
C113  C     C_R   0.000000 0.500000 0.419612 0.899082
C114  C     C_R   0.038180 0.458477 0.271864 -0.052260
C115  C     C_R   0.541545 0.038156 0.271864 -0.052258
C116  C     C_R   0.961820 0.541523 0.271864 -0.052260
C117  C     C_R   1.000000 0.813683 0.500000 -0.126366
C118  C     C_R   0.458455 0.961844 0.271864 -0.052258
C119  C     C_R   0.038142 0.541558 0.728136 -0.052259
C120  C     C_R   0.542473 0.962878 0.728135 -0.052207
C121  C     C_R   0.961857 0.458442 0.728136 -0.052259
C122  C     C_R   0.457527 0.037122 0.728135 -0.052207
C123  C     C_R   0.542440 0.962840 0.771860 -0.052536
C124  C     C_R   0.038179 0.541524 0.771861 -0.052475
C125  C     C_R   0.457560 0.037160 0.771860 -0.052536
C126  C     C_R   0.961821 0.458476 0.771861 -0.052475
C127  C     C_R   0.541511 0.038193 0.228139 -0.052472
C128  C     C_R   0.186317 0.000000 0.500000 -0.126367
C129  C     C_R   0.038217 0.458511 0.228139 -0.052470
C130  C     C_R   0.458489 0.961807 0.228139 -0.052472
C131  C     C_R   0.961783 0.541489 0.228139 -0.052470
C132  C     C_R   0.000000 0.500000 0.293540 0.031925
C133  C     C_R   0.500000 0.000000 0.293540 0.031926
C134  C     C_R   1.000000 0.500000 0.706460 0.031925
C135  C     C_R   0.500000 1.000000 0.706459 0.031967
C136  C     C_R   0.500000 1.000000 0.793537 0.031721
C137  C     C_R   1.000000 0.500000 0.793538 0.031769
C138  C     C_R   0.500000 0.000000 0.206462 0.031771
C139  C     C_R   0.000000 0.186317 0.500000 -0.126366
C140  C     C_R   0.000000 0.500000 0.206462 0.031772
C141  C     C_R   0.186380 0.499999 0.000000 -0.133170
C142  C     C_R   0.500000 0.186380 0.000000 -0.133187
C143  C     C_R   0.813620 0.500000 0.000000 -0.133170
C144  C     C_R   0.500000 0.813620 0.000000 -0.133188
C145  C     C_R   0.686375 0.999999 0.500001 -0.133058
C146  C     C_R   1.000000 0.686375 0.500000 -0.133072
C147  C     C_R   0.313625 0.000001 0.500001 -0.133058
C148  C     C_R   0.000000 0.313624 0.500000 -0.133073
C149  C     C_R   0.500000 0.620184 0.000000 0.884889
C150  C     C_R   0.218086 0.459360 0.973290 -0.057439
C151  C     C_R   0.379816 0.500000 0.000000 0.884887
C152  C     C_R   0.500000 0.379816 0.000000 0.884889
C153  C     C_R   0.620184 0.500000 1.000000 0.884887
C154  C     C_R   0.000000 0.120186 0.500000 0.884583
C155  C     C_R   0.879814 1.000000 0.500000 0.884580
C156  C     C_R   1.000000 0.879814 0.500000 0.884583
C157  C     C_R   0.120186 1.000000 0.500000 0.884580
C158  C     C_1   0.000000 0.500000 0.338235 -0.013290
C159  C     C_1   0.500000 0.000000 0.338235 -0.013288
C160  C     C_1   1.000000 0.500000 0.661765 -0.013292
N1    N     N_1   0.108767 0.382111 0.187381 -0.171038
N2    N     N_1   0.108363 0.618256 0.687374 -0.171606
N3    N     N_1   0.379144 0.105459 0.687373 -0.171743
N4    N     N_1   0.891637 0.381744 0.687375 -0.171606
N5    N     N_1   0.618220 0.108402 0.312625 -0.171604
N6    N     N_1   0.108472 0.381842 0.312625 -0.171600
N7    N     N_1   0.381779 0.891598 0.312625 -0.171605
N8    N     N_1   0.891528 0.618158 0.312625 -0.171600
N9    N     N_1   0.159108 0.388943 0.920757 -0.172677
N10   N     N_1   0.611075 0.159109 0.920768 -0.172651
N11   N     N_1   0.840893 0.611057 0.920757 -0.172677
N12   N     N_1   0.617951 0.108698 0.187380 -0.171033
N13   N     N_1   0.388925 0.840892 0.920768 -0.172651
N14   N     N_1   0.159106 0.611056 0.079243 -0.172676
N15   N     N_1   0.611070 0.840891 0.079235 -0.172673
N16   N     N_1   0.840893 0.388944 0.079243 -0.172676
N17   N     N_1   0.388930 0.159109 0.079235 -0.172673
N18   N     N_1   0.659089 0.889113 0.420655 -0.172871
N19   N     N_1   0.110902 0.659090 0.420664 -0.172867
N20   N     N_1   0.340911 0.110886 0.420655 -0.172871
N21   N     N_1   0.889098 0.340910 0.420664 -0.172867
N22   N     N_1   0.659088 0.110877 0.579351 -0.172875
N23   N     N_1   0.891233 0.617889 0.187381 -0.171038
N24   N     N_1   0.110903 0.340909 0.579336 -0.172879
N25   N     N_1   0.340912 0.889123 0.579351 -0.172875
N26   N     N_1   0.889097 0.659091 0.579336 -0.172879
N27   N     N_1   0.341700 0.376564 0.929985 -0.174296
N28   N     N_1   0.623447 0.341701 0.929995 -0.174220
N29   N     N_1   0.658300 0.623436 0.929985 -0.174296
N30   N     N_1   0.376553 0.658299 0.929995 -0.174220
N31   N     N_1   0.341699 0.623435 0.070015 -0.174188
N32   N     N_1   0.623446 0.658298 0.070006 -0.174192
N33   N     N_1   0.658301 0.376565 0.070015 -0.174188
N34   N     N_1   0.382049 0.891302 0.187381 -0.171034
N35   N     N_1   0.376553 0.341701 0.070007 -0.174192
N36   N     N_1   0.841682 0.876695 0.429873 -0.173781
N37   N     N_1   0.123317 0.841683 0.429883 -0.173785
N38   N     N_1   0.158318 0.123304 0.429872 -0.173781
N39   N     N_1   0.876683 0.158317 0.429883 -0.173785
N40   N     N_1   0.841680 0.123301 0.570130 -0.173746
N41   N     N_1   0.123318 0.158316 0.570116 -0.173690
N42   N     N_1   0.158320 0.876698 0.570130 -0.173746
N43   N     N_1   0.876682 0.841684 0.570117 -0.173690
N44   N     N_1   0.108659 0.617987 0.812619 -0.171025
N45   N     N_1   0.620594 0.894238 0.812618 -0.170886
N46   N     N_1   0.891341 0.382013 0.812620 -0.171025
N47   N     N_1   0.379406 0.105762 0.812618 -0.170886
N48   N     N_1   0.620856 0.894540 0.687373 -0.171743
O1    O     O_R   0.091640 0.551640 0.999920 -0.614422
O2    O     O_R   0.948360 0.591640 0.499920 -0.614493
O3    O     O_R   0.408360 0.948360 0.499920 -0.614507
O4    O     O_R   0.051640 0.408360 0.499920 -0.614493
O5    O     O_R   0.591640 0.948360 0.500080 -0.614488
O6    O     O_R   0.948360 0.408360 0.500080 -0.614491
O7    O     O_R   0.408360 0.051640 0.500080 -0.614488
O8    O     O_R   0.051640 0.591640 0.500080 -0.614491
O9    O     O_R   0.000010 0.551640 0.060910 -0.607827
O10   O     O_R   0.448360 0.000010 0.060910 -0.607826
O11   O     O_R   0.999990 0.448360 0.060910 -0.607828
O12   O     O_R   0.448360 0.091640 0.999920 -0.614431
O13   O     O_R   0.551640 0.999990 0.060910 -0.607826
O14   O     O_R   0.000010 0.448360 0.939090 -0.607823
O15   O     O_R   0.448360 0.999990 0.939090 -0.607788
O16   O     O_R   0.999990 0.551640 0.939090 -0.607823
O17   O     O_R   0.551640 0.000010 0.939090 -0.607788
O18   O     O_R   0.500010 0.051640 0.560910 -0.608039
O19   O     O_R   0.948360 0.500010 0.560910 -0.608002
O20   O     O_R   0.499990 0.948360 0.560910 -0.608039
O21   O     O_R   0.051640 0.499990 0.560910 -0.608001
O22   O     O_R   0.500010 0.948360 0.439090 -0.607997
O23   O     O_R   0.908360 0.448360 0.999920 -0.614421
O24   O     O_R   0.948360 0.499990 0.439090 -0.607997
O25   O     O_R   0.499990 0.051640 0.439090 -0.607997
O26   O     O_R   0.051640 0.500010 0.439090 -0.607997
O27   O     O_R   0.500000 0.591640 0.965510 -0.614060
O28   O     O_R   0.408360 0.500000 0.965510 -0.614047
O29   O     O_R   0.500000 0.408360 0.965510 -0.614061
O30   O     O_R   0.591640 0.500000 0.965510 -0.614047
O31   O     O_R   0.500000 0.408360 0.034490 -0.614034
O32   O     O_R   0.408360 0.500000 0.034490 -0.614039
O33   O     O_R   0.500000 0.591640 0.034490 -0.614034
O34   O     O_R   0.551640 0.908360 0.999920 -0.614431
O35   O     O_R   0.591640 0.500000 0.034490 -0.614038
O36   O     O_R   0.000000 0.091640 0.465510 -0.613956
O37   O     O_R   0.908360 0.000000 0.465510 -0.613960
O38   O     O_R   0.000000 0.908360 0.465510 -0.613956
O39   O     O_R   0.091640 0.000000 0.465510 -0.613960
O40   O     O_R   0.000000 0.908360 0.534490 -0.613946
O41   O     O_R   0.908360 1.000000 0.534490 -0.613931
O42   O     O_R   0.000000 0.091640 0.534490 -0.613945
O43   O     O_R   0.091640 1.000000 0.534490 -0.613931
O44   O     O_R   0.091640 0.448360 0.000080 -0.614420
O45   O     O_R   0.448360 0.908360 0.000080 -0.614404
O46   O     O_R   0.908360 0.551640 0.000080 -0.614420
O47   O     O_R   0.551640 0.091640 0.000080 -0.614404
O48   O     O_R   0.591640 0.051640 0.499920 -0.614507
Zn1   Zn    Zn3+2 0.000000 0.568980 0.000000 1.020523
Zn2   Zn    Zn3+2 0.500000 0.500000 0.046050 1.025663
Zn3   Zn    Zn3+2 0.000000 0.000000 0.453950 1.026311
Zn4   Zn    Zn3+2 0.000000 1.000000 0.546050 1.026412
Zn5   Zn    Zn3+2 0.431020 0.000000 0.000000 1.020566
Zn6   Zn    Zn3+2 0.000000 0.431020 0.000000 1.020523
Zn7   Zn    Zn3+2 0.568980 0.000000 0.000000 1.020566
Zn8   Zn    Zn3+2 0.500000 0.068980 0.500000 1.019795
Zn9   Zn    Zn3+2 0.931020 0.500000 0.500000 1.019844
Zn10  Zn    Zn3+2 0.500000 0.931020 0.500000 1.019795
Zn11  Zn    Zn3+2 0.068980 0.500000 0.500000 1.019844
Zn12  Zn    Zn3+2 0.500000 0.500000 0.953950 1.025572

loop_
_geom_bond_atom_site_label_1
_geom_bond_atom_site_label_2
_ccdc_geom_bond_type
C65   C92   S    
C134  C160  S    
C58   C85   S    
C43   N18   T    
C56   N31   T    
C54   N29   T    
C98   O12   A    
C11   C109  S    
C104  C148  S    
O31   Zn2   S    
C10   C108  S    
O12   Zn5   S    
C48   C75   S    
C76   C93   A    
C47   N21   T    
C69   C96   S    
C70   C88   A    
C16   C113  S    
C6    C9    T    
C12   C110  S    
C34   C150  S    
C103  C147  S    
C22   C123  S    
C126  C137  A    
C119  C124  A    
C59   N33   T    
C40   C46   S    
C151  O32   A    
O36   Zn3   S    
C101  C145  S    
C149  O27   A    
C97   O1    A    
C153  O30   A    
C113  O24   A    
O29   Zn12  S    
C93   C139  A    
C74   C148  A    
C53   N28   T    
C26   C120  S    
C99   O46   A    
C27   N2    T    
C7    C140  S    
C108  O16   A    
C28   C122  S    
C17   N1    T    
C42   N17   T    
C2    C36   S    
C112  O25   A    
C49   N24   T    
C62   C89   S    
C13   C81   A    
C77   C94   A    
C112  O22   A    
C57   C86   A    
C44   C71   S    
C129  C140  A    
C107  O13   A    
C103  O7    A    
C20   N34   T    
C24   C82   A    
C73   C87   A    
C25   C125  S    
O38   Zn3   S    
C45   N20   T    
O24   Zn9   S    
O40   Zn4   S    
C66   N41   T    
C152  O29   A    
O4    Zn11  S    
C78   C96   A    
C105  O11   A    
C29   C121  S    
C128  C157  S    
C67   C94   S    
C24   C38   S    
O34   Zn7   S    
C31   N6    T    
C68   C142  A    
C95   C149  S    
C52   N27   T    
C121  C134  A    
C52   C79   S    
C77   C147  A    
C31   C114  S    
C13   C37   S    
C28   N3    T    
C109  O15   A    
C120  C123  A    
O44   Zn6   S    
C4    C136  S    
C46   C85   A    
C13   C143  A    
C3    C12   T    
C115  C127  A    
C8    C105  S    
C45   C72   S    
C42   C68   S    
C29   N4    T    
C14   C111  S    
O11   Zn6   S    
C155  O41   A    
C39   N14   T    
O48   Zn8   S    
C157  O43   A    
C44   N19   T    
O42   Zn4   S    
C98   O47   A    
O14   Zn6   S    
C60   C87   S    
C141  C150  A    
C97   O44   A    
C30   C115  S    
C155  O37   A    
C19   C131  S    
C113  O26   A    
C154  O36   A    
C18   N12   T    
C119  C134  A    
O33   Zn2   S    
C57   C143  A    
C17   C129  S    
C73   C152  S    
C55   N30   T    
C96   C117  A    
C7    C8    T    
C101  O48   A    
C62   N37   T    
C100  C144  S    
C19   N23   T    
C35   C83   A    
C102  O2    A    
C38   N13   T    
C46   C144  A    
C115  C133  A    
C139  C154  S    
C67   N42   T    
O9    Zn1   S    
C16   C158  T    
O5    Zn10  S    
O3    Zn10  S    
C75   C145  A    
C101  O5    A    
C22   N45   T    
C14   C160  T    
C133  C159  S    
O35   Zn2   S    
C74   C91   A    
C6    C138  S    
C76   C148  A    
C35   C39   S    
O8    Zn11  S    
C15   C159  T    
C98   C142  S    
C118  C130  A    
C61   C88   S    
C18   C127  S    
C48   N22   T    
C107  O10   A    
C88   C106  A    
C84   C153  S    
C124  C137  A    
O1    Zn1   S    
C116  C132  A    
C152  O31   A    
C15   C112  S    
C53   C80   S    
C117  C156  S    
C49   C76   S    
C70   C145  A    
C24   C144  A    
C4    C11   T    
C153  O35   A    
C157  O39   A    
C61   N36   T    
C97   C141  S    
C118  C133  A    
O20   Zn10  S    
C71   C89   A    
C35   C141  A    
O25   Zn8   S    
C91   C139  A    
C75   C92   A    
C125  C136  A    
C102  O8    A    
C127  C138  A    
O23   Zn6   S    
O47   Zn7   S    
C69   N43   T    
C43   C70   S    
C94   C128  A    
C66   C93   S    
C23   N46   T    
C156  O40   A    
C111  O21   A    
C114  C129  A    
C32   N7    T    
C79   C150  A    
C1    C83   A    
O17   Zn7   S    
O41   Zn4   S    
C103  O3    A    
C100  O45   A    
C130  C138  A    
C50   C77   S    
O18   Zn8   S    
C108  O14   A    
O15   Zn5   S    
C81   C84   A    
C100  O34   A    
C56   C83   S    
C72   C90   A    
O22   Zn10  S    
O45   Zn5   S    
O27   Zn12  S    
C68   C87   A    
C23   C126  S    
C33   C116  S    
C109  O17   A    
C82   C95   A    
O6    Zn9   S    
C131  C140  A    
C114  C132  A    
O7    Zn8   S    
C41   N16   T    
O19   Zn9   S    
C92   C106  A    
C30   N5    T    
C32   C118  S    
C34   N9    T    
O13   Zn7   S    
C37   N11   T    
C40   N15   T    
O39   Zn3   S    
O21   Zn11  S    
C5    C137  S    
C27   C119  S    
O2    Zn9   S    
C72   C147  A    
C154  O42   A    
C65   N40   T    
C36   N10   T    
O46   Zn1   S    
C63   N38   T    
C90   C128  A    
C123  C136  A    
C120  C135  A    
C111  O19   A    
C99   O23   A    
C122  C125  A    
O30   Zn12  S    
C51   C78   S    
C41   C57   S    
C5    C10   T    
C55   C82   S    
C51   N26   T    
C110  O20   A    
C102  C146  S    
C105  O9    A    
C58   N32   T    
C85   C95   A    
C110  O18   A    
C116  C131  A    
O26   Zn11  S    
C89   C117  A    
C21   C124  S    
C1    C79   A    
C151  O28   A    
C63   C90   S    
C73   C80   A    
C1    C151  S    
C3    C135  S    
C2    C142  A    
C47   C74   S    
O37   Zn3   S    
C132  C158  S    
C122  C135  A    
C59   C86   S    
C2    C80   A    
C78   C146  A    
C99   C143  S    
C104  O6    A    
C33   N8    T    
C21   N44   T    
C121  C126  A    
C71   C146  A    
O43   Zn4   S    
C149  O33   A    
C106  C155  S    
C64   N39   T    
O28   Zn12  S    
O10   Zn5   S    
C104  O4    A    
C9    C107  S    
C84   C86   A    
C156  O38   A    
C64   C91   S    
O32   Zn2   S    
C25   N47   T    
C50   N25   T    
C54   C81   S    
C26   N48   T    
C60   N35   T    
O16   Zn1   S    
C20   C130  S    
