data_mof_unit_10923.cif
_audit_creation_date              2012-12-10T17:31:23-0500
_audit_creation_method            fapswitch 2.2
_symmetry_space_group_name_H-M    P1
_symmetry_Int_Tables_number       1
_space_group_crystal_system       triclinic
_cell_length_a                    18.977796
_cell_length_b                    18.475166
_cell_length_c                    12.396144
_cell_angle_alpha                 90.733605
_cell_angle_beta                  130.099647
_cell_angle_gamma                 89.789095
_cell_volume                      3324.27131708

loop_
_atom_site_label
_atom_site_type_symbol
_atom_type_description
_atom_site_fract_x
_atom_site_fract_y
_atom_site_fract_z
_atom_type_partial_charge
C1    C     C_R   0.613261 0.898854 0.654069 0.807334
C2    C     C_R   0.607038 0.105329 0.646614 0.836797
C3    C     C_R   0.113267 0.398859 0.654076 0.807306
C4    C     C_R   0.107037 0.605330 0.646613 0.836779
C5    C     C_R   0.221573 0.790291 0.010295 0.092539
C6    C     C_R   0.253603 0.237594 0.057544 0.099221
C7    C     C_R   0.721580 0.290290 0.010297 0.092546
C8    C     C_R   0.753611 0.737601 0.057560 0.099231
C9    C     C_R   0.652015 0.272838 0.017228 0.153204
C10   C     C_R   0.668118 0.734683 0.028670 0.155034
C11   C     C_R   0.152022 0.772825 0.017247 0.153206
C12   C     C_R   0.168082 0.234626 0.028569 0.155039
C13   C     C_R   0.574195 0.234378 0.906182 -0.268934
C14   C     C_R   0.589499 0.762117 0.903107 -0.248251
C15   C     C_R   0.074202 0.734361 0.906207 -0.268915
C16   C     C_R   0.089471 0.262054 0.902991 -0.248244
C17   C     C_R   0.570648 0.205830 0.798328 -0.172801
C18   C     C_R   0.595009 0.792256 0.807074 -0.172370
C19   C     C_R   0.070647 0.705821 0.798341 -0.172790
C20   C     C_R   0.095006 0.292227 0.807009 -0.172383
C21   C     C_R   0.301718 0.824763 0.126941 -0.202578
C22   C     C_R   0.323917 0.192284 0.162787 -0.210549
C23   C     C_R   0.801727 0.324754 0.126955 -0.202582
C24   C     C_R   0.823910 0.692268 0.162760 -0.210510
C25   C     C_R   0.237818 0.834898 0.243534 -0.213319
C26   C     C_R   0.234522 0.159187 0.231605 -0.201684
C27   C     C_R   0.737803 0.334915 0.243511 -0.213318
C28   C     C_R   0.734590 0.659278 0.231763 -0.201810
C29   C     C_R   0.655588 0.175149 0.712856 -0.183353
C30   C     C_R   0.686952 0.848164 0.754537 -0.176580
C31   C     C_R   0.155580 0.675152 0.712850 -0.183349
C32   C     C_R   0.186969 0.348182 0.754560 -0.176551
C33   C     C_R   0.671853 0.945320 0.283404 0.172921
C34   C     C_R   0.171843 0.445305 0.283395 0.172946
C35   C     C_R   0.346673 0.022612 0.628152 0.025472
C36   C     C_R   0.846692 0.522658 0.628163 0.025363
C37   C     C_R   0.316846 0.043491 0.701514 0.204550
C38   C     C_R   0.816876 0.543543 0.701526 0.204349
C39   C     C_R   0.384708 0.099371 0.343355 0.784492
C40   C     C_R   0.383750 0.900787 0.341578 0.788878
C41   C     C_R   0.884712 0.599376 0.343363 0.784510
C42   C     C_R   0.883750 0.400787 0.341578 0.788893
C43   C     C_R   0.375669 0.035108 0.847651 -0.258325
C44   C     C_R   0.875675 0.535134 0.847653 -0.258176
C45   C     C_R   0.464047 0.005391 0.921983 -0.075784
C46   C     C_R   0.964040 0.505387 0.921979 -0.075804
C47   C     C_R   0.495308 0.992086 0.844677 0.232514
C48   C     C_R   0.995299 0.492072 0.844672 0.232535
C49   C     C_R   0.524547 0.992575 0.071731 -0.069538
C50   C     C_R   0.024539 0.492567 0.071725 -0.069574
C51   C     C_R   0.609776 0.957490 0.136841 0.081762
C52   C     C_R   0.109763 0.457473 0.136831 0.081773
C53   C     C_R   0.635317 0.939921 0.057152 -0.284629
C54   C     C_R   0.135299 0.439896 0.057138 -0.284617
C55   C     C_R   0.589658 0.971131 0.925993 0.260322
C56   C     C_R   0.089645 0.471111 0.925984 0.260314
C57   C     C_R   0.503759 0.011217 0.160077 0.018511
C58   C     C_R   0.003757 0.511217 0.160076 0.018526
C59   C     C_R   0.648934 0.969147 0.363960 -0.000104
C60   C     C_R   0.148931 0.469142 0.363956 -0.000102
C61   C     C_R   0.661122 0.294642 0.134527 -0.191111
C62   C     C_R   0.660721 0.698958 0.120186 -0.187619
C63   C     C_R   0.161139 0.794620 0.134558 -0.191102
C64   C     C_R   0.160653 0.198856 0.120010 -0.187653
C65   C     C_R   0.308127 0.850856 0.239139 -0.074126
C66   C     C_R   0.314643 0.152902 0.248610 -0.063247
C67   C     C_R   0.808126 0.350857 0.239137 -0.074133
C68   C     C_R   0.814663 0.652924 0.248647 -0.063291
C69   C     C_R   0.715420 0.201158 0.691820 -0.267641
C70   C     C_R   0.771075 0.856095 0.784432 -0.273049
C71   C     C_R   0.215404 0.701169 0.691803 -0.267639
C72   C     C_R   0.271102 0.356144 0.784502 -0.272982
C73   C     C_R   0.263111 0.767239 0.752744 0.263854
C74   C     C_R   0.353666 0.335382 0.914846 0.258723
C75   C     C_R   0.763138 0.267222 0.752770 0.263855
C76   C     C_R   0.853644 0.835326 0.914763 0.258597
C77   C     C_R   0.261439 0.801263 0.854001 0.177534
C78   C     C_R   0.349867 0.300791 0.012464 0.177906
C79   C     C_R   0.761471 0.301248 0.854032 0.177524
C80   C     C_R   0.849858 0.800747 0.012402 0.177845
C81   C     C_R   0.711355 0.269012 0.890337 0.002098
C82   C     C_R   0.762798 0.780209 0.971829 -0.003499
C83   C     C_R   0.211340 0.769017 0.890325 0.002101
C84   C     C_R   0.262803 0.280225 0.971847 -0.003480
C85   C     C_R   0.644937 0.215772 0.799231 0.030930
C86   C     C_R   0.681122 0.806269 0.843004 0.023535
C87   C     C_R   0.144929 0.715772 0.799230 0.030927
C88   C     C_R   0.181131 0.306271 0.842999 0.023556
Cu1   Cu    Cu3+1 0.526340 1.000000 0.421010 0.929643
Cu2   Cu    Cu3+1 0.026340 0.500000 0.421010 0.929650
Cu3   Cu    Cu3+1 0.473640 0.000000 0.578990 0.932523
Cu4   Cu    Cu3+1 0.973640 0.500000 0.578990 0.932518
H1    H     H_    0.702774 0.917170 0.108162 0.191340
H2    H     H_    0.202754 0.417140 0.108145 0.191330
H3    H     H_    0.300893 0.028663 0.515006 0.142160
H4    H     H_    0.800923 0.528764 0.515029 0.142285
H5    H     H_    0.351150 0.053684 0.900796 0.136291
H6    H     H_    0.851157 0.553733 0.900792 0.136359
H7    H     H_    0.517874 0.223629 0.905700 0.173661
H8    H     H_    0.522696 0.756355 0.875309 0.167705
H9    H     H_    0.017887 0.723605 0.905736 0.173687
H10   H     H_    0.022655 0.256259 0.875138 0.167707
H11   H     H_    0.608406 0.281440 0.140903 0.142360
H12   H     H_    0.596347 0.698567 0.101006 0.136971
H13   H     H_    0.108436 0.781405 0.140953 0.142310
H14   H     H_    0.096252 0.198415 0.100749 0.136947
H15   H     H_    0.360563 0.831051 0.132548 0.185016
H16   H     H_    0.383462 0.182272 0.171653 0.185965
H17   H     H_    0.860582 0.331029 0.132583 0.185013
H18   H     H_    0.883419 0.682220 0.171546 0.185945
H19   H     H_    0.720846 0.171264 0.621987 0.183399
H20   H     H_    0.772678 0.887157 0.712774 0.171293
H21   H     H_    0.220830 0.671279 0.621968 0.183398
H22   H     H_    0.272712 0.387222 0.712867 0.171242
H23   H     H_    0.508668 0.176923 0.714400 0.183932
H24   H     H_    0.530717 0.805578 0.704848 0.159641
H25   H     H_    0.008667 0.676913 0.714418 0.183918
H26   H     H_    0.030722 0.305547 0.704770 0.159614
H27   H     H_    0.695702 0.959390 0.476058 0.130000
H28   H     H_    0.195699 0.459386 0.476054 0.129999
N1    N     N_R   0.566260 1.000000 0.302220 -0.198387
N2    N     N_R   0.066260 0.500000 0.302220 -0.198385
N3    N     N_R   0.434410 0.000000 0.697680 -0.225875
N4    N     N_R   0.934410 0.500000 0.697680 -0.225862
O1    O     O_R   0.608610 0.924520 0.551740 -0.589117
O2    O     O_R   0.608610 0.075480 0.551740 -0.580844
O3    O     O_R   0.108610 0.424520 0.551740 -0.589116
O4    O     O_R   0.108610 0.575480 0.551740 -0.580843
O5    O     O_R   0.564110 0.924510 0.685150 -0.568970
O6    O     O_R   0.564110 0.075490 0.685150 -0.541154
O7    O     O_R   0.064110 0.424510 0.685150 -0.568955
O8    O     O_R   0.064110 0.575490 0.685150 -0.541165
O9    O     O_R   0.435880 0.075470 0.314850 -0.590551
O10   O     O_R   0.435880 0.924530 0.314850 -0.569843
O11   O     O_R   0.935880 0.575470 0.314850 -0.590543
O12   O     O_R   0.935880 0.424530 0.314850 -0.569832
O13   O     O_R   0.391380 0.075460 0.448260 -0.604947
O14   O     O_R   0.391380 0.924540 0.448260 -0.591305
O15   O     O_R   0.891380 0.575460 0.448260 -0.605008
O16   O     O_R   0.891380 0.424540 0.448260 -0.591282
H29   H     H_    0.241465 0.854195 0.329888 0.157951
H30   H     H_    0.226122 0.128696 0.296693 0.142215
H31   H     H_    0.741442 0.354220 0.329853 0.157949
H32   H     H_    0.726223 0.628840 0.296942 0.142460
N5    N     N_2   0.756177 0.907756 0.349954 -0.439385
H33   H     H_    0.768567 0.869396 0.420108 0.250583
C89   C     C_3   0.835197 0.954478 0.412230 -0.735443
H34   H     H_    0.849217 0.986912 0.500478 0.221808
H35   H     H_    0.823300 0.991404 0.332059 0.236270
H36   H     H_    0.896596 0.921031 0.454032 0.234753
N6    N     N_2   0.256164 0.407736 0.349944 -0.439369
H37   H     H_    0.268554 0.369383 0.420107 0.250601
C90   C     C_3   0.335185 0.454452 0.412206 -0.735546
H38   H     H_    0.349202 0.486902 0.500431 0.221828
H39   H     H_    0.323297 0.491362 0.332027 0.236277
H40   H     H_    0.396582 0.421001 0.454031 0.234756
H41   H     H_    0.437631 0.032379 0.117841 0.131899
H42   H     H_    0.937629 0.532382 0.117839 0.131872
N7    N     N_2   0.227959 0.074282 0.628326 -0.443528
H43   H     H_    0.202850 0.071029 0.681227 0.252353
C91   C     C_3   0.218334 0.146266 0.575704 -0.697442
H44   H     H_    0.146433 0.165002 0.516456 0.228435
H45   H     H_    0.233652 0.146336 0.503097 0.223116
H46   H     H_    0.265616 0.184632 0.664916 0.233980
N8    N     N_2   0.728049 0.574445 0.628331 -0.443592
H47   H     H_    0.702726 0.570913 0.680891 0.252334
C92   C     C_3   0.718867 0.646664 0.576854 -0.697345
H48   H     H_    0.646938 0.665443 0.517160 0.228487
H49   H     H_    0.734759 0.647155 0.504950 0.223280
H50   H     H_    0.765969 0.684754 0.666723 0.233996
N9    N     N_2   0.649215 0.001983 0.906604 -0.353111
H51   H     H_    0.693851 0.964513 0.917627 0.247383
C93   C     C_3   0.702523 0.063355 0.999147 -0.675057
H52   H     H_    0.736690 0.090758 0.964447 0.225432
H53   H     H_    0.757209 0.045206 0.108995 0.197601
H54   H     H_    0.657694 0.102199 0.998577 0.249932
N10   N     N_2   0.149206 0.501973 0.906611 -0.353117
H55   H     H_    0.193848 0.464509 0.917638 0.247374
C94   C     C_3   0.202502 0.563347 0.999159 -0.675036
H56   H     H_    0.236663 0.590763 0.964462 0.225445
H57   H     H_    0.257191 0.545197 0.109003 0.197598
H58   H     H_    0.157666 0.602180 0.998593 0.249921
N11   N     N_2   0.300146 0.871802 0.906843 -0.449293
H59   H     H_    0.357068 0.884356 0.917109 0.265105
C95   C     C_3   0.233264 0.929359 0.850486 -0.695067
H60   H     H_    0.266326 0.977746 0.920274 0.221320
H61   H     H_    0.175017 0.913836 0.846242 0.238109
H62   H     H_    0.205812 0.942649 0.742527 0.223989
N12   N     N_2   0.432666 0.293488 0.154807 -0.456598
H63   H     H_    0.490923 0.281387 0.168277 0.248923
C96   C     C_3   0.447103 0.348937 0.250898 -0.706645
H64   H     H_    0.509790 0.336265 0.360048 0.233804
H65   H     H_    0.387570 0.351180 0.248454 0.251700
H66   H     H_    0.456450 0.402613 0.222093 0.219512
N13   N     N_2   0.800202 0.371779 0.906901 -0.449276
H67   H     H_    0.857137 0.384318 0.917193 0.265089
C97   C     C_3   0.733341 0.429351 0.850546 -0.695085
H68   H     H_    0.766416 0.477730 0.920355 0.221342
H69   H     H_    0.675077 0.413842 0.846272 0.238116
H70   H     H_    0.705909 0.442647 0.742600 0.223831
N14   N     N_2   0.932669 0.793433 0.154734 -0.456589
H71   H     H_    0.990915 0.781327 0.168180 0.248917
C98   C     C_3   0.947131 0.848881 0.250847 -0.706529
H72   H     H_    0.009828 0.836204 0.359989 0.233800
H73   H     H_    0.887612 0.851130 0.248435 0.251675
H74   H     H_    0.956477 0.902556 0.222039 0.219518
N15   N     N_2   0.311627 0.800860 0.713370 -0.437178
H75   H     H_    0.302728 0.856039 0.699458 0.260549
C99   C     C_3   0.317002 0.765134 0.614219 -0.734176
H76   H     H_    0.360273 0.798069 0.602009 0.232011
H77   H     H_    0.247195 0.759585 0.509326 0.230185
H78   H     H_    0.349845 0.711298 0.654164 0.231957
N16   N     N_2   0.441108 0.355293 0.955792 -0.444490
H79   H     H_    0.486531 0.379379 0.054129 0.257223
C100  C     C_3   0.446033 0.385169 0.853220 -0.720371
H80   H     H_    0.519200 0.390689 0.900741 0.242452
H81   H     H_    0.414831 0.439916 0.821528 0.220001
H82   H     H_    0.411005 0.348597 0.759599 0.237252
N17   N     N_2   0.811663 0.300837 0.713405 -0.437169
H83   H     H_    0.802803 0.356021 0.699551 0.260529
C101  C     C_3   0.816990 0.265125 0.614190 -0.734169
H84   H     H_    0.860260 0.298055 0.601973 0.232013
H85   H     H_    0.747168 0.259602 0.509310 0.230190
H86   H     H_    0.849811 0.211278 0.654080 0.231935
N18   N     N_2   0.941081 0.855227 0.955679 -0.444491
H87   H     H_    0.986513 0.879308 0.054009 0.257260
C102  C     C_3   0.945994 0.885111 0.853106 -0.720460
H88   H     H_    0.019158 0.890637 0.900617 0.242459
H89   H     H_    0.914790 0.939853 0.821423 0.220020
H90   H     H_    0.910964 0.848544 0.759486 0.237283

loop_
_geom_bond_atom_site_label_1
_geom_bond_atom_site_label_2
_ccdc_geom_bond_type
C59   N1    A    
C38   N8    S    
C83   C87   A    
N9    H51   S    
C39   O13   A    
C37   C43   A    
N8    H47   S    
N13   C97   S    
N18   C102  S    
N14   C98   S    
N14   H71   S    
C14   C18   A    
C53   C55   A    
C89   H34   S    
Cu2   O4    S    
C48   C56   A    
C98   H72   S    
C11   C63   A    
C20   H26   S    
N5    H33   S    
C79   N13   S    
C32   C72   A    
Cu3   O6    S    
Cu1   O1    S    
N16   H79   S    
C15   C19   A    
N9    C93   S    
C18   C86   A    
Cu1   N1    S    
N17   H83   S    
C2    C29   S    
C9    C61   A    
C61   H11   S    
C1    O1    A    
C5    C11   A    
C101  H86   S    
C1    O5    A    
N11   C95   S    
C6    C12   A    
C12   C64   A    
C3    O3    A    
C95   H61   S    
C77   C83   A    
C6    C22   A    
C72   H22   S    
C99   H78   S    
C49   C57   A    
C71   H21   S    
C42   O12   A    
C25   C63   A    
C23   C67   A    
C97   H69   S    
C102  H88   S    
C9    C13   A    
C22   C66   A    
C26   C64   A    
C27   C61   A    
C99   H77   S    
Cu3   O13   S    
C3    O7    A    
Cu2   Cu4   S    
C12   C16   A    
C44   C46   A    
C49   C51   A    
C40   O14   A    
C3    C32   S    
C50   C52   A    
Cu2   O3    S    
N7    C91   S    
C69   C75   A    
C28   H32   S    
C45   C49   A    
C30   C86   A    
N16   C100  S    
C30   C70   A    
C29   C85   A    
C4    C31   S    
C56   N10   S    
C94   H58   S    
C21   C65   A    
C31   C71   A    
C73   N15   S    
N6    H37   S    
C33   C59   A    
Cu3   N3    S    
C34   C60   A    
Cu2   N2    S    
C10   C62   A    
C78   N12   S    
C11   C15   A    
C55   N9    S    
C70   H20   S    
C91   H45   S    
C52   C54   A    
C91   H44   S    
C92   H50   S    
C29   C69   A    
Cu1   O2    S    
C45   C47   A    
C23   H17   S    
C98   H74   S    
C46   C48   A    
C58   N2    A    
Cu1   O9    S    
N5    C89   S    
C53   H1    S    
N15   H75   S    
C26   C66   A    
C76   C80   A    
Cu4   O7    S    
C6    C84   A    
C72   C74   A    
C10   C14   A    
C100  H82   S    
C18   H24   S    
C92   H48   S    
C71   C73   A    
C2    O6    A    
C35   N3    A    
C95   H62   S    
N10   C94   S    
C93   H52   S    
C42   O16   A    
C62   H12   S    
C96   H64   S    
C92   H49   S    
Cu4   O8    S    
C50   C58   A    
C13   H7    S    
C97   H70   S    
N11   H59   S    
C96   H65   S    
C5    C83   A    
C38   C44   A    
C101  H84   S    
C54   H2    S    
N17   C101  S    
Cu3   O14   S    
C98   H73   S    
C36   H4    S    
C27   H31   S    
N7    H43   S    
C75   N17   S    
C16   C20   A    
C89   H36   S    
C99   H76   S    
C24   H18   S    
C14   H8    S    
C15   H9    S    
C90   H40   S    
C60   N2    A    
C43   C45   A    
C21   H15   S    
C93   H53   S    
C33   N5    S    
C2    O2    A    
C16   H10   S    
C7    C81   A    
N10   H55   S    
C40   C65   S    
C74   N16   S    
C58   H42   S    
C42   C67   S    
C39   C66   S    
C17   C85   A    
C31   C87   A    
C90   H39   S    
C36   N4    A    
Cu4   O16   S    
C41   O11   A    
C91   H46   S    
C17   H23   S    
C47   C55   A    
C39   O9    A    
C93   H54   S    
C35   C37   A    
N12   H63   S    
C7    C9    A    
C80   N14   S    
C57   H41   S    
C41   C68   S    
C4    O4    A    
C59   H27   S    
Cu1   O10   S    
C28   C68   A    
C76   N18   S    
C34   C52   A    
C43   H5    S    
C8    C10   A    
C25   H29   S    
C84   C88   A    
C57   N1    A    
C48   N4    A    
C34   N6    S    
C79   C81   A    
C54   C56   A    
C64   H14   S    
C47   N3    A    
Cu3   O5    S    
C35   H3    S    
C94   H56   S    
C33   C51   A    
C89   H35   S    
C46   C50   A    
C19   C87   A    
C13   C17   A    
C37   N7    S    
Cu4   N4    S    
C96   H66   S    
C101  H85   S    
C102  H89   S    
C82   C86   A    
C70   C76   A    
Cu2   O11   S    
C4    O8    A    
C95   H60   S    
C40   O10   A    
C7    C23   A    
C20   C88   A    
C36   C38   A    
C1    C30   S    
C8    C24   A    
C80   C82   A    
Cu2   O12   S    
C60   H28   S    
N6    C90   S    
C100  H80   S    
C22   H16   S    
C97   H68   S    
C69   H19   S    
C41   O15   A    
C100  H81   S    
C27   C67   A    
C63   H13   S    
C24   C68   A    
C51   C53   A    
C44   H6    S    
N13   H67   S    
C78   C84   A    
C8    C82   A    
C102  H90   S    
C5    C21   A    
C19   H25   S    
N8    C92   S    
Cu1   Cu3   S    
C74   C78   A    
N15   C99   S    
C25   C65   A    
C73   C77   A    
C94   H57   S    
N12   C96   S    
C90   H38   S    
C26   H30   S    
Cu4   O15   S    
C75   C79   A    
C81   C85   A    
C77   N11   S    
C28   C62   A    
N18   H87   S    
C32   C88   A    
