data_mof_unit_37638.cif
_audit_creation_date              2012-12-11T15:54:36-0500
_audit_creation_method            fapswitch 2.2
_symmetry_space_group_name_H-M    P1
_symmetry_Int_Tables_number       1
_space_group_crystal_system       triclinic
_cell_length_a                    6.926853
_cell_length_b                    14.539698
_cell_length_c                    16.082806
_cell_angle_alpha                 89.999903
_cell_angle_beta                  89.805359
_cell_angle_gamma                 90.142964
_cell_volume                      1619.75497507

loop_
_atom_site_label
_atom_site_type_symbol
_atom_type_description
_atom_site_fract_x
_atom_site_fract_y
_atom_site_fract_z
_atom_type_partial_charge
O1    O     O_R   0.638180 0.333920 0.163320 -0.508721
O2    O     O_R   0.361820 0.666080 0.836680 -0.508721
O3    O     O_R   0.308470 0.344960 0.336080 -0.549319
O4    O     O_R   0.691530 0.655040 0.663920 -0.549319
O5    O     O_R   0.138140 0.166110 0.336680 -0.542392
O6    O     O_R   0.861860 0.833890 0.663320 -0.542392
C1    C     C_R   0.477462 0.367111 0.365123 0.671881
C2    C     C_R   0.522538 0.632889 0.634877 0.671882
O7    O     O_R   0.308460 0.344950 0.163930 -0.534877
O8    O     O_R   0.691540 0.655050 0.836070 -0.534877
O9    O     O_R   0.138140 0.166100 0.163310 -0.542321
O10   O     O_R   0.861860 0.833900 0.836690 -0.542321
C3    C     C_R   0.478153 0.365528 0.133769 0.782393
C4    C     C_R   0.521847 0.634471 0.866231 0.782393
O11   O     O_R   0.638180 0.333930 0.336700 -0.549798
O12   O     O_R   0.361820 0.666070 0.663300 -0.549798
O13   O     O_3   0.471670 0.191340 0.250000 -0.374604
O14   O     O_3   0.528330 0.808660 0.750000 -0.374604
V1    V     V_3+5 0.196830 0.260900 0.250000 1.486161
V2    V     V_3+5 0.803170 0.739100 0.750000 1.486161
O15   O     O_R   0.808420 0.155070 0.163920 -0.536438
O16   O     O_R   0.191580 0.844930 0.836080 -0.536438
C5    C     C_R   0.977550 0.132700 0.135049 0.747965
C6    C     C_R   0.022450 0.867300 0.864951 0.747965
O17   O     O_R   0.808420 0.155080 0.336070 -0.542094
O18   O     O_R   0.191580 0.844920 0.663930 -0.542094
C7    C     C_R   0.976933 0.133243 0.364830 0.675135
C8    C     C_R   0.023067 0.866757 0.635170 0.675135
V3    V     V_3+5 0.696830 0.239130 0.250000 1.501280
V4    V     V_3+5 0.303170 0.760870 0.750000 1.501280
O19   O     O_3   0.971850 0.308690 0.250010 -0.361808
O20   O     O_3   0.028150 0.691310 0.749990 -0.361808
C9    C     C_R   0.834181 0.174914 0.530221 -0.225721
C10   C     C_R   0.165819 0.825086 0.469779 -0.225721
C11   C     C_R   0.766866 0.197776 0.609281 -0.155062
C12   C     C_R   0.233134 0.802224 0.390719 -0.155062
C13   C     C_R   0.780581 0.134834 0.674106 0.448537
C14   C     C_R   0.219419 0.865166 0.325894 0.448537
C15   C     C_R   0.861558 0.048479 0.660102 -0.186743
C16   C     C_R   0.138442 0.951521 0.339898 -0.186743
C17   C     C_R   0.929326 0.022867 0.580252 0.007842
C18   C     C_R   0.070674 0.977133 0.419748 0.007842
C19   C     C_R   0.915631 0.087501 0.513906 0.073657
C20   C     C_R   0.084369 0.912499 0.486094 0.073657
C21   C     C_R   0.013454 0.935250 0.566405 -0.132741
C22   C     C_R   0.986545 0.064749 0.433595 -0.132741
H1    H     H_    0.822705 0.226935 0.482441 0.125383
H2    H     H_    0.177295 0.773065 0.517559 0.125383
H3    H     H_    0.705064 0.265080 0.620161 0.156757
H4    H     H_    0.294936 0.734919 0.379839 0.156757
H5    H     H_    0.872200 0.002436 0.712706 0.131097
H6    H     H_    0.127800 0.997564 0.287293 0.131097
C23   C     C_R   0.179895 0.971182 0.970286 -0.076198
C24   C     C_R   0.820105 0.028818 0.029714 -0.076198
H7    H     H_    0.320978 0.949799 0.948632 0.123325
H8    H     H_    0.679022 0.050201 0.051368 0.123325
C25   C     C_R   0.168775 0.034613 0.035633 -0.084757
C26   C     C_R   0.831225 0.965387 0.964367 -0.084757
H9    H     H_    0.301835 0.060324 0.062163 0.124788
H10   H     H_    0.698164 0.939676 0.937837 0.124788
C27   C     C_R   0.988722 0.064328 0.066263 -0.055209
C28   C     C_R   0.011278 0.935672 0.933737 -0.055209
C29   C     C_R   0.321354 0.478478 0.464588 -0.143437
C30   C     C_R   0.678646 0.521522 0.535412 -0.143436
H11   H     H_    0.181288 0.463119 0.438230 0.118287
H12   H     H_    0.818712 0.536881 0.561770 0.118286
C31   C     C_R   0.332562 0.542275 0.529626 -0.150093
C32   C     C_R   0.667438 0.457725 0.470374 -0.150092
H13   H     H_    0.200589 0.574291 0.551193 0.115192
H14   H     H_    0.799411 0.425709 0.448807 0.115192
C33   C     C_R   0.511343 0.564619 0.566013 -0.038699
C34   C     C_R   0.488657 0.435381 0.433987 -0.038699
C35   C     C_R   0.341579 0.497054 0.053802 -0.179043
C36   C     C_R   0.658421 0.502946 0.946197 -0.179043
H15   H     H_    0.218849 0.496618 0.095768 0.190768
H16   H     H_    0.781151 0.503382 0.904232 0.190768
C37   C     C_R   0.349044 0.563448 0.990833 0.415480
C38   C     C_R   0.650955 0.436552 0.009167 0.415480
C39   C     C_R   0.508785 0.566748 0.935499 -0.200216
C40   C     C_R   0.491215 0.433252 0.064501 -0.200215
Cl1   Cl    Cl    0.302031 0.835530 0.226132 -0.615996
Cl2   Cl    Cl    0.697969 0.164469 0.773867 -0.615996
Cl3   Cl    Cl    0.157673 0.643240 0.987597 -0.609642
Cl4   Cl    Cl    0.842326 0.356760 0.012403 -0.609642

loop_
_geom_bond_atom_site_label_1
_geom_bond_atom_site_label_2
_ccdc_geom_bond_type
C26   C28   A    
C15   H5    S    
C29   H11   S    
O13   V3    S    
O4    C2    A    
V1    O19   S    
C15   C17   A    
O9    V1    S    
C36   H16   S    
C30   C32   A    
C11   C13   A    
O3    C1    A    
C24   C26   A    
C38   C40   A    
C25   H9    S    
C31   C33   A    
C37   Cl3   S    
C26   H10   S    
C18   C22   A    
C30   C33   A    
O7    C3    A    
C9    C11   A    
O5    C7    A    
O7    V1    S    
O6    C8    A    
O8    V2    S    
C11   H3    S    
O3    V1    S    
O14   V4    S    
C10   C12   A    
C16   C18   A    
C3    C40   S    
C2    O12   A    
C14   C16   A    
C17   C19   A    
C18   C20   A    
O11   V3    S    
C29   C31   A    
C23   H7    S    
O17   V3    S    
C13   C15   A    
C24   H8    S    
C8    C21   S    
C9    C19   A    
C10   C20   A    
O8    C4    A    
C1    C34   S    
C23   C25   A    
C1    O11   A    
C16   H6    S    
O15   V3    S    
C31   H13   S    
C30   H12   S    
C23   C28   A    
C32   C34   A    
O10   V2    S    
O1    V3    S    
C37   C39   A    
C4    C39   S    
C7    C22   S    
O18   V4    S    
C36   C39   A    
O15   C5    A    
C14   Cl1   S    
C9    H1    S    
O16   C6    A    
C13   Cl2   S    
O1    C3    A    
C35   H15   S    
C12   H4    S    
C20   C21   A    
V2    O20   S    
C2    C33   S    
C6    C28   S    
O16   V4    S    
C25   C27   A    
O5    V1    S    
C24   C27   A    
O17   C7    A    
O6    V2    S    
O10   C6    A    
O18   C8    A    
O2    V4    S    
C12   C14   A    
V3    O19   S    
C17   C21   A    
V4    O20   S    
O9    C5    A    
O13   V1    S    
C35   C40   A    
O14   V2    S    
O2    C4    A    
C19   C22   A    
O4    V2    S    
C38   Cl4   S    
C5    C27   S    
C10   H2    S    
C29   C34   A    
C32   H14   S    
C36   C38   A    
C35   C37   A    
O12   V4    S    
