data_mof_unit_55239.cif
_audit_creation_date              2013-03-05T15:54:48-0500
_audit_creation_method            fapswitch 2.2
_symmetry_space_group_name_H-M    P1
_symmetry_Int_Tables_number       1
_space_group_crystal_system       triclinic
_cell_length_a                    19.015659
_cell_length_b                    10.726509
_cell_length_c                    9.875482
_cell_angle_alpha                 89.059087
_cell_angle_beta                  90.139483
_cell_angle_gamma                 91.752322
_cell_volume                      2013.10099923

loop_
_atom_site_label
_atom_site_type_symbol
_atom_site_description
_atom_site_fract_x
_atom_site_fract_y
_atom_site_fract_z
_atom_type_partial_charge
O1    O     O_R   0.500000 0.316780 0.614690 -0.648521
O2    O     O_R   0.499990 0.316750 0.385360 -0.637447
C1    C     C_R   0.503565 0.259594 0.502263 0.888674
O3    O     O_R   0.398140 0.500000 0.614700 -0.638596
O4    O     O_R   0.398130 0.499970 0.385370 -0.635276
C2    C     C_R   0.365176 0.495724 0.499902 0.860505
Zn1   Zn    Zn3+2 0.500000 0.500020 0.653130 0.929026
Zn2   Zn    Zn3+2 0.500000 0.499980 0.346870 0.937579
O5    O     O_R   0.500010 0.683250 0.614640 -0.625011
O6    O     O_R   0.500000 0.683220 0.385310 -0.615055
O7    O     O_R   0.601870 0.500030 0.614630 -0.619003
O8    O     O_R   0.601860 0.500000 0.385300 -0.616608
C3    C     C_R   0.492508 0.738717 0.499349 0.885544
C4    C     C_R   0.634858 0.498402 0.500112 0.864992
C5    C     C_R   0.249874 0.481104 0.616570 -0.154175
H1    H     H_    0.273362 0.518544 0.707937 0.149619
C6    C     C_R   0.178858 0.447455 0.616150 -0.148634
H2    H     H_    0.148239 0.464572 0.705882 0.140119
C7    C     C_R   0.146933 0.398635 0.499200 0.039781
C8    C     C_R   0.187837 0.378943 0.382373 0.036939
C9    C     C_R   0.258483 0.417423 0.383153 -0.224032
H3    H     H_    0.289814 0.402773 0.294038 0.154639
C10   C     C_R   0.289634 0.468691 0.499065 -0.032902
N1    N     N_R   0.035506 0.417323 0.379887 -0.157416
N2    N     N_R   0.966109 0.425710 0.379583 -0.177581
C11   C     C_R   0.928935 0.406478 0.495270 0.282970
N3    N     N_R   0.963476 0.375250 0.610687 -0.181201
N4    N     N_R   0.032994 0.366509 0.610904 -0.180133
C12   C     C_R   0.070190 0.388083 0.495495 0.273078
C13   C     C_R   0.817149 0.430848 0.620370 -0.162927
H4    H     H_    0.843421 0.412252 0.715670 0.149132
C14   C     C_R   0.746181 0.457715 0.621930 -0.197985
H5    H     H_    0.718934 0.457025 0.718147 0.155329
C15   C     C_R   0.710716 0.482283 0.500155 -0.037179
C16   C     C_R   0.747244 0.481480 0.377097 -0.194670
H6    H     H_    0.720944 0.499757 0.281708 0.154709
C17   C     C_R   0.818128 0.454946 0.375557 -0.163263
H7    H     H_    0.845005 0.454635 0.279017 0.149459
C18   C     C_R   0.853546 0.428910 0.497074 0.089633
H8    H     H_    0.516435 0.114623 0.289547 0.171750
C19   C     C_R   0.504839 0.105163 0.763395 -0.170007
H9    H     H_    0.535277 0.189658 0.781756 0.168378
C20   C     C_R   0.479589 0.040543 0.877917 -0.151062
H10   H     H_    0.487058 0.079749 0.977461 0.138546
C21   C     C_R   0.443318 0.927203 0.863726 -0.088883
H11   H     H_    0.420893 0.879351 0.951583 0.142587
C22   C     C_R   0.438871 0.872753 0.736857 -0.120786
H12   H     H_    0.410763 0.783876 0.729375 0.154042
C23   C     C_R   0.470480 0.932465 0.622194 0.099215
C24   C     C_R   0.493739 0.056851 0.631644 0.122540
C25   C     C_R   0.504975 0.125406 0.508305 -0.118105
C26   C     C_R   0.506904 0.064549 0.384280 -0.217090
H13   H     H_    0.505753 0.891890 0.284813 0.168233
C27   C     C_R   0.498350 0.937647 0.380550 -0.205750
C28   C     C_R   0.482602 0.870839 0.499433 -0.132085
H14   H     H_    0.579461 0.639556 0.123606 0.142528
C29   C     C_R   0.407184 0.337197 0.142244 -0.255983
H15   H     H_    0.404623 0.330438 0.249551 0.227928
C30   C     C_R   0.360403 0.258699 0.073359 -0.305791
H16   H     H_    0.324963 0.197536 0.131153 0.205743
C31   C     C_R   0.359319 0.258683 0.932379 0.330869
C32   C     C_R   0.406405 0.338653 0.861739 -0.269487
H17   H     H_    0.405494 0.332925 0.754654 0.246219
C33   C     C_R   0.453903 0.420242 0.928776 0.099510
C34   C     C_R   0.454122 0.419915 0.073362 0.188286
N5    N     N_R   0.499340 0.498800 0.142780 -0.112158
C35   C     C_R   0.543777 0.576853 0.070461 -0.129867
H18   H     H_    0.579509 0.639371 0.871989 0.149218
C36   C     C_R   0.543809 0.576732 0.927080 -0.116866
N6    N     N_R   0.499320 0.498720 0.857170 -0.114135
N7    N     N_R   0.311571 0.176059 0.860848 0.211827
O9    O     O_R   0.308137 0.179630 0.729177 -0.411676
O10   O     O_R   0.271600 0.095346 0.926727 -0.407515
C37   C     C_R   0.159780 0.314105 0.260696 0.109623
C38   C     C_R   0.172821 0.363977 0.130124 -0.171485
C39   C     C_R   0.148569 0.300604 0.015771 -0.073837
C40   C     C_R   0.111078 0.187184 0.030411 -0.036346
C41   C     C_R   0.098142 0.136489 0.159503 -0.133253
C42   C     C_R   0.122640 0.199136 0.274220 -0.121729
H19   H     H_    0.201673 0.451950 0.116780 0.135244
H20   H     H_    0.159109 0.339182 0.915751 0.138664
H21   H     H_    0.092375 0.138285 0.941683 0.142687
H22   H     H_    0.069459 0.048196 0.170688 0.138186
H23   H     H_    0.113127 0.157583 0.373441 0.137955

loop_
_geom_bond_atom_site_label_1
_geom_bond_atom_site_label_2
_geom_bond_distance
_ccdc_geom_bond_type
Zn2   N5    2.015741 S    
C19   H9    1.078023 S    
C7    C8    1.415314 A    
C20   H10   1.082899 S    
Zn1   N6    2.014882 S    
C22   C23   1.417631 A    
C40   C41   1.397148 A    
Zn1   O7    1.974987 S    
C11   N3    1.356475 A    
C32   H17   1.060374 S    
N4    C12   1.355756 A    
C16   C17   1.386290 A    
C13   H4    1.082927 S    
O7    C4    1.295204 A    
C11   C18   1.461074 S    
C29   C30   1.390381 A    
C5    H1    1.083450 S    
Zn1   O5    1.995695 S    
C15   C16   1.401497 A    
O5    C3    1.285611 A    
N1    C12   1.354267 A    
C32   C33   1.409873 A    
C41   H22   1.082539 S    
C16   H6    1.083324 S    
H18   C36   1.081745 S    
C33   N6    1.376039 A    
C38   H19   1.083243 S    
C31   N7    1.441223 S    
C5    C10   1.396940 A    
N5    C35   1.365683 A    
C30   H16   1.082988 S    
C9    H3    1.080263 S    
C19   C20   1.395209 A    
C31   C32   1.400205 A    
O3    Zn1   1.972855 S    
C26   C27   1.367033 A    
C24   C25   1.425570 A    
C21   C22   1.392302 A    
C30   C31   1.392351 A    
C37   C38   1.407544 A    
C25   C26   1.398412 A    
C39   C40   1.396771 A    
O3    C2    1.294892 A    
N7    O10   1.301607 A    
C1    C25   1.440698 S    
C41   C42   1.398315 A    
N2    C11   1.354517 A    
C23   C28   1.413101 A    
O1    C1    1.280170 A    
C14   C15   1.402491 A    
C38   C39   1.397704 A    
C17   H7    1.082930 S    
C22   H12   1.082115 S    
Zn2   O8    1.972852 S    
C6    H2    1.082756 S    
C8    C37   1.487911 S    
N1    N2    1.325429 A    
C20   C21   1.388241 A    
O8    C4    1.294664 A    
C23   C24   1.397241 A    
C37   C42   1.406856 A    
C9    C10   1.400374 A    
C7    C12   1.460651 S    
C19   C24   1.421296 A    
C5    C6    1.387140 A    
C27   C28   1.393741 A    
C42   H23   1.083083 S    
O1    Zn1   2.007960 S    
O2    Zn2   1.995692 S    
C29   C34   1.407606 A    
O6    C3    1.292654 A    
C39   H20   1.081430 S    
C4    C15   1.458053 S    
O4    Zn2   1.974991 S    
H13   C27   1.083834 S    
H14   C35   1.081764 S    
C14   H5    1.083193 S    
O2    C1    1.300852 A    
N7    O9    1.301783 A    
C17   C18   1.402950 A    
H8    C26   1.083945 S    
C33   C34   1.427799 A    
C13   C14   1.388688 A    
C29   H15   1.062131 S    
O4    C2    1.293849 A    
C40   H21   1.082391 S    
C2    C10   1.456772 S    
C6    C7    1.404870 A    
C13   C18   1.402789 A    
C36   N6    1.365802 A    
C21   H11   1.082531 S    
C8    C9    1.393281 A    
Zn2   O6    2.007959 S    
C34   N5    1.377301 A    
N3    N4    1.328091 A    
C35   C36   1.415975 A    
C3    C28   1.435384 S    
