data_mof_unit_46164.cif
_audit_creation_date              2012-12-11T20:50:47-0500
_audit_creation_method            fapswitch 2.2
_symmetry_space_group_name_H-M    P1
_symmetry_Int_Tables_number       1
_space_group_crystal_system       triclinic
_cell_length_a                    30.582566
_cell_length_b                    33.752696
_cell_length_c                    8.441765
_cell_angle_alpha                 90.000075
_cell_angle_beta                  89.950508
_cell_angle_gamma                 89.998698
_cell_volume                      8713.95846569

loop_
_atom_site_label
_atom_site_type_symbol
_atom_type_description
_atom_site_fract_x
_atom_site_fract_y
_atom_site_fract_z
_atom_type_partial_charge
Ba1   Ba    Ba6+2 0.999930 0.472870 0.844940 1.660997
Ba2   Ba    Ba6+2 0.999930 0.527130 0.344940 1.664887
Ba3   Ba    Ba6+2 0.499930 0.972870 0.844940 1.660485
Ba4   Ba    Ba6+2 0.499930 0.027130 0.344940 1.663400
C1    C     C_3   0.029324 0.287036 0.571257 -0.368441
C2    C     C_3   0.014285 0.722566 0.087526 -0.358070
C3    C     C_3   0.529460 0.787042 0.571069 -0.364472
C4    C     C_3   0.523841 0.217201 0.094691 -0.359198
C5    C     C_R   0.243325 0.696051 0.070522 -0.026676
C6    C     C_R   0.246974 0.305566 0.556438 -0.027965
C7    C     C_R   0.742713 0.195885 0.076891 -0.027108
C8    C     C_R   0.747198 0.805737 0.555047 -0.027539
C9    C     C_R   0.211137 0.668151 0.024764 0.589145
C10   C     C_R   0.214577 0.333590 0.513077 0.589843
C11   C     C_R   0.710533 0.168004 0.030860 0.588165
C12   C     C_R   0.714763 0.833751 0.512033 0.589726
C13   C     C_R   0.158196 0.720205 0.996626 0.576725
C14   C     C_R   0.162307 0.281342 0.476514 0.578425
C15   C     C_R   0.658945 0.220476 0.986927 0.570966
C16   C     C_R   0.662453 0.781502 0.476235 0.578240
C17   C     C_R   0.189877 0.748886 0.038202 -0.019079
C18   C     C_R   0.193630 0.252760 0.521710 -0.017829
C19   C     C_R   0.690535 0.249062 0.030222 -0.021455
C20   C     C_R   0.693820 0.752927 0.521012 -0.017989
C21   C     C_R   0.232596 0.736663 0.076388 -0.052208
C22   C     C_R   0.236216 0.264954 0.561705 -0.053402
C23   C     C_R   0.732588 0.236644 0.076085 -0.053156
C24   C     C_R   0.736444 0.765127 0.560472 -0.053390
C25   C     C_R   0.286045 0.684280 0.110757 -0.073556
C26   C     C_R   0.289917 0.317153 0.594694 -0.073152
C27   C     C_R   0.784844 0.183949 0.123901 -0.074339
C28   C     C_R   0.790172 0.817330 0.592807 -0.074004
C29   C     C_R   0.816142 0.211846 0.169965 -0.081860
C30   C     C_R   0.821715 0.789239 0.635365 -0.080614
C31   C     C_R   0.317330 0.712174 0.156969 -0.081682
C32   C     C_R   0.321427 0.289055 0.637496 -0.079324
C33   C     C_R   0.806460 0.252649 0.169659 -0.026649
C34   C     C_R   0.811262 0.748630 0.642798 -0.020910
C35   C     C_R   0.307072 0.752830 0.163120 -0.027004
C36   C     C_R   0.310973 0.248442 0.644718 -0.021242
C37   C     C_R   0.764606 0.265102 0.121775 -0.052943
C38   C     C_R   0.768415 0.736566 0.605459 -0.052650
C39   C     C_R   0.264647 0.765149 0.121544 -0.052512
C40   C     C_R   0.268151 0.236383 0.607009 -0.052679
C41   C     C_R   0.179650 0.789549 0.044101 -0.087087
C42   C     C_R   0.183145 0.212168 0.528686 -0.082969
C43   C     C_R   0.680849 0.289860 0.030050 -0.085626
C44   C     C_R   0.683340 0.712341 0.528117 -0.083091
C45   C     C_3   0.008910 0.309913 0.134527 0.355295
C46   C     C_3   0.012044 0.685106 0.530695 0.279074
C47   C     C_3   0.509175 0.809735 0.133360 0.357437
C48   C     C_3   0.509949 0.186733 0.540524 0.282751
C49   C     C_R   0.712313 0.317781 0.074438 -0.076831
C50   C     C_R   0.714516 0.684401 0.574280 -0.076469
C51   C     C_R   0.211219 0.817529 0.087080 -0.077635
C52   C     C_R   0.214279 0.184221 0.575217 -0.076718
C53   C     C_R   0.754515 0.305859 0.120771 -0.026010
C54   C     C_R   0.757341 0.696057 0.613364 -0.024757
C55   C     C_R   0.254019 0.805782 0.126516 -0.025452
C56   C     C_R   0.257076 0.195869 0.614775 -0.024568
C57   C     C_R   0.786707 0.333751 0.166756 0.584556
C58   C     C_R   0.789193 0.668123 0.661012 0.586555
C59   C     C_R   0.286296 0.833703 0.171580 0.584189
C60   C     C_R   0.288905 0.167928 0.662698 0.585929
C61   C     C_R   0.837774 0.281163 0.216116 0.576963
C62   C     C_R   0.842680 0.719854 0.686455 0.584494
C63   C     C_R   0.338338 0.781334 0.210108 0.577044
C64   C     C_R   0.342373 0.219653 0.688440 0.585646
C65   C     C_2   0.108950 0.655549 0.812401 -0.085761
C66   C     C_2   0.113881 0.347244 0.294849 -0.091551
C67   C     C_2   0.609766 0.154867 0.808701 -0.085450
C68   C     C_2   0.614024 0.847384 0.294562 -0.090175
C69   C     C_3   0.069594 0.632620 0.790573 -0.100175
C70   C     C_3   0.074525 0.370007 0.275847 -0.078721
C71   C     C_3   0.570146 0.132355 0.787659 -0.099219
C72   C     C_3   0.574641 0.870112 0.275746 -0.078656
C73   C     C_1   0.095143 0.589262 0.008284 0.021304
C74   C     C_1   0.097372 0.411978 0.499574 0.031360
C75   C     C_1   0.595132 0.089150 0.006727 0.026412
C76   C     C_1   0.597497 0.912043 0.499468 0.031590
C77   C     C_2   0.126815 0.616233 0.051619 -0.096442
C78   C     C_2   0.128363 0.384179 0.543773 -0.102762
C79   C     C_2   0.625859 0.116808 0.052579 -0.098721
C80   C     C_2   0.628463 0.884235 0.543699 -0.101831
C81   C     C_2   0.135529 0.651011 0.947942 0.221869
C82   C     C_2   0.138949 0.350600 0.434727 0.221572
C83   C     C_2   0.635394 0.151105 0.946972 0.217703
C84   C     C_2   0.639085 0.850722 0.434438 0.221447
C85   C     C_R   0.883625 0.346717 0.393408 -0.087549
C86   C     C_R   0.886013 0.655072 0.881779 -0.096098
C87   C     C_R   0.383784 0.846521 0.392663 -0.088218
C88   C     C_R   0.385786 0.154937 0.883768 -0.096104
C89   C     C_3   0.994032 0.266849 0.100724 0.245242
C90   C     C_3   0.029041 0.722327 0.617229 0.189455
C91   C     C_3   0.495698 0.766248 0.100274 0.245427
C92   C     C_3   0.528546 0.224306 0.620622 0.199180
C93   C     C_R   0.918232 0.375201 0.435419 -0.047356
C94   C     C_R   0.919267 0.625587 0.928342 -0.049050
C95   C     C_R   0.418282 0.875101 0.435131 -0.048750
C96   C     C_R   0.419169 0.125553 0.930231 -0.053885
C97   C     C_R   0.903562 0.411795 0.192839 0.042381
C98   C     C_R   0.904211 0.588352 0.689160 0.044855
C99   C     C_R   0.403490 0.911823 0.192877 0.042835
C100  C     C_R   0.404161 0.088317 0.690273 0.044525
C101  C     C_R   0.871120 0.383434 0.154616 -0.101272
C102  C     C_R   0.872575 0.617002 0.647415 -0.086083
C103  C     C_R   0.370888 0.883591 0.154969 -0.099552
C104  C     C_R   0.372408 0.116906 0.649085 -0.085202
C105  C     C_R   0.861683 0.350533 0.254944 0.216079
C106  C     C_R   0.864191 0.650766 0.743398 0.218922
C107  C     C_R   0.361652 0.850565 0.254713 0.217976
C108  C     C_R   0.363923 0.150593 0.745408 0.220851
C109  C     C_2   0.066560 0.597479 0.885813 -0.257969
C110  C     C_2   0.072148 0.406038 0.365382 -0.285716
C111  C     C_2   0.567722 0.096597 0.879759 -0.264703
C112  C     C_2   0.572390 0.906199 0.364920 -0.286974
C113  C     C_3   0.125113 0.474074 0.169393 0.292835
C114  C     C_3   0.126140 0.523431 0.698245 0.302754
C115  C     C_3   0.625294 0.974170 0.169732 0.296199
C116  C     C_3   0.624779 0.024795 0.688399 0.301230
C117  C     C_3   0.165774 0.448143 0.168155 -0.348019
C118  C     C_3   0.165521 0.550914 0.691428 -0.324391
C119  C     C_3   0.665889 0.948163 0.166481 -0.346743
C120  C     C_3   0.664509 0.051895 0.685331 -0.328610
C121  C     C_3   0.874856 0.526285 0.016856 0.297528
C122  C     C_3   0.874010 0.474035 0.517761 0.298493
C123  C     C_3   0.374801 0.026290 0.017160 0.297729
C124  C     C_3   0.374102 0.973978 0.517911 0.298397
C125  C     C_3   0.834177 0.552231 0.018750 -0.347866
C126  C     C_3   0.833034 0.448494 0.521136 -0.351920
C127  C     C_3   0.334085 0.052187 0.019222 -0.350000
C128  C     C_3   0.333164 0.948387 0.521498 -0.352519
C129  C     C_3   0.010325 0.328658 0.568043 0.377643
C130  C     C_3   0.001279 0.679416 0.066236 0.323851
C131  C     C_3   0.509994 0.828468 0.565604 0.375829
C132  C     C_3   0.503728 0.176795 0.064004 0.336332
C133  C     C_R   0.927983 0.407153 0.323245 -0.287826
C134  C     C_R   0.928555 0.593090 0.819220 -0.288570
C135  C     C_R   0.428008 0.907084 0.323012 -0.288009
C136  C     C_R   0.428501 0.093067 0.820564 -0.287081
H1    H     H_    0.035706 0.349841 0.609332 0.055913
H2    H     H_    0.030338 0.660439 0.088344 0.057121
H3    H     H_    0.535382 0.850063 0.603209 0.053045
H4    H     H_    0.529809 0.154121 0.076424 0.044982
H5    H     H_    0.191044 0.460910 0.247584 0.142905
H6    H     H_    0.194402 0.536164 0.745031 0.129193
H7    H     H_    0.691705 0.961175 0.242917 0.141684
H8    H     H_    0.692245 0.037622 0.748129 0.132004
H9    H     H_    0.157653 0.417909 0.209700 0.073962
H10   H     H_    0.158669 0.578559 0.757695 0.074036
H11   H     H_    0.657997 0.918103 0.210547 0.073825
H12   H     H_    0.656863 0.080343 0.744611 0.074003
H13   H     H_    0.179073 0.446113 0.045936 0.128483
H14   H     H_    0.173080 0.558598 0.566444 0.146624
H15   H     H_    0.678370 0.945658 0.043276 0.129658
H16   H     H_    0.674217 0.058046 0.560923 0.141645
H17   H     H_    0.885808 0.522564 0.892959 0.012463
H18   H     H_    0.884717 0.477584 0.393454 0.014102
H19   H     H_    0.385754 0.022616 0.893236 0.012859
H20   H     H_    0.384781 0.977516 0.393571 0.013925
H21   H     H_    0.900715 0.541002 0.088001 0.059659
H22   H     H_    0.899858 0.459123 0.588396 0.054993
H23   H     H_    0.400640 0.041010 0.088411 0.058401
H24   H     H_    0.399985 0.959111 0.588523 0.055328
H25   H     H_    0.807821 0.538123 0.948046 0.141609
H26   H     H_    0.806639 0.462878 0.451508 0.143421
H27   H     H_    0.307753 0.038082 0.948388 0.141793
H28   H     H_    0.306752 0.962692 0.451699 0.143142
H29   H     H_    0.841422 0.581671 0.967257 0.068645
H30   H     H_    0.839763 0.419017 0.469235 0.067246
H31   H     H_    0.341286 0.081660 0.967974 0.068441
H32   H     H_    0.339941 0.918883 0.469925 0.068012
H33   H     H_    0.822664 0.556347 0.142494 0.130585
H34   H     H_    0.821836 0.444457 0.645300 0.128644
H35   H     H_    0.322559 0.056229 0.142989 0.129880
H36   H     H_    0.321962 0.944414 0.645691 0.128071
H37   H     H_    0.001333 0.335776 0.444297 -0.097354
H38   H     H_    0.990048 0.675570 0.941792 -0.070143
H39   H     H_    0.500196 0.834836 0.442065 -0.096226
H40   H     H_    0.490672 0.176396 0.941135 -0.073568
H41   H     H_    0.046906 0.280838 0.459940 0.136075
H42   H     H_    0.037813 0.731335 0.994223 0.139741
H43   H     H_    0.546677 0.780430 0.459343 0.134904
H44   H     H_    0.540923 0.227772 0.987272 0.142567
H45   H     H_    0.053100 0.284295 0.669800 0.128658
H46   H     H_    0.029719 0.726972 0.205014 0.138695
H47   H     H_    0.553648 0.785041 0.668560 0.129120
H48   H     H_    0.548018 0.214892 0.191919 0.136937
H49   H     H_    0.998639 0.250141 0.213435 0.049170
H50   H     H_    0.047535 0.712036 0.722240 0.057681
H51   H     H_    0.500164 0.749934 0.213982 0.048928
H52   H     H_    0.550770 0.214477 0.716462 0.075074
H53   H     H_    0.703405 0.348837 0.072420 0.125694
H54   H     H_    0.704935 0.653526 0.578849 0.124776
H55   H     H_    0.201894 0.848482 0.089784 0.123144
H56   H     H_    0.204692 0.153344 0.579655 0.124289
H57   H     H_    0.147097 0.799934 0.015275 0.115017
H58   H     H_    0.150631 0.201834 0.498989 0.118399
H59   H     H_    0.648783 0.300398 0.995558 0.123863
H60   H     H_    0.650801 0.702006 0.498809 0.118542
H61   H     H_    0.848104 0.201288 0.205610 0.117303
H62   H     H_    0.854377 0.799506 0.663198 0.110188
H63   H     H_    0.349742 0.701740 0.187533 0.116877
H64   H     H_    0.354063 0.299323 0.665694 0.107323
H65   H     H_    0.875835 0.323106 0.475485 0.103927
H66   H     H_    0.879035 0.679708 0.959940 0.102516
H67   H     H_    0.376217 0.822646 0.473805 0.101423
H68   H     H_    0.378760 0.179555 0.961958 0.101577
H69   H     H_    0.295413 0.653340 0.107537 0.124533
H70   H     H_    0.299367 0.348072 0.591512 0.122952
H71   H     H_    0.793752 0.152893 0.125900 0.124454
H72   H     H_    0.799616 0.848248 0.589452 0.122756
H73   H     H_    0.144380 0.612788 0.162448 0.115245
H74   H     H_    0.144951 0.386699 0.656929 0.111962
H75   H     H_    0.642351 0.114049 0.165843 0.116911
H76   H     H_    0.645050 0.886736 0.656863 0.111955
H77   H     H_    0.115603 0.679879 0.731858 0.088582
H78   H     H_    0.121268 0.323937 0.210349 0.092039
H79   H     H_    0.617374 0.178261 0.725290 0.081710
H80   H     H_    0.621454 0.824120 0.209946 0.090724
H81   H     H_    0.852744 0.387256 0.046180 0.115025
H82   H     H_    0.854041 0.612833 0.539503 0.114576
H83   H     H_    0.352264 0.887552 0.047158 0.112177
H84   H     H_    0.353865 0.112763 0.541177 0.113475
H85   H     H_    0.952680 0.428733 0.354328 0.073613
H86   H     H_    0.952585 0.571134 0.852822 0.070302
H87   H     H_    0.452786 0.928602 0.353929 0.073619
H88   H     H_    0.452635 0.071165 0.853755 0.071049
H89   H     H_    0.002966 0.264590 0.583229 0.114592
H90   H     H_    0.984986 0.741869 0.078260 0.118606
H91   H     H_    0.503409 0.764429 0.586219 0.112692
H92   H     H_    0.498173 0.239139 0.126006 0.118606
H93   H     H_    0.037177 0.579734 0.873542 0.072967
H94   H     H_    0.045136 0.425991 0.341388 0.075002
H95   H     H_    0.538825 0.078328 0.864748 0.072999
H96   H     H_    0.545598 0.926334 0.340145 0.075013
H97   H     H_    0.981325 0.327099 0.186152 -0.019552
H98   H     H_    0.990502 0.694772 0.433464 0.105782
H99   H     H_    0.480895 0.826446 0.182460 -0.017090
H100  H     H_    0.486042 0.195921 0.449343 0.096201
H101  H     H_    0.034974 0.306569 0.223763 -0.079653
H102  H     H_    0.990864 0.667391 0.611738 -0.054348
H103  H     H_    0.534784 0.807104 0.224586 -0.083659
H104  H     H_    0.490937 0.169011 0.628247 -0.063579
H105  H     H_    0.112912 0.476488 0.292330 0.020203
H106  H     H_    0.120506 0.514992 0.822621 0.025882
H107  H     H_    0.613830 0.976908 0.293513 0.016329
H108  H     H_    0.616266 0.018499 0.812829 0.017632
H109  H     H_    0.100006 0.459957 0.092928 0.068161
H110  H     H_    0.097004 0.539108 0.651536 0.055858
H111  H     H_    0.599726 0.959911 0.095706 0.067674
H112  H     H_    0.597041 0.039892 0.629232 0.069738
N1    N     N_R   0.168933 0.680259 0.989020 -0.423428
N2    N     N_R   0.172574 0.321420 0.474493 -0.423739
N3    N     N_R   0.668931 0.180311 0.987576 -0.423976
N4    N     N_R   0.672733 0.821568 0.473978 -0.423820
N5    N     N_R   0.828268 0.321451 0.211252 -0.426365
N6    N     N_R   0.831555 0.680003 0.695777 -0.424321
N7    N     N_R   0.328292 0.821507 0.210718 -0.426414
N8    N     N_R   0.331248 0.179808 0.697793 -0.424304
O1    O     O_2   0.914200 0.445720 0.903420 -0.457399
O2    O     O_2   0.914200 0.554280 0.403420 -0.456554
O3    O     O_2   0.414200 0.945720 0.903420 -0.457500
O4    O     O_2   0.414200 0.054280 0.403420 -0.457266
O5    O     O_3   0.135211 0.489613 0.608616 -0.624391
O6    O     O_3   0.136314 0.511669 0.112780 -0.628455
O7    O     O_3   0.635286 0.989536 0.610371 -0.624800
O8    O     O_3   0.636247 0.011598 0.110768 -0.625900
O9    O     O_3   0.025757 0.329811 0.000461 -0.583125
O10   O     O_3   0.046723 0.663311 0.462160 -0.598861
O11   O     O_3   0.526218 0.829725 0.999799 -0.582722
O12   O     O_3   0.543272 0.164992 0.463519 -0.592177
O13   O     O_3   0.049930 0.518940 0.045960 -0.502000
O14   O     O_3   0.049930 0.481060 0.545960 -0.486663
O15   O     O_3   0.549930 0.018940 0.045960 -0.499958
O16   O     O_3   0.549930 0.981060 0.545960 -0.490999
O17   O     O_2   0.220838 0.633105 0.015459 -0.594140
O18   O     O_2   0.223947 0.368762 0.507979 -0.593310
O19   O     O_2   0.719751 0.132783 0.027819 -0.594099
O20   O     O_2   0.724116 0.868923 0.506778 -0.593239
O21   O     O_2   0.120791 0.730823 0.969568 -0.635960
O22   O     O_2   0.125642 0.270433 0.440246 -0.633443
O23   O     O_2   0.622288 0.231441 0.950512 -0.631987
O24   O     O_2   0.625739 0.770604 0.440567 -0.633961
O25   O     O_2   0.777429 0.368959 0.169638 -0.595399
O26   O     O_2   0.779012 0.633247 0.673573 -0.596055
O27   O     O_2   0.276741 0.868816 0.178454 -0.595999
O28   O     O_2   0.278724 0.133048 0.675132 -0.596423
O29   O     O_2   0.873684 0.270002 0.260654 -0.600836
O30   O     O_2   0.880073 0.730286 0.715364 -0.623034
O31   O     O_2   0.374666 0.770283 0.250430 -0.600020
O32   O     O_2   0.379770 0.230060 0.717283 -0.623777
O33   O     O_3   0.950020 0.480960 0.143730 -0.493983
O34   O     O_3   0.950020 0.519040 0.643730 -0.494343
O35   O     O_3   0.450020 0.980960 0.143730 -0.493941
O36   O     O_3   0.450020 0.019040 0.643730 -0.494247
O37   O     O_3   0.985090 0.412220 0.642040 -0.476388
O38   O     O_3   0.985090 0.587780 0.142040 -0.476383
O39   O     O_3   0.485090 0.912220 0.642040 -0.475757
O40   O     O_3   0.485090 0.087780 0.142040 -0.477024
O41   O     O_2   0.913577 0.379445 0.767342 -0.492588
O42   O     O_2   0.910117 0.617871 0.253853 -0.476714
O43   O     O_2   0.413656 0.879321 0.767431 -0.491262
O44   O     O_2   0.411177 0.118816 0.258663 -0.476739
O45   O     O_3   0.864101 0.489415 0.081139 -0.625614
O46   O     O_3   0.863767 0.511027 0.581920 -0.626151
O47   O     O_3   0.364083 0.989389 0.081207 -0.626010
O48   O     O_3   0.363811 0.010971 0.581963 -0.626411
O49   O     O_3   0.973570 0.330372 0.667353 -0.594846
O50   O     O_3   0.968183 0.670338 0.175744 -0.590037
O51   O     O_3   0.473764 0.830428 0.667264 -0.594220
O52   O     O_3   0.470354 0.169941 0.174798 -0.583419
O53   O     O_2   0.085560 0.445380 0.786390 -0.468171
O54   O     O_2   0.085560 0.554620 0.286390 -0.435067
O55   O     O_2   0.585560 0.945380 0.786390 -0.463008
O56   O     O_2   0.585560 0.054620 0.286390 -0.442116
O57   O     O_3   0.014550 0.412170 0.047860 -0.460536
O58   O     O_3   0.014550 0.587830 0.547860 -0.458744
O59   O     O_3   0.514550 0.912170 0.047860 -0.460689
O60   O     O_3   0.514550 0.087830 0.547860 -0.458199
O61   O     O_2   0.088905 0.380853 0.945347 -0.485911
O62   O     O_2   0.099145 0.603527 0.499422 -0.481039
O63   O     O_2   0.589089 0.881097 0.945757 -0.485391
O64   O     O_2   0.597838 0.106351 0.490043 -0.485593
P1    P     P_3+3 0.909970 0.458430 0.077330 1.000738
P2    P     P_3+3 0.909970 0.541570 0.577330 0.998578
P3    P     P_3+3 0.409970 0.958430 0.077330 1.000442
P4    P     P_3+3 0.409970 0.041570 0.577330 0.998986
P5    P     P_3+3 0.089830 0.458070 0.612460 0.995673
P6    P     P_3+3 0.089830 0.541930 0.112460 0.987999
P7    P     P_3+3 0.589830 0.958070 0.612460 0.995369
P8    P     P_3+3 0.589830 0.041930 0.112460 0.991930
P9    P     P_3+3 0.052056 0.373267 0.067412 0.961542
P10   P     P_3+3 0.057830 0.621372 0.576953 0.961193
P11   P     P_3+3 0.552168 0.873326 0.067332 0.962496
P12   P     P_3+3 0.556701 0.122705 0.573908 0.956478
P13   P     P_3+3 0.945101 0.624874 0.124600 0.965067
P14   P     P_3+3 0.946159 0.374634 0.628479 0.957652
P15   P     P_3+3 0.445443 0.125099 0.126289 0.967940
P16   P     P_3+3 0.446196 0.874595 0.628367 0.958163
N9    N     N_2   0.947620 0.263820 0.064694 -0.414820
H113  H     H_    0.935993 0.235145 0.069660 0.220311
C137  C     C_3   0.930163 0.285856 0.932307 -0.119523
H114  H     H_    0.893940 0.283956 0.933674 0.093353
H115  H     H_    0.941767 0.272892 0.819162 0.120518
H116  H     H_    0.939057 0.317576 0.941577 0.165036
N10   N     N_2   0.992672 0.746523 0.673452 -0.431195
H117  H     H_    0.974314 0.733275 0.761213 0.208012
C138  C     C_3   0.966350 0.767270 0.557059 -0.163399
H118  H     H_    0.944657 0.746270 0.493437 0.122742
H119  H     H_    0.987172 0.783306 0.470501 0.121413
H120  H     H_    0.945497 0.789413 0.618322 0.125604
N11   N     N_2   0.449589 0.761988 0.061256 -0.413602
H121  H     H_    0.438799 0.733046 0.066248 0.218269
C139  C     C_3   0.432088 0.783431 0.927420 -0.115764
H122  H     H_    0.395976 0.780216 0.925540 0.094563
H123  H     H_    0.445019 0.770955 0.815316 0.118249
H124  H     H_    0.439490 0.815450 0.937707 0.164722
N12   N     N_2   0.493779 0.247183 0.695822 -0.426281
H125  H     H_    0.476578 0.231744 0.780805 0.202076
C140  C     C_3   0.466087 0.271895 0.597433 -0.156297
H126  H     H_    0.448143 0.253721 0.509273 0.111209
H127  H     H_    0.485669 0.294992 0.536392 0.113237
H128  H     H_    0.441886 0.287457 0.673272 0.137303
N13   N     N_2   0.020052 0.247453 0.979422 -0.423700
H129  H     H_    0.014894 0.257752 0.866766 0.226238
C141  C     C_3   0.065568 0.240261 0.016782 -0.224110
H130  H     H_    0.080155 0.220899 0.924494 0.114738
H131  H     H_    0.068622 0.225103 0.133068 0.125670
H132  H     H_    0.084023 0.268590 0.019483 0.125984
N14   N     N_2   0.058325 0.745556 0.517199 -0.416232
H133  H     H_    0.079686 0.728999 0.449697 0.220147
C142  C     C_3   0.080660 0.777876 0.595718 -0.217147
H134  H     H_    0.099355 0.795284 0.506957 0.102952
H135  H     H_    0.103851 0.766134 0.685328 0.139187
H136  H     H_    0.056903 0.798043 0.654002 0.144160
N15   N     N_2   0.522927 0.747147 0.981721 -0.424021
H137  H     H_    0.518156 0.757020 0.868246 0.224734
C143  C     C_3   0.568402 0.741076 0.022727 -0.222193
H138  H     H_    0.583992 0.721704 0.932648 0.114685
H139  H     H_    0.571223 0.726413 0.140103 0.127361
H140  H     H_    0.586087 0.769803 0.024996 0.125138
N16   N     N_2   0.552750 0.249064 0.509482 -0.396412
H141  H     H_    0.537199 0.254989 0.403956 0.191629
C144  C     C_3   0.599422 0.242726 0.496297 -0.207009
H142  H     H_    0.613729 0.265480 0.416650 0.108230
H143  H     H_    0.606465 0.213061 0.445807 0.128973
H144  H     H_    0.615178 0.245694 0.614128 0.138308

loop_
_geom_bond_atom_site_label_1
_geom_bond_atom_site_label_2
_ccdc_geom_bond_type
Ba3   P3    S    
C74   P5    S    
C51   C55   A    
C74   C78   A    
O60   P12   S    
C96   P15   S    
C43   H59   S    
C38   C54   A    
Ba3   O16   S    
C110  H94   S    
O59   P11   S    
C126  H34   S    
C127  H31   S    
C66   H78   S    
Ba1   O34   S    
C94   C134  S    
O15   P8    S    
Ba3   O36   S    
O3    P3    D    
C104  H84   S    
C42   H58   S    
C70   C110  A    
C63   O31   D    
C134  H86   S    
C5    C9    A    
C7    C11   A    
C85   H65   S    
C76   C112  A    
Ba1   O57   S    
C66   C70   A    
Ba2   O54   S    
Ba3   O59   S    
C58   N6    Am   
C113  O6    S    
C59   O27   D    
C43   C49   A    
Ba1   P5    S    
C10   O18   D    
C116  O7    S    
C99   P3    S    
C125  H33   S    
C73   C109  A    
N11   C139  S    
C140  H128  S    
O9    P9    S    
O4    P4    D    
C76   P7    S    
C116  H112  S    
O61   P9    D    
C45   H97   S    
C114  H110  S    
C142  H136  S    
C64   N8    Am   
C124  H20   S    
C97   C133  D    
C119  H15   S    
Ba2   P2    S    
C13   C17   A    
C100  C136  D    
C20   C44   A    
C15   C19   A    
C90   H50   S    
Ba2   O14   S    
O42   P13   D    
C120  H8    S    
C6    C26   A    
C139  H122  S    
C1    H41   S    
C7    C23   A    
C100  P4    S    
Ba3   O39   S    
C130  O50   S    
C15   N3    Am   
C8    C24   A    
C65   H77   S    
C71   C111  A    
C89   N9    S    
N16   H141  S    
C2    H46   S    
C24   C38   A    
C80   C84   S    
C45   H101  S    
C114  H106  S    
C53   C57   A    
C115  C119  S    
C15   O23   D    
C71   P12   S    
C25   C31   A    
C55   C59   A    
Ba2   P6    S    
C26   C32   A    
C56   C60   A    
C73   P6    S    
C12   O20   D    
N13   H129  S    
Ba2   O2    S    
C46   O10   S    
C117  H9    S    
C141  H132  S    
C3    H43   S    
C118  H6    S    
C123  C127  S    
C121  C125  S    
C89   N13   S    
N12   H125  S    
C99   C103  A    
C128  H32   S    
C45   C89   S    
C47   C91   S    
C144  H143  S    
O64   P12   D    
C138  H118  S    
C50   H54   S    
O33   P1    S    
O41   P14   D    
C21   C39   A    
C22   C40   A    
C11   N3    Am   
C14   N2    Am   
C1    C129  S    
C2    H42   S    
C3    H47   S    
C126  H30   S    
C106  N6    S    
C115  H111  S    
C95   P16   S    
C41   H57   S    
C124  H24   S    
C75   P8    S    
C114  C118  S    
C127  H35   S    
C115  H107  S    
C133  H85   S    
C77   H73   S    
C33   C61   A    
Ba4   O60   S    
C39   C55   A    
O10   P10   S    
C127  H27   S    
O45   P1    S    
O39   P16   S    
Ba2   O33   S    
C95   C135  S    
O5    P5    S    
C93   C133  S    
C17   C41   A    
N9    C137  S    
C68   H80   S    
C136  H88   S    
C19   C43   A    
C107  N7    S    
C8    C12   A    
C6    C10   A    
C92   N12   S    
C46   C90   S    
C143  H140  S    
Ba2   O58   S    
Ba3   O55   S    
C58   O26   D    
C59   N7    Am   
C114  O5    S    
C10   N2    Am   
C72   P11   S    
Ba4   O4    S    
Ba1   O14   S    
C90   N10   S    
C139  H123  S    
C138  H120  S    
C2    H90   S    
C18   C22   A    
O13   P6    S    
Ba3   Ba4   S    
O55   P7    D    
C65   C81   A    
O52   P15   S    
C17   C21   A    
C14   C18   A    
Ba4   O15   S    
C103  C107  A    
C47   H103  S    
C20   C24   A    
C62   N6    Am   
C49   C53   A    
C87   H67   S    
C69   P10   S    
C25   H69   S    
C89   H49   S    
C82   N2    S    
Ba4   O40   S    
C92   H52   S    
C137  H115  S    
C108  N8    S    
O6    P6    S    
C132  O52   S    
C30   H62   S    
C101  H81   S    
O37   P14   S    
C117  H5    S    
C33   C37   A    
N15   C143  S    
C48   O12   S    
C36   C40   A    
C41   C51   A    
C42   C52   A    
C86   H66   S    
C116  H108  S    
C87   C95   S    
C60   O28   D    
O50   P13   S    
C63   N7    Am   
C54   C58   A    
C79   C83   S    
C4    C132  S    
C49   H53   S    
Ba4   O35   S    
C57   N5    Am   
C76   C80   A    
C111  H95   S    
N11   H121  S    
C5    C21   A    
C143  H138  S    
C3    H91   S    
C4    H48   S    
C109  H93   S    
C140  H127  S    
C88   C96   S    
C117  H13   S    
C44   H60   S    
C124  O48   S    
C118  H10   S    
Ba1   O37   S    
C75   C111  A    
C142  H135  S    
C102  C106  A    
C121  H17   S    
C122  C126  S    
N14   H133  S    
C69   C109  A    
C135  H87   S    
C128  H36   S    
O53   P5    D    
C101  C105  A    
C52   H56   S    
C120  H16   S    
O11   P11   S    
C90   N14   S    
C91   N11   S    
C65   C69   A    
C13   O21   D    
C83   N3    S    
C74   C110  A    
O47   P3    S    
C129  O49   S    
C16   N4    Am   
C119  H11   S    
Ba4   P8    S    
O63   P11   D    
N10   H117  S    
C113  H109  S    
C88   C108  D    
C78   C82   S    
O56   P8    D    
C29   C33   A    
C52   C56   A    
O16   P7    S    
O49   P14   S    
O12   P12   S    
C31   C35   A    
O48   P4    S    
C130  H2    S    
C126  H26   S    
C73   C77   A    
C123  O47   S    
C112  H96   S    
C141  H131  S    
C130  H38   S    
Ba3   O15   S    
C67   C83   A    
C18   C42   A    
C64   O32   D    
C93   P14   S    
C100  C104  A    
C144  H142  S    
C61   O29   D    
C123  H23   S    
Ba4   O56   S    
O36   P4    S    
O58   P10   S    
C121  H21   S    
C79   H75   S    
C34   C38   A    
C113  H105  S    
Ba3   P7    S    
C129  H1    S    
O44   P15   D    
C125  H25   S    
C48   H104  S    
O46   P2    S    
C37   C53   A    
C132  H4    S    
Ba2   O13   S    
C75   C79   A    
C12   N4    Am   
C129  H37   S    
C40   C56   A    
C11   O19   D    
C57   O25   D    
C104  C108  A    
C36   C64   A    
C47   H99   S    
C16   O24   D    
C92   N16   S    
C28   C30   A    
C51   H55   S    
C137  H114  S    
O34   P2    S    
C47   O11   S    
C61   N5    Am   
C141  H130  S    
Ba4   P4    S    
C68   C72   A    
O40   P15   S    
C31   H63   S    
C9    O17   D    
C84   N4    S    
N9    H113  S    
C44   C50   A    
C13   N1    Am   
C125  H29   S    
C122  O46   S    
N13   C141  S    
C28   H72   S    
C94   P13   S    
C143  H139  S    
C115  O8    S    
C85   C105  D    
Ba1   Ba2   S    
C98   C134  D    
C87   C107  D    
C113  C117  S    
C32   C36   A    
O1    P1    D    
C96   C136  S    
C78   H74   S    
C116  C120  S    
C16   C20   A    
O57   P9    S    
N14   C142  S    
C27   C29   A    
C98   C102  A    
C19   C23   A    
Ba1   O13   S    
C91   H51   S    
C144  H144  S    
C6    C22   A    
C120  H12   S    
C7    C27   A    
C138  H119  S    
C8    C28   A    
C121  O45   S    
C118  H14   S    
O38   P13   S    
Ba2   O38   S    
C124  C128  S    
C68   C84   A    
C103  H83   S    
C122  H18   S    
C97   C101  A    
O62   P10   D    
C97   P1    S    
Ba4   O16   S    
C34   C62   A    
C46   H98   S    
C48   H100  S    
C35   C39   A    
C85   C93   S    
N16   C144  S    
C3    C131  S    
C88   H68   S    
C99   C135  D    
N10   C138  S    
C23   C37   A    
C14   O22   D    
C9    N1    Am   
N12   C140  S    
O43   P16   D    
N15   H137  S    
Ba1   O1    S    
C119  H7    S    
Ba1   O53   S    
O14   P5    S    
Ba3   O3    S    
O8    P8    S    
C1    H89   S    
C86   C106  D    
C66   C82   A    
C123  H19   S    
O54   P6    D    
C50   C54   A    
O2    P2    D    
O35   P3    S    
C30   C34   A    
C35   C63   A    
C128  H28   S    
C131  O51   S    
C46   H102  S    
C70   P9    S    
C26   H70   S    
C5    C25   A    
C140  H126  S    
C132  H40   S    
C67   H79   S    
C81   N1    S    
C1    H45   S    
C91   N15   S    
C131  H39   S    
C2    C130  S    
O7    P7    S    
C142  H134  S    
C67   C71   A    
C4    H92   S    
C4    H44   S    
C102  H82   S    
C29   H61   S    
C131  H3    S    
C72   C112  A    
C48   C92   S    
C98   P2    S    
C105  N5    S    
C77   C81   S    
C60   N8    Am   
C139  H124  S    
C27   H71   S    
C62   O30   D    
C137  H116  S    
C32   H64   S    
O51   P16   S    
C122  H22   S    
C86   C94   S    
Ba1   P1    S    
C80   H76   S    
C45   O9    S    
