data_mof_unit_56293.cif
_audit_creation_date              2012-12-11T17:16:59-0500
_audit_creation_method            fapswitch 2.2
_symmetry_space_group_name_H-M    P1
_symmetry_Int_Tables_number       1
_space_group_crystal_system       triclinic
_cell_length_a                    6.954503
_cell_length_b                    13.371827
_cell_length_c                    14.679306
_cell_angle_alpha                 98.922949
_cell_angle_beta                  89.636433
_cell_angle_gamma                 90.413591
_cell_volume                      1348.51880489

loop_
_atom_site_label
_atom_site_type_symbol
_atom_type_description
_atom_site_fract_x
_atom_site_fract_y
_atom_site_fract_z
_atom_type_partial_charge
O1    O     O_R   0.354890 0.151580 0.148210 -0.532976
O2    O     O_R   0.645110 0.848420 0.851790 -0.532976
O3    O     O_R   0.682370 0.152980 0.336770 -0.545186
O4    O     O_R   0.317630 0.847020 0.663230 -0.545186
O5    O     O_R   0.854980 0.348430 0.351800 -0.541474
O6    O     O_R   0.145020 0.651570 0.648200 -0.541473
C1    C     C_R   0.513362 0.131252 0.366267 0.714623
C2    C     C_R   0.486638 0.868748 0.633733 0.714622
O7    O     O_R   0.684450 0.139580 0.148000 -0.535253
O8    O     O_R   0.315550 0.860420 0.852000 -0.535253
O9    O     O_R   0.857080 0.334940 0.161680 -0.516734
O10   O     O_R   0.142920 0.665060 0.838320 -0.516733
C3    C     C_R   0.515583 0.112712 0.114061 0.783282
C4    C     C_R   0.484416 0.887288 0.885939 0.783282
O11   O     O_R   0.352790 0.165070 0.338330 -0.537022
O12   O     O_R   0.647210 0.834930 0.661670 -0.537022
O13   O     O_3   0.522170 0.314120 0.254710 -0.358427
O14   O     O_3   0.477830 0.685880 0.745290 -0.358427
V1    V     V_3+5 0.796120 0.238110 0.249130 1.518154
V2    V     V_3+5 0.203880 0.761890 0.750870 1.518155
O15   O     O_R   0.186930 0.347040 0.163240 -0.524556
O16   O     O_R   0.813070 0.652960 0.836760 -0.524556
C5    C     C_R   0.018980 0.367748 0.132866 0.759363
C6    C     C_R   0.981020 0.632252 0.867134 0.759362
O17   O     O_R   0.184850 0.360440 0.352010 -0.544481
O18   O     O_R   0.815150 0.639560 0.647990 -0.544481
C7    C     C_R   0.015805 0.387306 0.385943 0.716767
C8    C     C_R   0.984195 0.612694 0.614057 0.716766
V3    V     V_3+5 0.296410 0.261900 0.250880 1.524937
V4    V     V_3+5 0.703590 0.738100 0.749120 1.524938
O19   O     O_3   0.020490 0.185890 0.245290 -0.370609
O20   O     O_3   0.979510 0.814110 0.754710 -0.370609
C9    C     C_1   0.005116 0.466899 0.466328 -0.169419
C10   C     C_1   0.994884 0.533101 0.533672 -0.169419
C11   C     C_3   0.170383 0.542693 0.991734 0.511713
C12   C     C_3   0.829617 0.457307 0.008266 0.511713
C13   C     C_3   0.052505 0.552200 0.082045 -0.251597
C14   C     C_3   0.947495 0.447800 0.917955 -0.251597
H1    H     H_    0.097907 0.594809 0.149551 0.171990
H2    H     H_    0.902093 0.405191 0.850449 0.171990
C15   C     C_3   0.010646 0.437416 0.061772 -0.159552
C16   C     C_3   0.989354 0.562584 0.938227 -0.159552
C17   C     C_3   0.130758 0.427463 0.971993 -0.172537
C18   C     C_3   0.869242 0.572537 0.028007 -0.172537
H3    H     H_    0.234748 0.366614 0.947658 0.201444
H4    H     H_    0.765252 0.633386 0.052341 0.201444
C19   C     C_3   0.396278 0.959667 0.427049 0.184768
C20   C     C_3   0.603721 0.040333 0.572951 0.184768
C21   C     C_3   0.573313 0.909477 0.464112 -0.178006
C22   C     C_3   0.426687 0.090523 0.535888 -0.178005
H5    H     H_    0.633615 0.834679 0.434724 0.145002
H6    H     H_    0.366385 0.165321 0.565276 0.145002
C23   C     C_3   0.495007 0.938840 0.563010 -0.075865
C24   C     C_3   0.504992 0.061160 0.436990 -0.075865
C25   C     C_3   0.316953 0.987996 0.526268 -0.153088
C26   C     C_3   0.683047 0.012004 0.473732 -0.153088
H7    H     H_    0.165551 0.977900 0.547730 0.155555
H8    H     H_    0.834448 0.022100 0.452270 0.155555
C27   C     C_1   0.504998 0.033108 0.033673 -0.145879
C28   C     C_1   0.495002 0.966892 0.966327 -0.145879
Cl1   Cl    Cl    0.394215 0.605706 0.983180 -0.634612
Cl2   Cl    Cl    0.605785 0.394294 0.016820 -0.634612
I1    I     I_    0.227871 0.894392 0.311502 -0.440326
I2    I     I_    0.772129 0.105608 0.688498 -0.440326

loop_
_geom_bond_atom_site_label_1
_geom_bond_atom_site_label_2
_ccdc_geom_bond_type
V4    O20   S    
O13   V3    S    
O4    C2    A    
V1    O19   S    
C19   C21   S    
C7    C9    S    
O9    V1    S    
C22   C24   S    
C11   C13   S    
C14   C16   S    
O3    C1    A    
C19   I1    S    
C20   I2    S    
O12   V4    S    
C6    C16   S    
C11   C16   S    
O7    C3    A    
O5    C7    A    
O7    V1    S    
O6    C8    A    
O8    V2    S    
C21   H5    S    
C22   H6    S    
O3    V1    S    
O14   V4    S    
C11   C17   S    
C20   C22   S    
C8    C10   S    
C27   C28   T    
C2    O12   A    
C15   C17   S    
C12   C15   S    
C16   C18   S    
C12   Cl2   S    
C18   H4    S    
O11   V3    S    
C23   C25   S    
O17   V3    S    
C20   C23   S    
C24   C26   S    
O8    C4    A    
C1    O11   A    
O15   V3    S    
O10   V2    S    
O1    V3    S    
C9    C10   T    
C11   Cl1   S    
C17   H3    S    
C19   C24   S    
C3    C27   S    
O18   V4    S    
C25   H7    S    
O16   C6    A    
C12   C18   S    
O1    C3    A    
C12   C14   S    
C4    C28   S    
C19   C25   S    
V2    O20   S    
C20   C26   S    
O16   V4    S    
C2    C23   S    
O5    V1    S    
O17   C7    A    
C21   C26   S    
O6    V2    S    
O10   C6    A    
O18   C8    A    
C22   C25   S    
C5    C15   S    
O2    V4    S    
C13   C18   S    
O15   C5    A    
C14   C17   S    
V3    O19   S    
C14   H2    S    
C21   C23   S    
O9    C5    A    
O13   V1    S    
C26   H8    S    
O14   V2    S    
C13   C15   S    
O2    C4    A    
O4    V2    S    
C13   H1    S    
C1    C24   S    
