data_mof_unit_62297.cif
_audit_creation_date              2012-12-10T18:44:08-0500
_audit_creation_method            fapswitch 2.2
_symmetry_space_group_name_H-M    P1
_symmetry_Int_Tables_number       1
_space_group_crystal_system       triclinic
_cell_length_a                    18.105779
_cell_length_b                    18.137122
_cell_length_c                    22.112179
_cell_angle_alpha                 114.215096
_cell_angle_beta                  114.071944
_cell_angle_gamma                 90.118884
_cell_volume                      5920.10631439

loop_
_atom_site_label
_atom_site_type_symbol
_atom_type_description
_atom_site_fract_x
_atom_site_fract_y
_atom_site_fract_z
_atom_type_partial_charge
C1    C     C_R   0.349725 0.349722 0.699391 0.512643
C2    C     C_1   0.889383 0.889290 0.778681 0.063100
C3    C     C_3   0.066747 0.054776 0.024418 0.211594
C4    C     C_3   0.933169 0.945258 0.975582 0.212777
C5    C     C_3   0.036358 0.037272 0.073640 -0.030785
C6    C     C_3   0.963576 0.962755 0.926360 -0.030634
C7    C     C_1   0.077075 0.077481 0.154646 0.037962
C8    C     C_1   0.922898 0.922530 0.845354 0.037681
C9    C     C_3   0.075893 0.542433 0.548718 0.138785
C10   C     C_3   0.924107 0.457567 0.451282 0.138572
C11   C     C_3   0.003912 0.539122 0.568318 -0.136591
C12   C     C_R   0.650276 0.650278 0.300609 0.513090
C13   C     C_3   0.996087 0.460878 0.431682 -0.136439
C14   C     C_3   0.948755 0.551049 0.499907 0.032068
C15   C     C_3   0.051245 0.448951 0.500093 0.032233
C16   C     C_R   0.150297 0.150306 0.300602 0.512506
C17   C     C_R   0.849702 0.849693 0.699398 0.513143
C18   C     C_3   0.021051 0.555852 0.481052 -0.139611
C19   C     C_3   0.978948 0.444148 0.518948 -0.139307
C20   C     C_3   0.557718 0.564376 0.024583 0.211834
C21   C     C_3   0.442187 0.435659 0.975417 0.211842
C22   C     C_3   0.557178 0.474062 0.975303 -0.156457
C23   C     C_3   0.506372 0.576985 0.549524 -0.098153
C24   C     C_3   0.442738 0.525977 0.024696 -0.139906
C25   C     C_1   0.389606 0.389444 0.778676 0.065029
C26   C     C_1   0.610380 0.610560 0.221324 0.064891
C27   C     C_3   0.465236 0.552872 0.975206 0.129655
C28   C     C_3   0.534686 0.447159 0.024792 0.104769
C29   C     C_3   0.463790 0.462935 0.926360 -0.030854
C30   C     C_3   0.536133 0.537095 0.073641 -0.031158
C31   C     C_1   0.423160 0.422733 0.845350 0.038999
C32   C     C_1   0.576802 0.577281 0.154650 0.039181
C33   C     C_3   0.055689 0.960519 0.481127 -0.123139
C34   C     C_3   0.493628 0.423015 0.450477 -0.098732
C35   C     C_3   0.944311 0.039480 0.518873 -0.122294
C36   C     C_3   0.961091 0.936048 0.431989 -0.116360
C37   C     C_3   0.038909 0.063952 0.568011 -0.115547
C38   C     C_3   0.949306 0.948935 0.500231 0.057271
C39   C     C_3   0.050694 0.051065 0.499769 0.056910
C40   C     C_R   0.391631 0.108380 0.499881 0.525876
C41   C     C_R   0.608369 0.891620 0.500118 0.526401
C42   C     C_3   0.043071 0.972509 0.549414 -0.100469
C43   C     C_3   0.956929 0.027490 0.450586 -0.100572
C44   C     C_3   0.528686 0.063663 0.567046 0.101759
C45   C     C_3   0.977988 0.055899 0.975165 0.127553
C46   C     C_3   0.471314 0.936337 0.432954 0.101991
C47   C     C_3   0.575285 0.040112 0.518814 -0.158856
C48   C     C_3   0.424715 0.959888 0.481186 -0.158999
C49   C     C_3   0.551680 0.948986 0.500613 0.005430
C50   C     C_3   0.448320 0.051013 0.499387 0.005314
C51   C     C_3   0.506290 0.973122 0.549184 0.126642
C52   C     C_3   0.493709 0.026878 0.450816 0.126299
C53   C     C_R   0.108337 0.391731 0.500051 0.515970
C54   C     C_R   0.891663 0.608269 0.499949 0.515772
C55   C     C_R   0.108222 0.108316 0.499982 0.509613
C56   C     C_3   0.021944 0.944127 0.024833 0.102748
C57   C     C_R   0.891778 0.891684 0.500018 0.509948
C58   C     C_R   0.391733 0.391657 0.499911 0.510785
C59   C     C_R   0.608267 0.608343 0.500089 0.510989
C60   C     C_3   0.425514 0.520669 0.481245 -0.120447
C61   C     C_3   0.574486 0.479330 0.518755 -0.121273
C62   C     C_3   0.470967 0.495930 0.432036 -0.116356
C63   C     C_3   0.529033 0.504070 0.567964 -0.116489
C64   C     C_3   0.550947 0.551301 0.500269 0.056061
C65   C     C_3   0.449054 0.448699 0.499731 0.056363
C66   C     C_3   0.946737 0.038992 0.024822 -0.139086
C67   C     C_3   0.053189 0.961043 0.975177 -0.156030
C68   C     C_1   0.110611 0.110713 0.221318 0.062939
F1    F     F_    0.570161 0.392320 0.051065 -0.146001
F2    F     F_    0.844381 0.414136 0.400578 -0.148762
F3    F     F_    0.429893 0.607753 0.948932 -0.127852
F4    F     F_    0.556924 0.129793 0.636688 -0.151159
F5    F     F_    0.443075 0.870207 0.363312 -0.150651
F6    F     F_    0.514225 0.945801 0.601018 -0.138822
F7    F     F_    0.485775 0.054199 0.398982 -0.139058
F8    F     F_    0.955903 0.113734 0.948846 -0.130227
F9    F     F_    0.044166 0.886309 0.051150 -0.148784
F10   F     F_    0.155618 0.585863 0.599422 -0.148313
H1    H     H_    0.448268 0.493685 0.376358 0.141914
H2    H     H_    0.922429 0.050929 0.410017 0.152824
H3    H     H_    0.637027 0.072409 0.534189 0.136147
H4    H     H_    0.362973 0.927591 0.465811 0.135836
H5    H     H_    0.363402 0.536510 0.465878 0.133446
H6    H     H_    0.636598 0.463490 0.534122 0.132785
H7    H     H_    0.512477 0.641062 0.590183 0.159205
H8    H     H_    0.487523 0.358938 0.409817 0.158432
H9    H     H_    0.903140 0.070773 0.044978 0.167930
H10   H     H_    0.096791 0.929259 0.955028 0.149832
H11   H     H_    0.007129 0.572548 0.624384 0.138979
H12   H     H_    0.551733 0.506315 0.623642 0.140537
H13   H     H_    0.992870 0.427452 0.375616 0.139471
H14   H     H_    0.038151 0.602829 0.466446 0.132501
H15   H     H_    0.961848 0.397171 0.533554 0.132729
H16   H     H_    0.644002 0.607121 0.954568 0.338613
H17   H     H_    0.415906 0.340544 0.046153 0.354404
H18   H     H_    0.883467 0.864041 0.046479 0.352998
H19   H     H_    0.164997 0.072915 0.953929 0.339763
H20   H     H_    0.604044 0.452929 0.955261 0.148668
H21   H     H_    0.395877 0.547106 0.044746 0.167147
H22   H     H_    0.928133 0.882569 0.376270 0.145697
H23   H     H_    0.071867 0.117431 0.623730 0.147037
H24   H     H_    0.102397 0.929259 0.465665 0.128838
H25   H     H_    0.897602 0.070740 0.534335 0.129695
H26   H     H_    0.077571 0.949071 0.589982 0.151904
O1    O     O_3   0.250010 0.250010 0.500010 -0.463083
O2    O     O_R   0.893710 0.832180 0.664370 -0.538982
O3    O     O_R   0.332200 0.393690 0.664400 -0.531930
O4    O     O_R   0.667800 0.606310 0.335600 -0.533451
O5    O     O_R   0.229300 0.167820 0.335610 -0.515578
O6    O     O_R   0.770700 0.832180 0.664390 -0.514937
O7    O     O_R   0.358130 0.123520 0.543120 -0.528572
O8    O     O_R   0.641870 0.876480 0.456880 -0.528247
O9    O     O_R   0.080390 0.314990 0.456920 -0.539941
O10   O     O_R   0.919610 0.685010 0.543080 -0.540537
O11   O     O_R   0.185040 0.123520 0.543150 -0.533531
O12   O     O_3   0.749990 0.749990 0.499990 -0.462841
O13   O     O_R   0.814960 0.876480 0.456850 -0.533461
O14   O     O_R   0.358080 0.419590 0.543080 -0.536306
O15   O     O_R   0.641920 0.580410 0.456920 -0.536697
O16   O     O_R   0.080420 0.141920 0.456950 -0.543564
O17   O     O_R   0.919580 0.858080 0.543050 -0.543701
O18   O     O_R   0.376490 0.315000 0.456880 -0.536620
O19   O     O_R   0.623510 0.685000 0.543120 -0.536464
O20   O     O_2   0.614629 0.728024 0.104386 -0.195613
O21   O     O_2   0.717730 0.640814 0.102817 -0.259188
O22   O     O_3   0.634549 0.660701 0.984771 -0.432744
O23   O     O_R   0.376520 0.141930 0.456900 -0.521145
O24   O     O_2   0.283324 0.357543 0.893028 -0.219911
O25   O     O_2   0.387318 0.270995 0.899635 -0.230909
O26   O     O_3   0.359579 0.343911 0.014923 -0.443095
O27   O     O_2   0.769443 0.890205 0.893520 -0.205760
O28   O     O_2   0.854437 0.786111 0.899955 -0.245410
O29   O     O_3   0.831559 0.875044 0.015443 -0.443423
O30   O     O_2   0.146947 0.212959 0.104039 -0.208035
O31   O     O_2   0.231622 0.107536 0.102317 -0.243236
O32   O     O_3   0.163590 0.130525 0.984244 -0.432856
O33   O     O_R   0.623480 0.858070 0.543100 -0.520780
O34   O     O_R   0.184990 0.419580 0.543110 -0.518529
O35   O     O_R   0.815010 0.580420 0.456890 -0.519033
O36   O     O_R   0.332220 0.270690 0.664420 -0.516938
O37   O     O_R   0.667780 0.729310 0.335580 -0.516306
O38   O     O_R   0.106290 0.167820 0.335630 -0.537681
S1    S     S_3+6 0.634189 0.651444 0.057239 0.077814
S2    S     S_3+6 0.365495 0.348727 0.942674 0.077499
S3    S     S_3+6 0.844226 0.871091 0.943053 0.076923
S4    S     S_3+6 0.155505 0.129107 0.056849 0.079473
Zn1   Zn    Zn3+2 0.307090 0.219220 0.438420 0.981651
Zn2   Zn    Zn3+2 0.692910 0.780780 0.561580 0.982907
Zn3   Zn    Zn3+2 0.280820 0.192930 0.561610 0.977267
Zn4   Zn    Zn3+2 0.719180 0.807070 0.438390 0.978405
Zn5   Zn    Zn3+2 0.131340 0.219220 0.438450 0.954092
Zn6   Zn    Zn3+2 0.868660 0.780780 0.561550 0.952818
Zn7   Zn    Zn3+2 0.280790 0.368660 0.561580 0.971823
Zn8   Zn    Zn3+2 0.719210 0.631340 0.438420 0.970218

loop_
_geom_bond_atom_site_label_1
_geom_bond_atom_site_label_2
_ccdc_geom_bond_type
C25   C31   T    
O1    Zn7   S    
C63   C65   S    
C26   C32   T    
C22   H20   S    
C6    C45   S    
C27   C29   S    
C24   H21   S    
O9    Zn5   S    
O33   Zn2   S    
C28   F1    S    
C61   H6    S    
C24   C27   S    
O10   Zn6   S    
C52   F7    S    
C17   O6    A    
O12   Zn4   S    
C4    C56   S    
C47   C49   S    
O25   S2    D    
C20   C30   S    
C15   C19   S    
C46   C49   S    
C11   C19   S    
C59   C64   S    
C33   C39   S    
C55   O11   A    
C13   C18   S    
C45   F8    S    
O28   S3    D    
C15   C53   S    
C22   C29   S    
C38   C42   S    
C35   H25   S    
C60   H5    S    
O1    Zn1   S    
C46   C52   S    
O22   S1    S    
C34   C62   S    
C33   C36   S    
C12   O37   A    
O14   Zn7   S    
C60   C62   S    
C34   H8    S    
C37   C42   S    
C61   C63   S    
C58   O14   A    
C14   C18   S    
C62   C64   S    
C5    C56   S    
C7    C68   T    
C48   C51   S    
C39   C55   S    
C49   C51   S    
C41   O8    A    
C16   O5    A    
H17   O26   S    
C50   C52   S    
C51   F6    S    
O20   S1    D    
O27   S3    D    
O13   Zn4   S    
C16   C68   S    
O26   S2    S    
O12   Zn8   S    
C19   H15   S    
C44   C47   S    
C23   C63   S    
C12   O4    A    
C22   C28   S    
C13   H13   S    
C2    C17   S    
C1    C25   S    
C20   S1    S    
O5    Zn1   S    
O6    Zn2   S    
O7    Zn3   S    
C34   C65   S    
C41   C49   S    
C53   O9    A    
O37   Zn4   S    
C40   O7    A    
O12   Zn2   S    
C55   O16   A    
H16   O22   S    
C59   O19   A    
C23   C60   S    
O30   S4    D    
C46   C48   S    
C58   O18   A    
O2    Zn6   S    
C33   H24   S    
C62   H1    S    
C35   C38   S    
C4    C6    S    
C10   C14   S    
C66   H9    S    
C5    C7    S    
C39   C43   S    
O35   Zn8   S    
C43   H2    S    
C40   O23   A    
C21   C29   S    
C3    C45   S    
C34   C61   S    
C56   F9    S    
C53   O34   A    
C12   C26   S    
O38   Zn5   S    
C61   C64   S    
C16   O38   A    
C38   C57   S    
C9    C11   S    
C11   H11   S    
C58   C65   S    
C54   O35   A    
C10   C19   S    
C29   C31   S    
O31   S4    D    
O11   Zn3   S    
C67   H10   S    
C36   H22   S    
O18   Zn1   S    
C48   C50   S    
O24   S2    D    
O3    Zn7   S    
C1    O36   A    
C1    O3    A    
C10   F2    S    
O34   Zn7   S    
C23   C64   S    
C14   C54   S    
C21   C28   S    
C20   C22   S    
C60   C65   S    
O15   Zn8   S    
C13   C15   S    
O8    Zn4   S    
O29   S3    S    
C33   C42   S    
O12   Zn6   S    
C27   F3    S    
C44   C51   S    
C57   O13   A    
C44   C50   S    
C6    C67   S    
O16   Zn5   S    
C59   O15   A    
C35   C37   S    
C41   O33   A    
C2    C8    T    
C21   S2    S    
C5    C66   S    
C3    C5    S    
C10   C13   S    
C42   H26   S    
C6    C8    S    
H18   O29   S    
C20   C27   S    
C56   C67   S    
O1    Zn3   S    
O17   Zn6   S    
C18   H14   S    
C36   C38   S    
C9    C15   S    
C35   C43   S    
C37   C39   S    
C17   O2    A    
C30   C32   S    
C3    C67   S    
O21   S1    D    
C40   C50   S    
C4    S3    S    
C54   O10   A    
C63   H12   S    
C28   C30   S    
C11   C14   S    
C48   H4    S    
C44   F4    S    
C9    F10   S    
C47   H3    S    
C24   C30   S    
C57   O17   A    
C9    C18   S    
O1    Zn5   S    
O4    Zn8   S    
O19   Zn2   S    
C4    C66   S    
C3    S4    S    
C37   H23   S    
C23   H7    S    
C21   C24   S    
C47   C52   S    
C45   C66   S    
C36   C43   S    
H19   O32   S    
O36   Zn3   S    
C46   F5    S    
O32   S4    S    
O23   Zn1   S    
