data_mof_unit_65380.cif
_audit_creation_date              2012-12-10T16:58:22-0500
_audit_creation_method            fapswitch 2.2
_symmetry_space_group_name_H-M    P1
_symmetry_Int_Tables_number       1
_space_group_crystal_system       triclinic
_cell_length_a                    21.756994
_cell_length_b                    21.766349
_cell_length_c                    22.291942
_cell_angle_alpha                 59.799692
_cell_angle_beta                  118.958282
_cell_angle_gamma                 90.018513
_cell_volume                      7558.99748988

loop_
_atom_site_label
_atom_site_type_symbol
_atom_type_description
_atom_site_fract_x
_atom_site_fract_y
_atom_site_fract_z
_atom_type_partial_charge
C1    C     C_R   0.620101 0.498533 0.502841 0.783000
C2    C     C_3   0.290716 0.711520 0.082356 0.187467
C3    C     C_3   0.192940 0.726455 0.973827 -0.156545
C4    C     C_3   0.207964 0.793364 0.917522 0.188026
C5    C     C_3   0.207999 0.756543 0.027908 -0.158695
C6    C     C_3   0.222298 0.824189 0.970159 -0.159422
C7    C     C_1   0.337003 0.665362 0.174223 -0.071022
C8    C     C_1   0.162093 0.838611 0.825685 -0.073280
C9    C     C_R   0.747721 0.360485 0.624239 -0.169594
C10   C     C_R   0.804344 0.293007 0.674147 -0.140559
C11   C     C_R   0.862282 0.290769 0.663949 -0.136766
C12   C     C_R   0.420419 0.580703 0.339699 0.816634
C13   C     C_R   0.865288 0.356537 0.606060 -0.168195
C14   C     C_R   0.810277 0.426080 0.557203 0.097438
C15   C     C_R   0.748307 0.427350 0.562847 0.096934
C16   C     C_R   0.689264 0.495637 0.507611 -0.096789
C17   C     C_R   0.694192 0.561816 0.452060 -0.199488
C18   C     C_R   0.756402 0.561122 0.449268 -0.198554
C19   C     C_R   0.814702 0.494160 0.501607 -0.103248
C20   C     C_3   0.707297 0.227798 0.028668 -0.154482
C21   C     C_3   0.702535 0.309506 0.970836 -0.154506
C22   C     C_1   0.625542 0.373078 0.750238 -0.173835
C23   C     C_R   0.378259 0.503016 0.494203 0.802380
C24   C     C_1   0.875456 0.124227 0.249826 -0.174911
C25   C     C_3   0.713781 0.207515 0.974097 -0.157025
C26   C     C_3   0.709708 0.288549 0.917652 0.187367
C27   C     C_3   0.799392 0.185642 0.029356 -0.159866
C28   C     C_3   0.792178 0.206651 0.082489 0.188215
C29   C     C_3   0.794598 0.267392 0.971466 -0.157596
C30   C     C_3   0.788098 0.287672 0.026024 -0.155733
C31   C     C_1   0.663576 0.334682 0.825782 -0.071833
C32   C     C_1   0.837952 0.161332 0.174323 -0.073004
C33   C     C_R   0.253519 0.649557 0.391998 0.183021
C34   C     C_R   0.580241 0.419286 0.660297 0.819015
C35   C     C_R   0.213401 0.712654 0.375571 -0.146888
C36   C     C_R   0.168415 0.705791 0.404842 -0.186105
C37   C     C_R   0.158622 0.636957 0.445460 -0.178957
C38   C     C_R   0.198819 0.572473 0.463657 0.061542
C39   C     C_R   0.254243 0.576582 0.446735 0.093709
C40   C     C_R   0.306418 0.507674 0.484941 -0.113304
C41   C     C_R   0.293740 0.439493 0.524092 -0.198767
C42   C     C_R   0.232672 0.437863 0.529037 -0.206834
C43   C     C_R   0.185417 0.503688 0.499405 -0.078482
C44   C     C_R   0.999634 0.881719 0.499385 0.781150
C45   C     C_3   0.290676 0.748345 0.972003 -0.154456
C46   C     C_R   0.079985 0.919781 0.660293 0.808234
C47   C     C_R   0.999771 0.118701 0.499401 0.781247
C48   C     C_R   0.920019 0.080010 0.339711 0.807028
C49   C     C_R   0.002476 0.619897 0.498704 0.788750
C50   C     C_R   0.881072 0.497798 0.500311 0.797044
C51   C     C_R   0.997732 0.379909 0.501493 0.789513
C52   C     C_R   0.118960 0.500495 0.499971 0.797914
C53   C     C_R   0.976589 0.892572 0.354655 -0.166867
C54   C     C_R   0.970986 0.896957 0.287677 -0.139921
C55   C     C_R   0.978752 0.832662 0.289522 -0.160248
C56   C     C_3   0.305739 0.778445 0.026062 -0.154960
C57   C     C_R   0.990606 0.763878 0.357500 -0.188043
C58   C     C_R   0.994105 0.757852 0.425597 0.098737
C59   C     C_R   0.989551 0.823260 0.424871 0.096277
C60   C     C_R   0.997313 0.818097 0.494022 -0.083150
C61   C     C_R   0.006483 0.750615 0.561169 -0.207995
C62   C     C_R   0.009478 0.686887 0.561747 -0.191537
C63   C     C_R   0.003145 0.689152 0.495002 -0.116667
C64   C     C_R   0.031574 0.104552 0.648020 -0.164015
C65   C     C_R   0.042690 0.097827 0.718177 -0.132476
C66   C     C_R   0.037308 0.160937 0.718738 -0.160536
C67   C     C_1   0.375129 0.626926 0.249761 -0.170485
C68   C     C_R   0.021969 0.230918 0.649754 -0.182544
C69   C     C_R   0.011778 0.239811 0.577524 0.106066
C70   C     C_R   0.014941 0.175140 0.576704 0.095248
C71   C     C_R   0.002213 0.182104 0.504947 -0.079900
C72   C     C_R   0.988684 0.250747 0.435986 -0.210502
C73   C     C_R   0.986250 0.314029 0.436241 -0.193918
C74   C     C_R   0.997750 0.310189 0.505757 -0.116797
C75   C     C_1   0.124555 0.875638 0.750182 -0.175463
C76   C     C_3   0.276339 0.680756 0.029665 -0.155750
Cu1   Cu    Cu3+1 0.500040 0.438210 0.499990 0.949162
Cu2   Cu    Cu3+1 0.499960 0.561790 0.500010 0.944440
Cu3   Cu    Cu3+1 0.061810 0.999860 0.500010 0.954422
Cu4   Cu    Cu3+1 0.938190 0.999990 0.499990 0.956789
Cu5   Cu    Cu3+1 0.958570 0.541460 0.417120 0.943770
Cu6   Cu    Cu3+1 0.041430 0.458560 0.582880 0.939120
H1    H     H_    0.352617 0.799348 0.048517 0.131809
H2    H     H_    0.905278 0.238006 0.701372 0.135337
H3    H     H_    0.910084 0.352375 0.598708 0.131258
H4    H     H_    0.759438 0.613375 0.406620 0.155904
H5    H     H_    0.662210 0.360927 0.945818 0.134087
H6    H     H_    0.671869 0.211040 0.053161 0.134156
H7    H     H_    0.819138 0.320172 0.048337 0.131447
H8    H     H_    0.830013 0.284153 0.946955 0.131116
H9    H     H_    0.839738 0.134184 0.054465 0.126463
H10   H     H_    0.682735 0.175027 0.951769 0.132267
H11   H     H_    0.332004 0.386706 0.552397 0.165532
H12   H     H_    0.324208 0.745436 0.948057 0.133945
H13   H     H_    0.214605 0.768046 0.336836 0.138621
H14   H     H_    0.138213 0.754806 0.392269 0.163670
H15   H     H_    0.120982 0.633834 0.464637 0.121502
H16   H     H_    0.222726 0.384836 0.557111 0.146429
H17   H     H_    0.012309 0.747079 0.614042 0.144135
H18   H     H_    0.970123 0.944096 0.350465 0.136139
H19   H     H_    0.961311 0.950342 0.234518 0.131997
H20   H     H_    0.976078 0.835908 0.238185 0.137839
H21   H     H_    0.998751 0.716452 0.355417 0.166822
H22   H     H_    0.199528 0.883692 0.944627 0.127132
H23   H     H_    0.015812 0.635510 0.614566 0.164532
H24   H     H_    0.979038 0.255505 0.381106 0.141817
H25   H     H_    0.036635 0.053770 0.650591 0.134018
H26   H     H_    0.055217 0.043475 0.772157 0.130815
H27   H     H_    0.045175 0.155722 0.773120 0.128378
H28   H     H_    0.018072 0.276259 0.655819 0.158570
H29   H     H_    0.976179 0.366384 0.381664 0.165727
H30   H     H_    0.174520 0.759418 0.051923 0.129494
H31   H     H_    0.146066 0.705543 0.951383 0.131868
H32   H     H_    0.299049 0.621280 0.055089 0.133966
H33   H     H_    0.649082 0.614188 0.409699 0.154179
H34   H     H_    0.704373 0.359593 0.635199 0.146647
H35   H     H_    0.802867 0.242155 0.720340 0.133529
O1    O     O_R   0.590210 0.447820 0.500000 -0.586531
O2    O     O_R   0.947780 0.909820 0.499990 -0.580538
O3    O     O_R   0.112650 0.939420 0.620930 -0.574734
O4    O     O_R   0.008260 0.939530 0.620910 -0.585939
O5    O     O_R   0.052220 0.090030 0.500010 -0.580911
O6    O     O_R   0.947830 0.090140 0.500000 -0.583465
O7    O     O_R   0.991740 0.060320 0.379090 -0.587482
O8    O     O_R   0.887350 0.060430 0.379070 -0.575026
O9    O     O_R   0.964960 0.625150 0.430050 -0.598090
O10   O     O_R   0.034940 0.555150 0.570020 -0.581382
O11   O     O_R   0.874830 0.535020 0.430000 -0.579539
O12   O     O_R   0.590150 0.552170 0.500020 -0.582796
O13   O     O_R   0.944810 0.465010 0.569970 -0.592495
O14   O     O_R   0.965060 0.444870 0.429980 -0.582183
O15   O     O_R   0.035040 0.374860 0.569950 -0.605612
O16   O     O_R   0.055190 0.535000 0.430030 -0.586766
O17   O     O_R   0.125170 0.465000 0.570000 -0.580357
O18   O     O_R   0.439580 0.508290 0.379070 -0.575125
O19   O     O_R   0.439510 0.612640 0.379090 -0.591870
O20   O     O_R   0.409850 0.447830 0.499980 -0.589124
O21   O     O_R   0.409790 0.552180 0.500000 -0.575010
O22   O     O_R   0.560490 0.387360 0.620910 -0.588565
O23   O     O_R   0.560420 0.491710 0.620930 -0.573884
O24   O     O_R   0.052170 0.909710 0.500000 -0.585040
C77   C     C_3   0.282662 0.665235 0.338526 -0.825815
H36   H     H_    0.239125 0.710467 0.272103 0.209971
H37   H     H_    0.331094 0.684809 0.358939 0.257909
H38   H     H_    0.296466 0.615951 0.339076 0.210111

loop_
_geom_bond_atom_site_label_1
_geom_bond_atom_site_label_2
_ccdc_geom_bond_type
C66   C68   A    
C21   C26   S    
C21   H5    S    
C49   C63   S    
C49   O10   A    
Cu5   O9    S    
C27   C29   S    
C52   O17   A    
C41   C42   A    
C54   H19   S    
C35   C36   A    
C51   C74   S    
C4    C8    S    
C37   H15   S    
Cu5   Cu6   S    
C53   C59   A    
C62   H23   S    
Cu3   O24   S    
Cu1   Cu2   S    
C49   O9    A    
C55   H20   S    
C29   C30   S    
C64   H25   S    
C45   C76   S    
C36   C37   A    
Cu2   O12   S    
Cu1   O20   S    
C23   O21   A    
C1    O12   A    
C42   H16   S    
C5    C6    S    
C43   C52   S    
Cu5   O14   S    
C20   C25   S    
C15   C16   A    
C34   O22   A    
C18   C19   A    
C73   C74   A    
C29   H8    S    
C50   O13   A    
C48   O8    A    
C68   C69   A    
C33   C39   A    
C41   H11   S    
C2    C7    S    
C45   C56   S    
C44   O24   A    
C12   O18   A    
C76   H32   S    
C46   O4    A    
C27   H9    S    
C70   C71   A    
C64   C70   A    
Cu6   O13   S    
C9    C10   A    
C65   H26   S    
C61   C62   A    
Cu4   O4    S    
Cu4   O2    S    
C59   C60   A    
C13   C14   A    
C52   O16   A    
C77   H38   S    
C61   H17   S    
C30   H7    S    
C57   H21   S    
C45   H12   S    
Cu2   O21   S    
C46   C75   S    
C12   C67   S    
C73   H29   S    
C4    C45   S    
C53   H18   S    
C22   C34   S    
Cu3   O5    S    
C22   C31   T    
C24   C48   S    
C28   C32   S    
C4    C6    S    
Cu1   O1    S    
C3    H31   S    
C39   C40   A    
C51   O14   A    
C16   C17   A    
C47   O5    A    
C68   H28   S    
C20   C28   S    
C44   O2    A    
C25   C26   S    
C53   C54   A    
C8    C75   T    
C60   C61   A    
Cu6   O17   S    
C24   C32   T    
C37   C38   A    
C36   H14   S    
C47   O6    A    
Cu4   O8    S    
Cu3   O3    S    
C62   C63   A    
C17   C18   A    
C46   O3    A    
C69   C74   A    
C1    C16   S    
C18   H4    S    
C3    C76   S    
C47   C71   S    
C40   C41   A    
C72   H24   S    
C6    H22   S    
C55   C57   A    
Cu5   O11   S    
C11   H2    S    
C77   H37   S    
C2    C5    S    
C50   O11   A    
C42   C43   A    
Cu6   O15   S    
C3    C4    S    
C2    C76   S    
C17   H33   S    
C56   H1    S    
Cu3   O7    S    
C58   C63   A    
C54   C55   A    
C25   H10   S    
C14   C15   A    
C9    H34   S    
C14   C19   A    
C23   O20   A    
Cu1   O22   S    
C6    C56   S    
C72   C73   A    
C3    C5    S    
Cu2   O23   S    
C48   O7    A    
C51   O15   A    
Cu5   O16   S    
C5    H30   S    
C35   H13   S    
C33   C77   S    
C25   C27   S    
C21   C30   S    
C64   C65   A    
C28   C30   S    
C58   C59   A    
C38   C43   A    
C10   H35   S    
C2    C56   S    
C11   C13   A    
C19   C50   S    
C57   C58   A    
C38   C39   A    
C44   C60   S    
C20   H6    S    
C34   O23   A    
C33   C35   A    
C1    O1    A    
C66   H27   S    
C9    C15   A    
C69   C70   A    
Cu6   O10   S    
C10   C11   A    
C7    C67   T    
Cu3   Cu4   S    
C26   C31   S    
C71   C72   A    
C20   C21   S    
C26   C29   S    
C65   C66   A    
C12   O19   A    
C13   H3    S    
C27   C28   S    
C77   H36   S    
Cu1   O18   S    
Cu2   O19   S    
C23   C40   S    
Cu4   O6    S    
