data_mof_unit_52713.cif
_audit_creation_date              2012-12-11T17:29:58-0500
_audit_creation_method            fapswitch 2.2
_symmetry_space_group_name_H-M    P1
_symmetry_Int_Tables_number       1
_space_group_crystal_system       triclinic
_cell_length_a                    19.201459
_cell_length_b                    19.347195
_cell_length_c                    20.287174
_cell_angle_alpha                 107.20853
_cell_angle_beta                  105.614262
_cell_angle_gamma                 112.110558
_cell_volume                      6021.7494249

loop_
_atom_site_label
_atom_site_type_symbol
_atom_type_description
_atom_site_fract_x
_atom_site_fract_y
_atom_site_fract_z
_atom_type_partial_charge
C1    C     C_R   0.038120 0.088974 0.347779 -0.010505
C2    C     C_R   0.239061 0.071277 0.496834 0.458675
C3    C     C_R   0.151961 0.218304 0.711942 -0.077075
C4    C     C_R   0.755949 0.928719 0.456936 -0.155448
C5    C     C_R   0.012968 0.772799 0.442926 -0.124859
C6    C     C_R   0.226942 0.270442 0.714943 0.085468
C7    C     C_R   0.967406 0.724050 0.469065 -0.089307
C8    C     C_R   0.242221 0.001487 0.458328 -0.031191
C9    C     C_R   0.953768 0.981565 0.721673 0.099704
C10   C     C_R   0.044402 0.682104 0.545832 -0.129698
C11   C     C_R   0.978183 0.659673 0.479890 0.060999
C12   C     C_R   0.748641 0.998398 0.464913 0.089562
C13   C     C_R   0.924098 0.578352 0.425455 -0.025680
C14   C     C_R   0.935394 0.515807 0.437054 -0.071397
C15   C     C_R   0.004137 0.537399 0.503281 0.034493
C16   C     C_R   0.844877 0.781799 0.286860 0.537760
C17   C     C_R   0.059165 0.621516 0.558724 -0.041814
C18   C     C_R   0.879474 0.432435 0.383653 0.573929
C19   C     C_R   0.891692 0.370449 0.396394 -0.255814
C20   C     C_R   0.962289 0.391209 0.458668 -0.080979
C21   C     C_R   0.017950 0.474983 0.513527 -0.064734
C22   C     C_R   0.086864 0.496181 0.578873 -0.126263
C23   C     C_R   0.764598 0.740080 0.279887 0.051041
C24   C     C_R   0.139752 0.579118 0.634036 -0.250605
C25   C     C_R   0.126967 0.642395 0.624785 0.524385
C26   C     C_R   0.977675 0.329378 0.467852 0.545138
C27   C     C_R   0.044692 0.351320 0.534095 -0.253865
C28   C     C_R   0.002567 0.235689 0.568519 0.522634
C29   C     C_R   0.100995 0.433524 0.588366 0.628021
C30   C     C_R   0.367086 0.002620 0.512959 -0.242547
C31   C     C_R   0.312537 0.999206 0.450060 -0.069370
C32   C     C_R   0.321529 0.985507 0.381506 0.560141
C33   C     C_R   0.391848 0.978875 0.379588 -0.077521
C34   C     C_R   0.052913 0.285590 0.545771 0.084339
C35   C     C_R   0.447340 0.982093 0.444401 -0.004339
C36   C     C_R   0.432302 0.990281 0.510059 -0.100461
C37   C     C_R   0.409144 0.970698 0.315551 -0.254809
C38   C     C_R   0.480266 0.966957 0.314658 0.606540
C39   C     C_R   0.537999 0.975398 0.380954 -0.167757
C40   C     C_R   0.765721 0.779504 0.349411 -0.168537
C41   C     C_R   0.520016 0.981221 0.445418 -0.088447
C42   C     C_R   0.577032 0.990502 0.512874 -0.106404
C43   C     C_R   0.557822 0.990655 0.575146 0.479397
C44   C     C_R   0.484157 0.988734 0.573003 0.456937
C45   C     C_R   0.228643 0.228471 0.647235 -0.025164
C46   C     C_R   0.613895 0.978714 0.385544 0.612963
C47   C     C_R   0.671511 0.995840 0.455579 -0.105891
C48   C     C_R   0.653493 0.001241 0.517871 -0.181828
C49   C     C_R   0.283004 0.359140 0.771047 -0.075222
C50   C     C_R   0.254764 0.398027 0.819661 -0.131339
C51   C     C_R   0.308972 0.475529 0.881548 -0.223458
C52   C     C_R   0.079070 0.240750 0.503604 -0.252833
C53   C     C_R   0.392584 0.515408 0.896335 0.053844
C54   C     C_R   0.420995 0.481650 0.845444 0.417448
C55   C     C_R   0.365302 0.404859 0.780092 0.378291
C56   C     C_R   0.930194 0.761931 0.503097 0.532889
C57   C     C_R   0.595951 0.674297 0.093512 -0.384050
C58   C     C_R   0.676155 0.710943 0.150525 0.587866
C59   C     C_R   0.529925 0.604045 0.086556 0.131084
C60   C     C_R   0.688071 0.684821 0.208611 -0.190888
C61   C     C_R   0.621878 0.614263 0.202402 0.483675
C62   C     C_R   0.543589 0.574474 0.141034 -0.310139
C63   C     C_R   0.941886 0.036354 0.210828 0.075620
C64   C     C_R   0.824545 0.067956 0.517164 -0.043908
C65   C     C_R   0.865513 0.972493 0.150643 -0.180582
C66   C     C_R   0.834932 0.979245 0.083703 -0.221216
C67   C     C_R   0.169877 0.931931 0.437066 -0.108714
C68   C     C_R   0.879966 0.052109 0.077750 0.088174
C69   C     C_R   0.948016 0.121814 0.143296 0.518829
C70   C     C_R   0.980410 0.112713 0.208377 -0.320230
C71   C     C_R   0.953990 0.031447 0.915298 -0.244634
C72   C     C_R   0.984055 0.028836 0.859933 0.522821
C73   C     C_R   0.868700 0.983532 0.895139 0.180044
C74   C     C_R   0.927055 0.978715 0.782292 -0.066029
C75   C     C_R   0.842079 0.929038 0.762253 -0.209069
C76   C     C_R   0.965462 0.950013 0.282034 -0.016744
C77   C     C_R   0.813332 0.930480 0.818596 -0.147373
C78   C     C_R   0.993731 0.053423 0.714916 -0.000231
C79   C     C_R   0.981493 0.024626 0.276494 0.019153
C80   C     C_3   0.823384 0.390711 0.255771 -0.115032
C81   C     C_3   0.945512 0.228618 0.353517 -0.180262
C82   C     C_3   0.236053 0.465423 0.639176 -0.242901
C83   C     C_3   0.434344 0.892283 0.185496 -0.145935
C84   C     C_3   0.610987 0.889191 0.280855 -0.130319
C85   C     C_3   0.607826 0.924861 0.634720 -0.181571
C86   C     C_3   0.406346 0.912278 0.619041 -0.090576
C87   C     C_3   0.744079 0.753917 0.079757 -0.131346
C88   C     C_3   0.545386 0.487075 0.895795 -0.109759
C89   C     C_R   0.924083 0.914776 0.652109 -0.069466
C90   C     C_3   0.408501 0.411744 0.686886 -0.029118
H1    H     H_    0.062520 0.154569 0.364831 0.096517
H2    H     H_    0.845584 0.306183 0.356894 0.195812
H3    H     H_    0.191467 0.594801 0.684594 0.219257
H4    H     H_    0.357154 0.014018 0.564454 0.181777
H5    H     H_    0.369365 0.969727 0.265991 0.216013
H6    H     H_    0.699690 0.011960 0.570128 0.195727
H7    H     H_    0.586592 0.698376 0.052069 0.176785
H8    H     H_    0.287436 0.501606 0.921351 0.178295
H9    H     H_    0.493470 0.518237 0.133825 0.214319
H10   H     H_    0.191546 0.367597 0.812819 0.189196
H11   H     H_    0.997630 0.068807 0.975040 0.212159
H12   H     H_    0.149985 0.868325 0.400047 0.159311
H13   H     H_    0.038196 0.164315 0.255215 0.189514
H14   H     H_    0.797630 0.890148 0.702845 0.152303
H15   H     H_    0.780006 0.925659 0.035033 0.155141
H16   H     H_    0.748050 0.891190 0.802642 0.138037
H17   H     H_    0.831405 0.916714 0.154760 0.170681
H18   H     H_    0.715559 0.758882 0.365842 0.191917
H19   H     H_    0.123962 0.263766 0.481830 0.155229
H20   H     H_    0.837234 0.131320 0.538473 0.186149
H21   H     H_    0.921980 0.888035 0.236667 0.150703
H22   H     H_    0.269404 0.256434 0.624611 0.223061
H23   H     H_    0.011614 0.115796 0.753240 0.155883
H24   H     H_    0.737193 0.582674 0.459083 0.401895
H25   H     H_    0.408253 0.195348 0.603902 0.350863
H26   H     H_    0.879465 0.443474 0.261980 0.127368
H27   H     H_    0.769050 0.377776 0.207035 0.199151
H28   H     H_    0.829142 0.333564 0.241461 0.127976
H29   H     H_    0.915569 0.160043 0.321149 0.175987
H30   H     H_    0.013797 0.254937 0.372060 0.124088
H31   H     H_    0.921866 0.251850 0.313715 0.155113
H32   H     H_    0.255230 0.517257 0.622719 0.135049
H33   H     H_    0.225226 0.407922 0.594291 0.132502
H34   H     H_    0.878686 0.852132 0.635424 0.199116
H35   H     H_    0.288460 0.483635 0.692532 0.169307
H36   H     H_    0.184310 0.846635 0.764194 0.390520
H37   H     H_    0.178092 0.891771 0.180591 0.388383
H38   H     H_    0.411927 0.835920 0.195605 0.100176
H39   H     H_    0.459564 0.880330 0.142783 0.174130
H40   H     H_    0.381633 0.901589 0.160169 0.160634
H41   H     H_    0.548236 0.844248 0.272005 0.092911
H42   H     H_    0.657804 0.873373 0.306887 0.112503
H43   H     H_    0.608173 0.881259 0.223591 0.177572
H44   H     H_    0.865957 0.654334 0.128147 0.381943
H45   H     H_    0.124133 0.233022 0.749850 0.150978
H46   H     H_    0.663407 0.936603 0.681295 0.174495
H47   H     H_    0.605536 0.887741 0.579646 0.106156
H48   H     H_    0.552449 0.888074 0.641714 0.146421
H49   H     H_    0.343089 0.898292 0.583674 0.133442
H50   H     H_    0.407221 0.910891 0.673516 0.209092
H51   H     H_    0.417798 0.861964 0.589659 0.079626
H52   H     H_    0.710041 0.776972 0.046827 0.118020
H53   H     H_    0.718271 0.685817 0.045669 0.162622
H54   H     H_    0.809566 0.784913 0.087888 0.179058
H55   H     H_    0.524561 0.422812 0.854624 0.181179
H56   H     H_    0.046216 0.758966 0.410293 0.163426
H57   H     H_    0.536506 0.486786 0.947706 0.126710
H58   H     H_    0.613170 0.524910 0.913988 0.158095
H59   H     H_    0.447784 0.480530 0.720619 0.129563
H60   H     H_    0.348258 0.395737 0.643430 0.092627
H61   H     H_    0.441732 0.390593 0.655958 0.218457
H62   H     H_    0.582979 0.444880 0.257258 0.394463
H63   H     H_    0.050630 0.382123 0.757019 0.383544
H64   H     H_    0.181530 0.074863 0.846829 0.381448
H65   H     H_    0.080419 0.346634 0.224414 0.385622
H66   H     H_    0.084040 0.747402 0.585718 0.195504
H67   H     H_    0.873570 0.564678 0.374783 0.219098
H68   H     H_    0.705807 0.865176 0.427729 0.114008
N1    N     N_R   0.052570 0.055840 0.395080 -0.041165
N2    N     N_2   0.455795 0.551790 0.017812 -0.051964
N3    N     N_2   0.875139 0.051144 0.006604 -0.023046
N4    N     N_R   0.834730 0.954500 0.499860 -0.044571
N5    N     N_2   0.842302 0.980241 0.953260 -0.074564
N6    N     N_R   0.890190 0.849120 0.355200 -0.133195
N7    N     N_R   0.997110 0.161210 0.539740 -0.119346
N8    N     N_R   0.841940 0.845190 0.395070 -0.082540
N9    N     N_R   0.045360 0.165140 0.499870 -0.074275
N10   N     N_R   0.877490 0.041590 0.539730 -0.052619
N11   N     N_R   0.009810 0.968740 0.355210 -0.039774
N12   N     N_R   0.954640 0.834860 0.500130 -0.117396
N13   N     N_R   0.158060 0.154810 0.604930 -0.073604
N14   N     N_R   0.122510 0.958410 0.460270 -0.074421
N15   N     N_R   0.990190 0.031260 0.644790 -0.067552
N16   N     N_R   0.947430 0.944160 0.604920 -0.065165
N17   N     N_R   0.165270 0.045500 0.500140 -0.109711
N18   N     N_R   0.109810 0.150880 0.644800 -0.065992
N19   N     N_R   0.002890 0.838790 0.460260 -0.078534
N20   N     N_2   0.452458 0.578969 0.969097 -0.044833
Ni1   Ni    Ni4+2 0.104370 0.104380 0.500010 0.291285
Ni2   Ni    Ni4+2 0.895630 0.895620 0.499990 0.289049
Ni3   Ni    Ni4+2 0.006290 0.904630 0.408560 0.316314
Ni4   Ni    Ni4+2 0.993710 0.095370 0.591440 0.285971
O1    O     O_2   0.866918 0.713492 0.593743 -0.291585
O2    O     O_2   0.260846 0.749202 0.761279 -0.265787
O3    O     O_2   0.240936 0.797208 0.662223 -0.346349
O4    O     O_3   0.143426 0.786797 0.730754 -0.500313
O5    O     O_2   0.176061 0.984611 0.312598 -0.253377
O6    O     O_2   0.292058 0.049286 0.283021 -0.234700
O7    O     O_3   0.210601 0.887893 0.225055 -0.549126
O8    O     O_3   0.498255 0.964708 0.252463 -0.564465
O9    O     O_3   0.635348 0.973064 0.324958 -0.562635
O10   O     O_2   0.979069 0.790030 0.265105 -0.309635
O11   O     O_2   0.887639 0.664519 0.269522 -0.280810
O12   O     O_2   0.785431 0.745807 0.503296 -0.325632
O13   O     O_3   0.836624 0.682142 0.147366 -0.542820
O14   O     O_3   0.614980 0.002359 0.641906 -0.564261
O15   O     O_3   0.467424 0.992459 0.635889 -0.585564
O16   O     O_3   0.742889 0.775166 0.152516 -0.650118
O17   O     O_3   0.504589 0.523267 0.861636 -0.619742
O18   O     O_3   0.395177 0.370003 0.732693 -0.606383
O19   O     O_2   0.724356 0.584851 0.295230 -0.220536
O20   O     O_2   0.619080 0.606197 0.331157 -0.276396
O21   O     O_3   0.570420 0.465699 0.218966 -0.504894
O22   O     O_2   0.910840 0.289662 0.621671 -0.272925
O23   O     O_3   0.787637 0.607471 0.450847 -0.468411
O24   O     O_2   0.960728 0.212228 0.679314 -0.346986
O25   O     O_3   0.066621 0.364286 0.715171 -0.510359
O26   O     O_2   0.116834 0.170282 0.894043 -0.295560
O27   O     O_2   0.138057 0.095587 0.969109 -0.222041
O28   O     O_3   0.122151 0.035363 0.830049 -0.529042
O29   O     O_2   0.065059 0.214204 0.111438 -0.236688
O30   O     O_2   0.942031 0.231678 0.089834 -0.269822
O31   O     O_3   0.051336 0.295776 0.230080 -0.560153
O32   O     O_2   0.343087 0.166315 0.454370 -0.211203
O33   O     O_2   0.253002 0.213174 0.494006 -0.318409
O34   O     O_3   0.379027 0.227446 0.598639 -0.532692
O35   O     O_3   0.809494 0.411150 0.321955 -0.598459
O36   O     O_3   0.924157 0.246259 0.415566 -0.608713
O37   O     O_3   0.165286 0.451407 0.653478 -0.557876
S1    S     S_3+6 0.840816 0.708319 0.514853 -0.021930
S2    S     S_3+6 0.303449 0.171434 0.508885 -0.024375
S3    S     S_3+6 0.197201 0.746368 0.696636 -0.040073
S4    S     S_3+6 0.247996 0.979177 0.300426 -0.001087
S5    S     S_3+6 0.890065 0.729678 0.242826 -0.033917
S6    S     S_3+6 0.636487 0.569069 0.265472 0.004519
S7    S     S_3+6 0.982173 0.274018 0.647188 -0.057945
S8    S     S_3+6 0.093264 0.085512 0.890729 -0.009637
S9    S     S_3+6 0.002090 0.217325 0.141248 -0.020671

loop_
_geom_bond_atom_site_label_1
_geom_bond_atom_site_label_2
_ccdc_geom_bond_type
N9    Ni1   S    
C63   C65   A    
O23   S1    S    
O1    S1    D    
C6    C45   A    
C85   H47   S    
C26   O36   S    
O28   S8    S    
C14   C18   A    
C83   O8    S    
C66   C68   A    
C35   C36   A    
C76   C79   A    
C56   S1    S    
C83   H38   S    
C90   H60   S    
C3    C6    A    
C53   N20   S    
C57   C58   A    
C45   H22   S    
C76   N11   A    
C39   C41   A    
C63   C79   S    
N15   N16   A    
C16   N6    A    
C7    C11   S    
N4    Ni2   S    
C81   H30   S    
C26   C27   A    
H37   O7    S    
C20   C26   A    
N7    Ni4   S    
C7    C56   A    
C88   O17   S    
C77   H16   S    
C22   C29   A    
C83   H39   S    
C90   H59   S    
O26   S8    D    
C30   C31   A    
C12   C64   A    
N19   Ni3   S    
C57   C59   A    
C90   O18   S    
C10   C17   A    
C58   C60   A    
C23   C40   A    
O33   S2    D    
C27   C29   A    
C37   H5    S    
C84   O9    S    
C18   C19   A    
C41   C42   A    
H65   O31   S    
O34   S2    S    
N6    Ni3   S    
H63   O25   S    
N14   Ni3   S    
O11   S5    D    
C4    H68   S    
C82   O37   S    
C80   H26   S    
C68   C69   A    
C38   O8    S    
C72   S8    S    
O24   S7    D    
C78   N15   A    
C88   H55   S    
H62   O21   S    
C19   H2    S    
C87   H54   S    
C4    C12   A    
N1    N11   A    
C46   O9    S    
C40   N8    A    
N14   N17   A    
C86   H50   S    
C40   H18   S    
C51   H8    S    
C71   H11   S    
C28   C34   A    
C44   O15   S    
N7    N9    A    
C13   C14   A    
H64   O28   S    
N13   Ni1   S    
C61   C62   A    
C89   N16   A    
C12   C47   S    
C45   N13   A    
C13   H67   S    
N3    N5    D    
C80   H27   S    
O20   S6    D    
C27   C34   S    
C23   C60   S    
C80   H28   S    
C84   H43   S    
C3    H45   S    
C74   C75   A    
N12   N19   A    
H36   O4    S    
C38   C39   A    
C24   C25   A    
O10   S5    D    
C83   H40   S    
C72   C74   A    
C9    C89   A    
C80   O35   S    
C5    C7    A    
C70   H13   S    
N17   Ni1   S    
C85   H46   S    
C68   N3    S    
C84   H42   S    
C2    S2    S    
C33   C37   A    
C54   O17   S    
N12   Ni2   S    
C60   C61   A    
C51   C53   A    
C42   C48   A    
O19   S6    D    
C43   C44   A    
C82   H35   S    
C37   C38   A    
O32   S2    D    
C2    N17   A    
C59   N2    S    
O25   S7    S    
C64   H20   S    
C47   C48   A    
C63   C70   A    
C1    N1    A    
C57   H7    S    
C50   C51   A    
C88   H58   S    
C25   S3    S    
C46   C47   A    
C75   C77   A    
N11   Ni3   S    
C28   N7    A    
C39   C46   A    
N4    N10   A    
C86   H49   S    
H44   O13   S    
N15   Ni4   S    
C5    N19   A    
C16   C23   A    
N10   Ni4   S    
O3    S3    D    
C75   H14   S    
C64   N10   A    
C4    N4    A    
C36   C44   A    
C78   H23   S    
N8    Ni2   S    
C9    C74   S    
C66   H15   S    
C28   S7    S    
C69   S9    S    
N16   Ni2   S    
C82   H33   S    
O21   S6    S    
C32   S4    S    
C71   C73   A    
C15   C17   A    
C54   C55   A    
C58   O16   S    
C59   C62   A    
C5    H56   S    
C48   H6    S    
C56   N12   A    
C8    C31   S    
C10   H66   S    
C31   C32   A    
C2    C8    A    
N1    Ni1   S    
C90   H61   S    
O2    S3    D    
O12   S1    D    
O7    S4    S    
C85   O14   S    
C53   C54   A    
C89   H34   S    
C67   N14   A    
N13   N18   A    
C81   H29   S    
C84   H41   S    
C34   C52   A    
H24   O23   S    
C30   C36   A    
O29   S9    D    
C17   C25   A    
C32   C33   A    
C19   C20   A    
N6    N8    A    
C71   C72   A    
C73   N5    S    
O31   S9    S    
C49   C55   A    
C24   H3    S    
C52   N9    A    
C11   C13   A    
C55   O18   S    
O13   S5    S    
O5    S4    D    
C52   H19   S    
C76   H21   S    
C1    C79   A    
C81   O36   S    
C1    H1    S    
C33   C35   A    
C88   H57   S    
C65   H17   S    
H25   O34   S    
C22   C24   A    
C9    C78   A    
C65   C66   A    
C87   H52   S    
O4    S3    S    
C69   C70   A    
C35   C41   A    
C29   O37   S    
C61   S6    S    
C50   H10   S    
C16   S5    S    
C10   C11   A    
N18   Ni4   S    
C86   O15   S    
C62   H9    S    
O30   S9    D    
O6    S4    D    
C3    N18   A    
C15   C21   A    
C20   C21   A    
C86   H51   S    
C8    C67   A    
C30   H4    S    
C49   C50   A    
C42   C43   A    
C81   H31   S    
C73   C77   A    
C14   C15   A    
C43   O14   S    
O27   S8    D    
C87   O16   S    
C87   H53   S    
C21   C22   A    
C18   O35   S    
O22   S7    D    
C85   H48   S    
C82   H32   S    
C6    C49   S    
C67   H12   S    
N2    N20   D    
