data_mof_unit_52155.cif
_audit_creation_date              2012-12-10T18:09:28-0500
_audit_creation_method            fapswitch 2.2
_symmetry_space_group_name_H-M    P1
_symmetry_Int_Tables_number       1
_space_group_crystal_system       triclinic
_cell_length_a                    14.855463
_cell_length_b                    15.520282
_cell_length_c                    9.553267
_cell_angle_alpha                 88.841613
_cell_angle_beta                  89.988204
_cell_angle_gamma                 89.99578
_cell_volume                      2202.1603543

loop_
_atom_site_label
_atom_site_type_symbol
_atom_type_description
_atom_site_fract_x
_atom_site_fract_y
_atom_site_fract_z
_atom_type_partial_charge
C1    C     C_R   0.119008 0.379002 0.500820 0.798026
C2    C     C_R   0.119147 0.620882 0.499183 0.798666
C3    C     C_R   0.619048 0.879035 0.500815 0.798222
C4    C     C_R   0.619082 0.120937 0.499176 0.798413
C5    C     C_3   0.094389 0.485528 0.079739 0.714176
C6    C     C_3   0.094330 0.514809 0.920087 0.714142
C7    C     C_3   0.594368 0.985401 0.079788 0.714155
C8    C     C_3   0.594353 0.014679 0.920135 0.714166
C9    C     C_R   0.878996 0.381318 0.500539 0.737413
C10   C     C_R   0.878981 0.618666 0.499476 0.737665
C11   C     C_R   0.379025 0.881293 0.500543 0.737574
C12   C     C_R   0.378966 0.118654 0.499480 0.737519
C13   C     C_3   0.848051 0.228718 0.565211 -0.399200
C14   C     C_3   0.777744 0.295976 0.348502 -0.386046
C15   C     C_3   0.777493 0.703829 0.651481 -0.386025
C16   C     C_3   0.848092 0.771308 0.435159 -0.399141
C17   C     C_3   0.348004 0.728783 0.565878 -0.399448
C18   C     C_3   0.278129 0.795622 0.348467 -0.386497
C19   C     C_3   0.277237 0.203599 0.651473 -0.385669
C20   C     C_3   0.348137 0.271365 0.435615 -0.399029
C21   C     C_3   0.275242 0.657848 0.569574 -0.327545
C22   C     C_3   0.210850 0.721258 0.347146 -0.332279
C23   C     C_3   0.209524 0.277641 0.652836 -0.333439
C24   C     C_3   0.275441 0.342356 0.432298 -0.328359
C25   C     C_3   0.775334 0.157745 0.568660 -0.327908
C26   C     C_3   0.710228 0.221795 0.347156 -0.332884
C27   C     C_3   0.709913 0.777971 0.652832 -0.333020
C28   C     C_3   0.775380 0.842287 0.431711 -0.328149
C29   C     C_3   0.725684 0.340447 0.586383 -0.372847
C30   C     C_3   0.725781 0.659610 0.413332 -0.372885
C31   C     C_3   0.225559 0.840546 0.585839 -0.372768
C32   C     C_3   0.225872 0.159687 0.412957 -0.372845
C33   C     C_3   0.809167 0.313168 0.500576 0.157860
C34   C     C_3   0.809134 0.686800 0.499451 0.157785
C35   C     C_3   0.309232 0.813113 0.500599 0.157846
C36   C     C_3   0.309097 0.186772 0.499473 0.157855
C37   C     C_3   0.187541 0.690987 0.498542 0.104129
C38   C     C_3   0.187323 0.308833 0.501517 0.105114
C39   C     C_3   0.687438 0.191074 0.498508 0.104521
C40   C     C_3   0.687386 0.808882 0.501487 0.104825
C41   C     C_3   0.152000 0.770244 0.578669 -0.369786
C42   C     C_3   0.152326 0.230024 0.419756 -0.369477
C43   C     C_3   0.652149 0.270114 0.579436 -0.369533
C44   C     C_3   0.652229 0.729939 0.420220 -0.369557
C45   C     C_3   0.959382 0.579430 0.079775 -0.301347
C46   C     C_3   0.944673 0.571049 0.914811 -0.252302
C47   C     C_3   0.944978 0.428735 0.085240 -0.252307
C48   C     C_3   0.959721 0.420407 0.920256 -0.301586
C49   C     C_3   0.459507 0.079492 0.079772 -0.301399
C50   C     C_3   0.444787 0.071132 0.914803 -0.252346
C51   C     C_3   0.444867 0.928817 0.085231 -0.252274
C52   C     C_3   0.459597 0.920469 0.920251 -0.301564
Cu1   Cu    Cu3+1 0.000100 0.500000 0.642410 0.965223
Cu2   Cu    Cu3+1 0.000100 0.500000 0.357590 0.965204
Cu3   Cu    Cu3+1 0.500100 0.000000 0.642410 0.965207
Cu4   Cu    Cu3+1 0.500100 0.000000 0.357590 0.965226
H1    H     H_    0.872494 0.239757 0.673532 0.179490
H2    H     H_    0.746028 0.354982 0.302137 0.166531
H3    H     H_    0.745768 0.644766 0.697609 0.166415
H4    H     H_    0.872684 0.760381 0.326880 0.179494
H5    H     H_    0.372333 0.740059 0.674190 0.179581
H6    H     H_    0.246305 0.854479 0.301765 0.166798
H7    H     H_    0.245553 0.144436 0.697353 0.166231
H8    H     H_    0.372831 0.260597 0.327333 0.179381
H9    H     H_    0.906663 0.207009 0.502426 0.151443
H10   H     H_    0.836227 0.279154 0.281318 0.178363
H11   H     H_    0.835866 0.720621 0.718857 0.178509
H12   H     H_    0.906610 0.792943 0.498160 0.151609
H13   H     H_    0.406674 0.706897 0.503383 0.151496
H14   H     H_    0.336768 0.778859 0.281562 0.178287
H15   H     H_    0.335505 0.220409 0.719073 0.178521
H16   H     H_    0.406608 0.292893 0.498842 0.151562
H17   H     H_    0.300624 0.599898 0.515182 0.162510
H18   H     H_    0.243407 0.668112 0.291260 0.245096
H19   H     H_    0.241115 0.330485 0.710628 0.245900
H20   H     H_    0.300524 0.399853 0.488165 0.163059
H21   H     H_    0.800597 0.100034 0.513511 0.162770
H22   H     H_    0.742306 0.168791 0.290329 0.245489
H23   H     H_    0.741807 0.830905 0.710034 0.245698
H24   H     H_    0.800552 0.899925 0.487127 0.162911
H25   H     H_    0.261819 0.638264 0.680141 0.251057
H26   H     H_    0.149168 0.741242 0.288765 0.184767
H27   H     H_    0.147426 0.256936 0.709442 0.182516
H28   H     H_    0.262653 0.362751 0.321915 0.249741
H29   H     H_    0.762203 0.137733 0.679119 0.250451
H30   H     H_    0.648350 0.242157 0.289656 0.183693
H31   H     H_    0.647932 0.757489 0.709986 0.183200
H32   H     H_    0.762408 0.862433 0.321269 0.250148
H33   H     H_    0.744911 0.350295 0.697531 0.179120
H34   H     H_    0.698499 0.402669 0.544637 0.141629
H35   H     H_    0.698543 0.597358 0.454844 0.141658
H36   H     H_    0.745172 0.649865 0.302221 0.179145
H37   H     H_    0.244535 0.850504 0.697067 0.179142
H38   H     H_    0.198502 0.902741 0.543760 0.141522
H39   H     H_    0.198555 0.097394 0.454202 0.141703
H40   H     H_    0.245432 0.150052 0.301876 0.179140
H41   H     H_    0.131217 0.751495 0.686596 0.228500
H42   H     H_    0.091412 0.796928 0.524676 0.140678
H43   H     H_    0.091310 0.203156 0.472295 0.140420
H44   H     H_    0.132387 0.249295 0.311727 0.229505
H45   H     H_    0.631793 0.251110 0.687429 0.229055
H46   H     H_    0.591338 0.296877 0.526185 0.140534
H47   H     H_    0.591330 0.703130 0.473189 0.140466
H48   H     H_    0.632054 0.749052 0.312211 0.229223
H49   H     H_    0.001096 0.636631 0.103804 0.204898
H50   H     H_    0.958433 0.633676 0.860969 0.208358
H51   H     H_    0.959011 0.366167 0.139097 0.208214
H52   H     H_    0.001676 0.363363 0.896192 0.204872
H53   H     H_    0.501308 0.136634 0.103805 0.204906
H54   H     H_    0.458650 0.133736 0.860951 0.208315
H55   H     H_    0.458802 0.866226 0.139075 0.208229
H56   H     H_    0.501464 0.863366 0.896192 0.204853
H57   H     H_    0.892582 0.591405 0.127743 0.175819
H58   H     H_    0.871997 0.559101 0.893534 0.152004
H59   H     H_    0.872251 0.440409 0.106561 0.152111
H60   H     H_    0.892974 0.408176 0.872339 0.175904
H61   H     H_    0.392726 0.091564 0.127732 0.175828
H62   H     H_    0.372092 0.059290 0.893524 0.152033
H63   H     H_    0.372158 0.940594 0.106553 0.152103
H64   H     H_    0.392832 0.908335 0.872328 0.175908
N1    N     N_3   0.001260 0.500000 0.143650 -0.191329
N2    N     N_3   0.001260 0.500000 0.856350 -0.191379
N3    N     N_3   0.501260 0.000000 0.143650 -0.191360
N4    N     N_3   0.501260 0.000000 0.856350 -0.191351
O1    O     O_R   0.091250 0.408820 0.620260 -0.540084
O2    O     O_R   0.091250 0.408820 0.379740 -0.520127
O3    O     O_R   0.091250 0.591180 0.620260 -0.519874
O4    O     O_R   0.091250 0.591180 0.379740 -0.539959
O5    O     O_R   0.591250 0.908820 0.620260 -0.540052
O6    O     O_R   0.591250 0.908820 0.379740 -0.520039
O7    O     O_R   0.591250 0.091180 0.620260 -0.519962
O8    O     O_R   0.591250 0.091180 0.379740 -0.539970
O9    O     O_R   0.908940 0.408800 0.620260 -0.601234
O10   O     O_R   0.908940 0.408800 0.379740 -0.601394
O11   O     O_R   0.908940 0.591200 0.620260 -0.601278
O12   O     O_R   0.908940 0.591200 0.379740 -0.601188
O13   O     O_R   0.408940 0.908800 0.620260 -0.601248
O14   O     O_R   0.408940 0.908800 0.379740 -0.601367
O15   O     O_R   0.408940 0.091200 0.620260 -0.601308
O16   O     O_R   0.408940 0.091200 0.379740 -0.601185
Cl1   Cl    Cl    0.186052 0.534724 0.166529 -0.570640
Cl2   Cl    Cl    0.129740 0.627254 0.903275 -0.660648
Cl3   Cl    Cl    0.130312 0.373254 0.096526 -0.660385
Cl4   Cl    Cl    0.186160 0.465896 0.833016 -0.570534
Cl5   Cl    Cl    0.686092 0.034489 0.166667 -0.570517
Cl6   Cl    Cl    0.629956 0.127055 0.903333 -0.660548
Cl7   Cl    Cl    0.630106 0.873064 0.096583 -0.660479
Cl8   Cl    Cl    0.686124 0.965661 0.833154 -0.570544

loop_
_geom_bond_atom_site_label_1
_geom_bond_atom_site_label_2
_ccdc_geom_bond_type
C16   C28   S    
Cu3   Cu4   S    
C17   H13   S    
C21   H17   S    
C3    O6    A    
C51   N3    S    
C19   H15   S    
Cu1   O11   S    
C52   H56   S    
C13   C25   S    
C14   C33   S    
C29   H33   S    
C44   H48   S    
C7    C8    S    
C4    O8    A    
C13   H9    S    
C45   C46   S    
C47   H59   S    
Cu2   O2    S    
C26   H22   S    
C23   H27   S    
C37   C41   S    
C25   H21   S    
C32   C36   S    
C11   O14   A    
C1    O1    A    
C38   C42   S    
C27   H23   S    
C19   C36   S    
C48   N2    S    
C5    C6    S    
Cu4   O16   S    
C26   C39   S    
C5    Cl3   S    
C13   H1    S    
C28   C40   S    
Cu2   O10   S    
C29   C33   S    
C50   H54   S    
Cu3   O15   S    
C50   H62   S    
C16   H4    S    
C20   H16   S    
Cu1   O3    S    
C17   H5    S    
C5    Cl1   S    
C49   H61   S    
C20   C24   S    
C19   H7    S    
Cu3   O5    S    
C28   H32   S    
C24   C38   S    
C12   O16   A    
C16   H12   S    
C12   C36   S    
C18   C35   S    
C15   C34   S    
C48   H60   S    
C24   H20   S    
C9    O10   A    
C15   H11   S    
C3    O5    A    
C29   C43   S    
C9    C33   S    
C30   C44   S    
C8    Cl8   S    
C29   H34   S    
C44   H47   S    
C45   H49   S    
C4    O7    A    
C7    Cl7   S    
C32   C42   S    
C15   C27   S    
C14   H2    S    
C30   C34   S    
C51   C52   S    
Cu4   N3    S    
Cu1   O9    S    
C10   O11   A    
C30   H36   S    
C23   H19   S    
C46   H58   S    
C8    N4    S    
C39   C43   S    
C45   N1    S    
Cu1   Cu2   S    
C22   C37   S    
Cu2   O4    S    
C17   C21   S    
C20   H8    S    
C19   C23   S    
C43   H45   S    
C13   C33   S    
C16   C34   S    
C42   H44   S    
Cu4   O14   S    
C51   H63   S    
C47   C48   S    
C4    C39   S    
C27   C40   S    
C26   H30   S    
Cu2   O12   S    
C25   H29   S    
C14   H10   S    
C12   O15   A    
C50   N4    S    
C10   C34   S    
C14   C26   S    
C27   H31   S    
Cu4   O8    S    
Cu1   O1    S    
C1    C38   S    
C52   H64   S    
C32   H40   S    
Cu2   N1    S    
C21   H25   S    
C3    C40   S    
Cu3   O7    S    
C1    O2    A    
C31   C35   S    
C6    Cl2   S    
C6    N2    S    
C6    Cl4   S    
C23   C38   S    
C22   H26   S    
C49   H53   S    
C9    O9    A    
Cu3   N4    S    
C5    N1    S    
C51   H55   S    
C31   C41   S    
C18   C22   S    
C15   H3    S    
C8    Cl6   S    
C7    N3    S    
C30   H35   S    
C10   O12   A    
C31   H38   S    
C47   H51   S    
C18   H14   S    
Cu3   O13   S    
Cu1   N2    S    
C11   C35   S    
C24   H28   S    
C43   H46   S    
C31   H37   S    
C42   H43   S    
C2    O3    A    
C52   N4    S    
C2    C37   S    
C48   H52   S    
C46   H50   S    
C41   H41   S    
C11   O13   A    
C28   H24   S    
Cu4   O6    S    
C47   N1    S    
C20   C36   S    
C45   H57   S    
C40   C44   S    
C32   H39   S    
C21   C37   S    
C49   C50   S    
C22   H18   S    
C41   H42   S    
C46   N2    S    
C18   H6    S    
C17   C35   S    
C25   C39   S    
C2    O4    A    
C7    Cl5   S    
C49   N3    S    
