data_mof_unit_53525.cif
_audit_creation_date              2013-03-05T16:03:41-0500
_audit_creation_method            fapswitch 2.2
_symmetry_space_group_name_H-M    P1
_symmetry_Int_Tables_number       1
_space_group_crystal_system       triclinic
_cell_length_a                    8.791659
_cell_length_b                    10.832874
_cell_length_c                    9.513818
_cell_angle_alpha                 89.989857
_cell_angle_beta                  97.785662
_cell_angle_gamma                 90.177111
_cell_volume                      897.729064068

loop_
_atom_site_label
_atom_site_type_symbol
_atom_site_description
_atom_site_fract_x
_atom_site_fract_y
_atom_site_fract_z
_atom_type_partial_charge
O1    O     O_R   0.499990 0.319660 0.618740 -0.602415
O2    O     O_R   0.500010 0.680340 0.381260 -0.602416
O3    O     O_R   0.499990 0.319630 0.381170 -0.579483
O4    O     O_R   0.500010 0.680370 0.618830 -0.579481
C1    C     C_R   0.499934 0.262061 0.499961 0.802003
C2    C     C_R   0.500066 0.737939 0.500039 0.802006
O5    O     O_R   0.274840 0.500010 0.591370 -0.558263
O6    O     O_R   0.725160 0.499990 0.408630 -0.558261
O7    O     O_R   0.274830 0.499980 0.353800 -0.553094
O8    O     O_R   0.725170 0.500020 0.646200 -0.553092
C3    C     C_R   0.204162 0.499728 0.464143 0.839415
C4    C     C_R   0.795838 0.500273 0.535857 0.839409
Cu1   Cu    Cu3+1 0.500000 0.500020 0.640660 1.019193
Cu2   Cu    Cu3+1 0.500000 0.499980 0.359340 1.019193
N1    N     N_R   0.500040 0.500030 0.852080 -0.178271
N2    N     N_R   0.499960 0.499970 0.147920 -0.178271
C5    C     C_2   0.040019 0.484246 0.446409 0.027569
C6    C     C_2   0.959981 0.515758 0.553590 0.027564
C7    C     C_R   0.503276 0.063875 0.372704 -0.139208
C8    C     C_R   0.496724 0.936125 0.627295 -0.139206
H1    H     H_    0.505951 0.111926 0.273198 0.162378
H2    H     H_    0.494049 0.888074 0.726802 0.162379
C9    C     C_R   0.503359 0.936166 0.372727 -0.168742
C10   C     C_R   0.496641 0.063834 0.627273 -0.168743
H3    H     H_    0.506119 0.888147 0.273242 0.157349
H4    H     H_    0.493881 0.111853 0.726758 0.157348
C11   C     C_R   0.500064 0.871782 0.500019 -0.015301
C12   C     C_R   0.499936 0.128218 0.499981 -0.015302
C13   C     C_R   0.398064 0.428735 0.061651 0.025618
C14   C     C_R   0.601936 0.571265 0.938349 0.025621
H5    H     H_    0.316609 0.371487 0.107564 0.153195
H6    H     H_    0.683391 0.628513 0.892436 0.153199
C15   C     C_R   0.398098 0.428774 0.912795 0.038058
C16   C     C_R   0.601902 0.571226 0.087205 0.038064
H7    H     H_    0.316630 0.371579 0.846456 0.138524
H8    H     H_    0.683370 0.628421 0.153544 0.138528
N3    N     N_R   0.971069 0.417883 0.322465 0.120661
O9    O     O_R   0.991040 0.455882 0.196492 -0.329117
O10   O     O_R   0.907668 0.310609 0.336358 -0.360077
N4    N     N_R   0.028930 0.582125 0.677531 0.120661
O11   O     O_R   0.008944 0.544140 0.803504 -0.329115
O12   O     O_R   0.092343 0.689393 0.663633 -0.360077

loop_
_geom_bond_atom_site_label_1
_geom_bond_atom_site_label_2
_geom_bond_distance
_ccdc_geom_bond_type
C7    C9    1.383455 A    
O7    Cu2   1.973170 S    
N3    O9    1.301159 A    
C8    C11   1.401073 A    
C9    C11   1.401063 A    
C14   H6    1.081732 S    
C1    C12   1.449902 S    
C2    C11   1.449902 S    
Cu1   N1    2.011365 S    
O6    C4    1.283527 A    
C8    C10   1.383455 A    
N4    O12   1.301727 A    
C5    C6    1.359225 D    
N3    O10   1.301730 A    
C5    N3    1.441765 S    
Cu1   Cu2   2.676427 S    
O5    C3    1.283525 A    
C7    C12   1.401073 A    
O7    C3    1.290250 A    
C15   H7    1.081732 S    
O2    C2    1.290900 A    
O3    Cu2   1.964681 S    
O8    C4    1.290252 A    
O1    C1    1.290899 A    
N4    O11   1.301154 A    
C7    H1    1.083282 S    
C8    H2    1.083282 S    
C16   H8    1.081732 S    
C9    H3    1.083274 S    
O2    Cu2   1.964951 S    
Cu2   N2    2.011363 S    
O1    Cu1   1.964950 S    
C14   C16   1.416230 A    
C13   C15   1.416230 A    
O5    Cu1   1.971532 S    
N1    C14   1.366884 A    
O4    C2    1.290766 A    
C4    C6    1.439321 S    
O4    Cu1   1.964682 S    
C6    N4    1.441765 S    
C3    C5    1.439319 S    
O6    Cu2   1.971531 S    
N2    C16   1.366956 A    
N2    C13   1.366885 A    
C13   H5    1.081732 S    
N1    C15   1.366955 A    
C10   C12   1.401064 A    
C10   H4    1.083273 S    
O3    C1    1.290765 A    
O8    Cu1   1.973168 S    
