data_mof_unit_6740.cif
_audit_creation_date              2013-03-05T16:12:31-0500
_audit_creation_method            fapswitch 2.2
_symmetry_space_group_name_H-M    P1
_symmetry_Int_Tables_number       1
_space_group_crystal_system       triclinic
_cell_length_a                    23.788581
_cell_length_b                    7.220754
_cell_length_c                    20.608018
_cell_angle_alpha                 89.99991
_cell_angle_beta                  105.48139
_cell_angle_gamma                 90.000846
_cell_volume                      3411.43360214

loop_
_atom_site_label
_atom_site_type_symbol
_atom_site_description
_atom_site_fract_x
_atom_site_fract_y
_atom_site_fract_z
_atom_type_partial_charge
O1    O     O_R   0.449110 0.494310 0.552140 -0.584763
O2    O     O_R   0.550890 0.994310 0.447860 -0.584794
O3    O     O_R   0.440010 0.824420 0.415850 -0.572423
O4    O     O_R   0.559990 0.324420 0.584150 -0.572397
C1    C     C_R   0.425368 0.655097 0.390836 0.977985
C2    C     C_R   0.574632 0.155099 0.609164 0.977994
O5    O     O_R   0.442260 0.824040 0.549660 -0.558377
O6    O     O_R   0.557740 0.324040 0.450340 -0.558340
O7    O     O_R   0.553160 0.993960 0.582620 -0.572382
O8    O     O_R   0.446840 0.493960 0.417380 -0.572376
C3    C     C_R   0.427648 0.655458 0.566293 0.976397
C4    C     C_R   0.572356 0.155459 0.433712 0.976428
O9    O     O_3   0.536380 0.660670 0.510660 -0.259748
O10   O     O_3   0.463620 0.160670 0.489340 -0.259750
V1    V     V_3+5 0.493250 0.935680 0.498020 1.286402
V2    V     V_3+5 0.506750 0.435680 0.501980 1.286428
C5    C     C_R   0.822941 0.908856 0.169941 -0.137728
C6    C     C_R   0.177067 0.408887 0.830067 -0.137728
H1    H     H_    0.805777 0.782530 0.185638 0.112551
H2    H     H_    0.194233 0.282566 0.814370 0.112549
C7    C     C_R   0.862277 0.897633 0.129963 -0.161129
C8    C     C_R   0.137728 0.397652 0.870041 -0.161133
H3    H     H_    0.874499 0.762056 0.115865 0.132073
H4    H     H_    0.125506 0.262071 0.884137 0.132071
C9    C     C_R   0.885707 0.059354 0.108988 -0.124439
C10   C     C_R   0.114295 0.559367 0.891015 -0.124441
C11   C     C_R   0.868226 0.232278 0.128928 -0.157282
C12   C     C_R   0.131776 0.732295 0.871077 -0.157276
H5    H     H_    0.885018 0.360156 0.114002 0.135412
H6    H     H_    0.114982 0.860169 0.886003 0.135414
C13   C     C_R   0.828939 0.242999 0.168811 -0.143153
C14   C     C_R   0.171066 0.743028 0.831198 -0.143157
H7    H     H_    0.816482 0.377694 0.183563 0.111609
H8    H     H_    0.183523 0.877727 0.816448 0.111608
C15   C     C_R   0.806178 0.081578 0.189707 0.174557
C16   C     C_R   0.193830 0.581615 0.810303 0.174560
C17   C     C_1   0.766109 0.093876 0.231752 -0.067429
C18   C     C_1   0.233903 0.593925 0.768263 -0.067439
C19   C     C_1   0.732822 0.105552 0.267085 0.000313
C20   C     C_1   0.267192 0.605607 0.732933 0.000321
C21   C     C_R   0.652017 0.980787 0.308443 -0.080547
C22   C     C_R   0.347992 0.480817 0.691573 -0.080598
H9    H     H_    0.649127 0.862305 0.275443 0.134997
H10   H     H_    0.350875 0.362332 0.724570 0.135006
C23   C     C_R   0.613994 0.993433 0.349671 -0.076856
C24   C     C_R   0.386012 0.493442 0.650342 -0.076746
H11   H     H_    0.582259 0.884458 0.346795 0.176679
H12   H     H_    0.417740 0.384450 0.653211 0.176717
C25   C     C_R   0.616102 0.145059 0.393343 -0.290843
C26   C     C_R   0.383908 0.645064 0.606670 -0.290877
C27   C     C_R   0.659072 0.284046 0.395856 0.377709
C28   C     C_R   0.340950 0.784072 0.604165 0.377785
C29   C     C_R   0.696359 0.270915 0.353044 -0.215728
C30   C     C_R   0.303665 0.770972 0.646979 -0.215763
H13   H     H_    0.729148 0.376572 0.355079 0.162969
H14   H     H_    0.270882 0.876649 0.644945 0.162920
C31   C     C_R   0.693149 0.119789 0.309561 0.089533
C32   C     C_R   0.306867 0.619841 0.690459 0.089531
C33   C     C_R   0.639246 0.089915 0.796057 -0.203133
C34   C     C_R   0.360756 0.589837 0.203946 -0.203136
H15   H     H_    0.723003 0.060247 0.909583 0.134663
H16   H     H_    0.277000 0.560117 0.090422 0.134664
H17   H     H_    0.623738 0.074549 0.840672 0.151600
H18   H     H_    0.376264 0.574436 0.159334 0.151602
C35   C     C_R   0.617623 0.141688 0.675799 -0.196653
C36   C     C_R   0.382378 0.641679 0.324201 -0.196655
C37   C     C_R   0.903530 0.055638 0.767411 -0.220818
C38   C     C_R   0.096468 0.555706 0.232588 -0.220816
C39   C     C_R   0.865773 0.046780 0.703180 -0.150784
C40   C     C_R   0.134224 0.546870 0.296820 -0.150794
C41   C     C_R   0.805157 0.043967 0.693211 0.323570
C42   C     C_R   0.194840 0.544027 0.306791 0.323581
C43   C     C_R   0.781131 0.070042 0.749182 -0.064021
C44   C     C_R   0.218868 0.570050 0.250818 -0.064022
C45   C     C_R   0.820672 0.064823 0.815518 0.086243
C46   C     C_R   0.179328 0.564803 0.184483 0.086240
C47   C     C_R   0.719709 0.095671 0.742573 0.108424
C48   C     C_R   0.280291 0.595657 0.257427 0.108429
C49   C     C_R   0.699217 0.083655 0.801151 0.143713
C50   C     C_R   0.300785 0.583594 0.198851 0.143714
C51   C     C_R   0.738538 0.066714 0.864734 -0.192157
C52   C     C_R   0.261464 0.566622 0.135269 -0.192159
C53   C     C_R   0.798241 0.063311 0.872019 -0.171890
C54   C     C_R   0.201760 0.563240 0.127983 -0.171893
C55   C     C_R   0.677872 0.138997 0.680792 -0.152687
C56   C     C_R   0.322129 0.639008 0.319206 -0.152715
C57   C     C_R   0.598595 0.112264 0.733824 0.183242
C58   C     C_R   0.401406 0.612213 0.266178 0.183252
C59   C     C_R   0.882009 0.057370 0.824043 -0.157977
C60   C     C_R   0.117991 0.557380 0.175957 -0.157976
H19   H     H_    0.690834 0.172985 0.635949 0.180413
H20   H     H_    0.309167 0.673027 0.364046 0.180432
H21   H     H_    0.950147 0.051753 0.773088 0.134974
H22   H     H_    0.049851 0.551849 0.226910 0.134975
H23   H     H_    0.884140 0.030324 0.660764 0.171884
H24   H     H_    0.115855 0.530458 0.339236 0.171883
H25   H     H_    0.826801 0.055761 0.922591 0.101263
H26   H     H_    0.173201 0.555666 0.077411 0.101266
O11   O     O_R   0.053190 0.709680 0.082610 -0.577867
O12   O     O_R   0.946810 0.209680 0.917390 -0.577869
O13   O     O_R   0.057740 0.380240 0.950340 -0.593619
O14   O     O_R   0.942260 0.880240 0.049660 -0.593620
C61   C     C_R   0.071486 0.548932 0.932532 0.900006
C62   C     C_R   0.928514 0.048930 0.067468 0.900008
O15   O     O_R   0.060000 0.379940 0.084150 -0.579275
O16   O     O_R   0.940000 0.879940 0.915850 -0.579274
O17   O     O_R   0.949110 0.210100 0.052140 -0.589807
O18   O     O_R   0.050890 0.710100 0.947860 -0.589808
C63   C     C_R   0.074767 0.548622 0.109125 0.912587
C64   C     C_R   0.925233 0.048620 0.890875 0.912589
O19   O     O_3   0.963630 0.543720 0.989330 -0.280535
O20   O     O_3   0.036370 0.043720 0.010670 -0.280535
V3    V     V_3+5 0.006750 0.268680 0.001980 1.160785
V4    V     V_3+5 0.993250 0.768680 0.998020 1.160788
N1    N     N_R   0.770327 0.987003 0.628161 0.224657
O21   O     O_R   0.735010 0.846846 0.623191 -0.356814
O22   O     O_R   0.781344 0.051704 0.573897 -0.357079
N2    N     N_R   0.229667 0.487086 0.371845 0.224665
O23   O     O_R   0.264979 0.346921 0.376825 -0.356820
O24   O     O_R   0.218650 0.551817 0.426103 -0.357054
N3    N     N_R   0.667717 0.433366 0.443568 0.249321
O25   O     O_R   0.681818 0.597141 0.426726 -0.372534
O26   O     O_R   0.671836 0.399030 0.506670 -0.358790
N4    N     N_R   0.332309 0.933360 0.556446 0.249328
O27   O     O_R   0.318322 0.097238 0.573313 -0.372575
O28   O     O_R   0.328090 0.898935 0.493329 -0.358762
I1    I     I_    0.508813 0.100034 0.730825 -0.437343
I2    I     I_    0.491189 0.599965 0.269180 -0.437368

loop_
_geom_bond_atom_site_label_1
_geom_bond_atom_site_label_2
_geom_bond_distance
_ccdc_geom_bond_type
O12   C64   1.328456 A    
C11   H5    1.082764 S    
O13   V3    1.985405 S    
C29   H13   1.083857 S    
O1    C3    1.333876 A    
O2    C4    1.333878 A    
C46   C54   1.404391 A    
C2    O7    1.328451 A    
C57   I1    2.121967 S    
C4    C25   1.497634 S    
C34   C58   1.394233 A    
O8    V2    1.980242 S    
O5    C3    1.335553 A    
C44   C46   1.438231 A    
O16   V4    1.993090 S    
C14   C16   1.400580 A    
C8    H4    1.082786 S    
O15   V3    1.993079 S    
C15   C17   1.451935 S    
N4    O28   1.301539 A    
C36   C58   1.403182 A    
C48   C50   1.420074 A    
N1    O21   1.301757 A    
O11   C63   1.328456 A    
C37   C59   1.394006 A    
C22   C24   1.399493 A    
C23   H11   1.081082 S    
O18   V4    1.970853 S    
C39   C41   1.401339 A    
N2    O23   1.301733 A    
O17   V3    1.970839 S    
C7    C9    1.410583 A    
C2    C35   1.480300 S    
C25   C27   1.423531 A    
C38   C60   1.394003 A    
C13   H7    1.083642 S    
C61   O18   1.332963 A    
C48   C56   1.425811 A    
O5    V1    1.985636 S    
H16   C52   1.084120 S    
C47   C55   1.425811 A    
O6    V2    1.985656 S    
C21   H9    1.083604 S    
C22   C32   1.397621 A    
C22   H10   1.083603 S    
O11   V4    1.981556 S    
O20   V3    1.760636 S    
C51   C53   1.387968 A    
C28   C30   1.411352 A    
C35   C57   1.403183 A    
C24   H12   1.081079 S    
C47   C49   1.420076 A    
C55   H19   1.077703 S    
C30   H14   1.083867 S    
C20   C32   1.452077 S    
C11   C13   1.401813 A    
C12   C14   1.401811 A    
C42   C44   1.429865 A    
C33   C49   1.402987 A    
C49   C51   1.397329 A    
C29   C31   1.401099 A    
N1    O22   1.301526 A    
C59   C64   1.483965 S    
C5    C7    1.404472 A    
C37   C39   1.388599 A    
C14   H8    1.083640 S    
O4    V2    1.992995 S    
C40   H24   1.083045 S    
O14   V4    1.985421 S    
C10   C61   1.496631 S    
C26   C28   1.423497 A    
C23   C25   1.409658 A    
O6    C4    1.335554 A    
C41   N1    1.435200 S    
O1    V2    1.970932 S    
O14   C62   1.337676 A    
O2    V1    1.970922 S    
N3    O25   1.301393 A    
N2    O24   1.301488 A    
O4    C2    1.336421 A    
C52   C54   1.387973 A    
C7    H3    1.082786 S    
C44   C48   1.442740 A    
C27   N3    1.436531 S    
C13   C15   1.400584 A    
C43   C45   1.438234 A    
C56   H20   1.077700 S    
O3    C1    1.336425 A    
O3    V1    1.992983 S    
C41   C43   1.429871 A    
C30   C32   1.401113 A    
O15   C63   1.332414 A    
C34   C50   1.402987 A    
C43   C47   1.442743 A    
C6    C8    1.404473 A    
C10   C12   1.411429 A    
O12   V3    1.981548 S    
C1    C36   1.480297 S    
C39   H23   1.083051 S    
C36   C56   1.409386 A    
C9    C62   1.496630 S    
C35   C55   1.409388 A    
C9    C11   1.411429 A    
C38   H22   1.083961 S    
C24   C26   1.409641 A    
C33   H17   1.083879 S    
O13   C61   1.337682 A    
C34   H18   1.083878 S    
C54   H26   1.082918 S    
C12   H6    1.082765 S    
O7    V1    1.980231 S    
C21   C31   1.397601 A    
C1    O8    1.328449 A    
C17   C19   1.213320 T    
C3    C26   1.497620 S    
H15   C51   1.084123 S    
C18   C20   1.213318 T    
C28   N4    1.436468 S    
C45   C53   1.404395 A    
C16   C18   1.451937 S    
C5    H1    1.083467 S    
C50   C52   1.397328 A    
O19   V4    1.760616 S    
C6    H2    1.083466 S    
C33   C57   1.394234 A    
N3    O26   1.301588 A    
C45   C59   1.423350 A    
C8    C10   1.410581 A    
O16   C64   1.332409 A    
C53   H25   1.082919 S    
O9    V2    1.760908 S    
C42   N2    1.435195 S    
C37   H21   1.083960 S    
C38   C40   1.388597 A    
C21   C23   1.399491 A    
O10   V1    1.760926 S    
C40   C42   1.401343 A    
C5    C15   1.402546 A    
C60   C63   1.483964 S    
C27   C29   1.411370 A    
C58   I2    2.121974 S    
C6    C16   1.402548 A    
C62   O17   1.332965 A    
C46   C60   1.423352 A    
N4    O27   1.301356 A    
C19   C31   1.452077 S    
