data_mof_unit_39869.cif
_audit_creation_date              2012-12-10T18:59:17-0500
_audit_creation_method            fapswitch 2.2
_symmetry_space_group_name_H-M    P1
_symmetry_Int_Tables_number       1
_space_group_crystal_system       triclinic
_cell_length_a                    10.771711
_cell_length_b                    10.855685
_cell_length_c                    9.631957
_cell_angle_alpha                 89.174029
_cell_angle_beta                  89.58083
_cell_angle_gamma                 90.664639
_cell_volume                      1126.08182136

loop_
_atom_site_label
_atom_site_type_symbol
_atom_type_description
_atom_site_fract_x
_atom_site_fract_y
_atom_site_fract_z
_atom_type_partial_charge
C1    C     C_R   0.502094 0.262507 0.500324 0.787633
C2    C     C_R   0.065322 0.607085 0.565226 0.091434
C3    C     C_R   0.128682 0.509875 0.500045 -0.114129
C4    C     C_R   0.063437 0.417669 0.431062 -0.219221
C5    C     C_R   0.935256 0.417703 0.430117 -0.207496
C6    C     C_R   0.870745 0.510430 0.497460 -0.094284
C7    C     C_R   0.503174 0.061042 0.622754 0.126015
C8    C     C_R   0.513534 0.129199 0.499759 -0.124583
C9    C     C_R   0.542998 0.066585 0.376986 -0.216616
C10   C     C_R   0.544063 0.937734 0.376521 -0.209055
C11   C     C_R   0.519556 0.870488 0.499771 -0.080752
C12   C     C_R   0.262733 0.502665 0.500259 0.785641
C13   C     C_R   0.511823 0.934334 0.624449 0.024017
C14   C     C_3   0.421128 0.919244 0.741981 -0.499569
C15   C     C_3   0.404607 0.058444 0.734040 0.415169
C16   C     C_R   0.601073 0.540574 0.071556 0.191411
C17   C     C_R   0.406694 0.444440 0.077635 0.300208
C18   C     C_R   0.404691 0.446473 0.928976 0.289774
C19   C     C_R   0.601907 0.539078 0.925388 0.205641
C20   C     C_3   0.665018 0.661812 0.916710 -0.493527
C21   C     C_3   0.661218 0.664604 0.074443 -0.482035
C22   C     C_R   0.504500 0.737358 0.499380 0.775351
C23   C     C_R   0.737078 0.502282 0.499318 0.777827
C24   C     C_R   0.129082 0.704100 0.630888 -0.188594
C25   C     C_R   0.064341 0.800056 0.691999 -0.150839
C26   C     C_R   0.935546 0.803015 0.685301 -0.140576
C27   C     C_R   0.870684 0.708809 0.619806 -0.198739
C28   C     C_R   0.934274 0.608316 0.561977 0.100340
Cu1   Cu    Cu3+1 0.499990 0.499980 0.640670 0.936609
Cu2   Cu    Cu3+1 0.500010 0.500020 0.359330 0.950743
H1    H     H_    0.111985 0.343631 0.380635 0.149971
H2    H     H_    0.465732 0.886458 0.838899 0.177492
H3    H     H_    0.760987 0.654871 0.875160 0.208666
H4    H     H_    0.607581 0.733314 0.866242 0.208829
H5    H     H_    0.754788 0.662081 0.122257 0.202978
H6    H     H_    0.598323 0.736053 0.115245 0.199525
H7    H     H_    0.228948 0.706737 0.634470 0.145664
H8    H     H_    0.114058 0.873099 0.743598 0.135821
H9    H     H_    0.885659 0.878721 0.730637 0.135249
H10   H     H_    0.770818 0.716092 0.614376 0.141096
H11   H     H_    0.885942 0.343629 0.379119 0.145418
H12   H     H_    0.560164 0.116273 0.280450 0.156804
H13   H     H_    0.558909 0.891524 0.279241 0.151902
H14   H     H_    0.338153 0.864726 0.713796 0.178605
N1    N     N_R   0.500790 0.500930 0.147930 -0.227596
N2    N     N_R   0.500790 0.500890 0.852020 -0.231755
O1    O     O_R   0.500000 0.319640 0.618810 -0.585403
O2    O     O_R   0.500010 0.319680 0.381230 -0.563761
O3    O     O_R   0.319640 0.499980 0.618820 -0.584921
O4    O     O_R   0.319650 0.500020 0.381230 -0.548178
O5    O     O_R   0.499990 0.680320 0.618770 -0.585285
O6    O     O_R   0.500000 0.680360 0.381190 -0.582783
O7    O     O_R   0.680350 0.499980 0.618770 -0.579406
O8    O     O_R   0.680360 0.500020 0.381180 -0.576542
C29   C     C_3   0.274830 0.094636 0.681639 -0.887996
H15   H     H_    0.206548 0.090822 0.768549 0.226532
H16   H     H_    0.275837 0.188303 0.634946 0.217696
H17   H     H_    0.242732 0.031560 0.599039 0.221700
N3    N     N_2   0.438568 0.120237 0.862182 -0.401011
H18   H     H_    0.384277 0.091011 0.944992 0.248195
C30   C     C_3   0.568758 0.132873 0.898151 -0.703030
H19   H     H_    0.577482 0.183796 0.996712 0.208266
H20   H     H_    0.620061 0.186665 0.816939 0.249469
H21   H     H_    0.611469 0.040960 0.912041 0.210889
N4    N     N_2   0.309830 0.384581 0.154414 -0.362730
H22   H     H_    0.223576 0.423891 0.146665 0.245186
C31   C     C_3   0.309086 0.251495 0.158182 -0.639525
H23   H     H_    0.249324 0.215155 0.074505 0.210989
H24   H     H_    0.270870 0.218539 0.259526 0.212509
H25   H     H_    0.404351 0.215380 0.147354 0.224339
N5    N     N_2   0.306303 0.382318 0.863214 -0.399303
H26   H     H_    0.327304 0.333662 0.776496 0.312841
C32   C     C_3   0.181428 0.429967 0.874992 -0.680659
H27   H     H_    0.137063 0.433706 0.771924 0.240790
H28   H     H_    0.181127 0.523855 0.919687 0.219389
H29   H     H_    0.123958 0.366528 0.940665 0.215273

loop_
_geom_bond_atom_site_label_1
_geom_bond_atom_site_label_2
_ccdc_geom_bond_type
C29   H15   S    
C16   C21   S    
C1    C8    S    
C32   H27   S    
Cu2   N1    S    
C19   C20   S    
C12   O3    A    
C19   N2    A    
C7    C8    A    
C21   H6    S    
Cu1   O3    S    
Cu2   O8    S    
C9    H12   S    
Cu1   O1    S    
Cu2   O2    S    
C17   N1    A    
C5    C6    A    
C26   H9    S    
C30   H20   S    
Cu2   O6    S    
C3    C12   S    
C6    C28   A    
C8    C9    A    
N4    C31   S    
C9    C10   A    
C20   H4    S    
C7    C15   S    
Cu2   O4    S    
N3    H18   S    
C13   C14   S    
C32   H28   S    
C18   N2    A    
C23   O7    A    
N3    C30   S    
C31   H23   S    
C24   C25   A    
C24   H7    S    
N5    C32   S    
C1    O1    A    
C25   C26   A    
C31   H24   S    
C15   C29   S    
C30   H21   S    
Cu1   Cu2   S    
C25   H8    S    
C27   H10   S    
C17   C18   A    
C26   C27   A    
C20   H3    S    
C29   H16   S    
C2    C24   A    
C32   H29   S    
C3    C4    A    
C23   O8    A    
C22   O6    A    
Cu1   O5    S    
C18   N5    S    
C5    H11   S    
C10   H13   S    
C15   N3    S    
C14   H2    S    
C4    C5    A    
C16   N1    A    
C12   O4    A    
C1    O2    A    
C21   H5    S    
C11   C22   S    
C17   N4    S    
Cu1   N2    S    
C31   H25   S    
C2    C3    A    
N5    H26   S    
C11   C13   A    
Cu1   O7    S    
C16   C19   A    
C6    C23   S    
C14   H14   S    
C30   H19   S    
C4    H1    S    
C10   C11   A    
C7    C13   A    
C20   C21   S    
N4    H22   S    
C29   H17   S    
C27   C28   A    
C14   C15   S    
C2    C28   A    
C22   O5    A    
