data_mof_unit_14527.cif
_audit_creation_date              2012-12-10T18:12:34-0500
_audit_creation_method            fapswitch 2.2
_symmetry_space_group_name_H-M    P1
_symmetry_Int_Tables_number       1
_space_group_crystal_system       triclinic
_cell_length_a                    9.407789
_cell_length_b                    10.732709
_cell_length_c                    17.365252
_cell_angle_alpha                 90.014858
_cell_angle_beta                  86.064728
_cell_angle_gamma                 90.02356
_cell_volume                      1749.25363056

loop_
_atom_site_label
_atom_site_type_symbol
_atom_type_description
_atom_site_fract_x
_atom_site_fract_y
_atom_site_fract_z
_atom_type_partial_charge
C1    C     C_R   0.499879 0.740106 0.500545 0.770837
C2    C     C_R   0.339344 0.497677 0.776041 -0.207875
C3    C     C_R   0.409556 0.539409 0.147929 -0.152780
C4    C     C_R   0.402646 0.528832 0.227625 -0.219167
C5    C     C_R   0.659881 0.507064 0.223691 -0.208861
C6    C     C_R   0.666646 0.517299 0.143613 -0.174132
C7    C     C_R   0.541389 0.530992 0.105319 0.197054
C8    C     C_2   0.447274 0.489043 0.979782 -0.232474
C9    C     C_2   0.550858 0.535222 0.020846 -0.236706
C10   C     C_R   0.527485 0.511452 0.266057 -0.030111
C11   C     C_3   0.344334 0.929097 0.502273 -0.375132
C12   C     C_R   0.481522 0.498615 0.649844 0.797334
C13   C     C_3   0.344129 0.071532 0.502422 -0.385873
C14   C     C_3   0.580233 0.930088 0.571297 -0.033498
C15   C     C_3   0.579222 0.927324 0.426501 -0.439605
C16   C     C_3   0.499566 0.877901 0.501755 0.158628
C17   C     C_3   0.498905 0.121983 0.501123 0.143949
C18   C     C_3   0.566715 0.073889 0.574408 -0.400594
C19   C     C_3   0.584107 0.071276 0.427941 -0.389059
C20   C     C_3   0.920945 0.390538 0.455751 -0.185997
C21   C     C_3   0.088653 0.388899 0.455999 -0.191766
C22   C     C_3   0.922423 0.612608 0.461129 -0.192879
C23   C     C_R   0.499676 0.259817 0.500288 0.774765
C24   C     C_3   0.906129 0.494053 0.577785 -0.185338
C25   C     C_3   0.089872 0.611005 0.461740 -0.184427
C26   C     C_3   0.073354 0.492174 0.578169 -0.188539
C27   C     C_R   0.518429 0.502263 0.350158 0.794703
C28   C     C_R   0.472158 0.494178 0.734048 -0.028589
C29   C     C_R   0.597275 0.485206 0.773146 -0.228575
C30   C     C_R   0.590174 0.481842 0.853072 -0.153610
C31   C     C_R   0.457731 0.489238 0.895227 0.195780
C32   C     C_R   0.332366 0.494881 0.856330 -0.179216
Cu1   Cu    Cu3+1 0.357600 0.500140 0.499960 0.889603
Cu2   Cu    Cu3+1 0.642400 0.499860 0.500040 0.889053
H1    H     H_    0.700983 0.480195 0.742112 0.139101
H2    H     H_    0.769273 0.512042 0.111405 0.116799
H3    H     H_    0.275463 0.894126 0.551771 0.150388
H4    H     H_    0.293809 0.896170 0.449769 0.156565
H5    H     H_    0.291172 0.105586 0.451000 0.160836
H6    H     H_    0.280663 0.105575 0.554722 0.154839
H7    H     H_    0.501156 0.104810 0.626641 0.160235
H8    H     H_    0.689888 0.890176 0.420149 0.157578
H9    H     H_    0.524553 0.895377 0.375152 0.164582
H10   H     H_    0.538812 0.108656 0.375087 0.156051
H11   H     H_    0.299385 0.535215 0.259060 0.140017
H12   H     H_    0.696990 0.102643 0.427210 0.161008
H13   H     H_    0.695560 0.911017 0.556790 0.122612
H14   H     H_    0.674459 0.115356 0.578554 0.140792
H15   H     H_    0.889271 0.390637 0.395215 0.135346
H16   H     H_    0.879330 0.302477 0.482295 0.137755
H17   H     H_    0.121539 0.300177 0.482510 0.135352
H18   H     H_    0.136328 0.388822 0.395595 0.137699
H19   H     H_    0.890958 0.620354 0.400725 0.136189
H20   H     H_    0.138130 0.619046 0.401661 0.135061
H21   H     H_    0.864302 0.575674 0.611753 0.133843
H22   H     H_    0.757778 0.495124 0.252246 0.138069
H23   H     H_    0.862106 0.409388 0.607737 0.136322
H24   H     H_    0.107274 0.406782 0.608267 0.135079
H25   H     H_    0.108325 0.573035 0.612265 0.134980
H26   H     H_    0.881791 0.697699 0.491770 0.134626
H27   H     H_    0.123125 0.695267 0.493031 0.135924
H28   H     H_    0.647577 0.573204 0.992285 0.141386
H29   H     H_    0.229303 0.499114 0.888149 0.118281
H30   H     H_    0.311741 0.555233 0.120066 0.118796
H31   H     H_    0.241272 0.503795 0.747044 0.138839
H32   H     H_    0.350778 0.450963 0.008586 0.142134
H33   H     H_    0.688445 0.471756 0.881358 0.119284
N1    N     N_3   0.856560 0.499750 0.498270 -0.110045
N2    N     N_3   0.143860 0.496700 0.498910 -0.110160
O1    O     O_R   0.379740 0.682430 0.499960 -0.601698
O2    O     O_R   0.620260 0.682190 0.500020 -0.602515
O3    O     O_R   0.365800 0.500150 0.613560 -0.597219
O4    O     O_R   0.606310 0.499910 0.613620 -0.601352
O5    O     O_R   0.379740 0.317810 0.499980 -0.595308
O6    O     O_R   0.620260 0.317570 0.500040 -0.597031
O7    O     O_R   0.393690 0.500090 0.386380 -0.594145
O8    O     O_R   0.634200 0.499850 0.386440 -0.592449
C33   C     C_3   0.552013 0.867568 0.651658 -0.424410
C34   C     C_3   0.396130 0.864143 0.684269 -0.338791
C35   C     C_3   0.386261 0.838193 0.770915 -0.854972
H34   H     H_    0.446139 0.752455 0.783698 0.272960
H35   H     H_    0.430877 0.917713 0.802369 0.250269
H36   H     H_    0.272978 0.825486 0.791821 0.237601
H37   H     H_    0.342218 0.954160 0.674565 0.218261
H38   H     H_    0.339242 0.788198 0.655652 0.213919
H39   H     H_    0.593369 0.770527 0.649031 0.191558
H40   H     H_    0.617048 0.918040 0.692842 0.202258

loop_
_geom_bond_atom_site_label_1
_geom_bond_atom_site_label_2
_ccdc_geom_bond_type
C33   H40   S    
C10   C27   S    
C8    H32   S    
C14   C18   S    
C5    H22   S    
C21   H17   S    
C2    H31   S    
C19   H12   S    
C3    H30   S    
C24   H21   S    
C15   C19   S    
C29   C30   A    
C12   C28   S    
C28   C29   A    
C24   C26   S    
C3    C7    A    
Cu2   O8    S    
C22   H26   S    
C34   H37   S    
C15   C16   S    
C2    C32   A    
C11   H3    S    
C13   H6    S    
C20   H16   S    
Cu1   O3    S    
C24   H23   S    
C22   C25   S    
C26   H25   S    
C30   H33   S    
Cu1   N2    S    
Cu2   O6    S    
C33   H39   S    
C12   O3    A    
C12   O4    A    
C35   H36   S    
C17   C18   S    
C22   H19   S    
C4    H11   S    
C9    H28   S    
C25   H20   S    
C32   H29   S    
C35   H35   S    
C18   H7    S    
Cu2   N1    S    
C33   C34   S    
C8    C9    D    
C25   H27   S    
C21   N2    S    
C11   H4    S    
C20   H15   S    
C11   C16   S    
Cu1   O7    S    
C31   C32   A    
C17   C23   S    
C30   C31   A    
Cu1   Cu2   S    
C1    C16   S    
C1    O2    A    
C26   H24   S    
C22   N1    S    
C14   H13   S    
Cu1   O1    S    
C14   C16   S    
C25   N2    S    
C23   O5    A    
C4    C10   A    
C3    C4    A    
C34   H38   S    
C19   H10   S    
C7    C9    S    
C8    C31   S    
C20   N1    S    
C15   H8    S    
C23   O6    A    
C35   H34   S    
C27   O8    A    
C18   H14   S    
C6    C7    A    
C29   H1    S    
C1    O1    A    
C13   C17   S    
C15   H9    S    
C5    C10   A    
C11   C13   S    
C5    C6    A    
C17   C19   S    
C6    H2    S    
C14   C33   S    
C13   H5    S    
C24   N1    S    
Cu2   O4    S    
C34   C35   S    
Cu1   O5    S    
C20   C21   S    
C26   N2    S    
C2    C28   A    
Cu2   O2    S    
C21   H18   S    
C27   O7    A    
