data_mof_unit_65690.cif
_audit_creation_date              2012-12-10T16:53:15-0500
_audit_creation_method            fapswitch 2.2
_symmetry_space_group_name_H-M    P1
_symmetry_Int_Tables_number       1
_space_group_crystal_system       triclinic
_cell_length_a                    7.846574
_cell_length_b                    8.579195
_cell_length_c                    14.135015
_cell_angle_alpha                 90.655576
_cell_angle_beta                  85.8687
_cell_angle_gamma                 91.804119
_cell_volume                      948.547789007

loop_
_atom_site_label
_atom_site_type_symbol
_atom_type_description
_atom_site_fract_x
_atom_site_fract_y
_atom_site_fract_z
_atom_type_partial_charge
C1    C     C_R   0.542982 0.794054 0.496803 0.945689
C2    C     C_1   0.498793 0.500061 0.042697 0.032358
C3    C     C_2   0.557169 0.953622 0.477503 -0.069231
C4    C     C_2   0.442860 0.046394 0.522522 -0.069034
C5    C     C_2   0.022267 0.401074 0.389177 0.736911
C6    C     C_2   0.977704 0.598977 0.610806 0.736735
C7    C     C_R   0.457021 0.205950 0.503202 0.945923
C8    C     C_R   0.501403 0.500113 0.670576 0.894101
C9    C     C_R   0.498597 0.499887 0.329424 0.894311
C10   C     C_1   0.503888 0.499853 0.771969 -0.158528
C11   C     C_1   0.496112 0.500146 0.228031 -0.158540
C12   C     C_1   0.503488 0.499833 0.857288 0.013276
C13   C     C_1   0.496513 0.500166 0.142712 0.013249
C14   C     C_1   0.501208 0.499938 0.957303 0.032364
H1    H     H_    0.040492 0.478081 0.328660 -0.005385
H2    H     H_    0.958368 0.521760 0.671142 -0.005130
I1    I     I_    0.718009 0.011884 0.352968 -0.236611
I2    I     I_    0.282232 0.988201 0.647138 -0.236130
N1    N     N_2   0.950330 0.457950 0.476740 -0.176388
N2    N     N_2   0.049670 0.542050 0.523260 -0.176105
O1    O     O_R   0.389250 0.738570 0.505710 -0.595791
O2    O     O_2   0.941849 0.735913 0.619615 -0.558588
O3    O     O_R   0.610750 0.261430 0.494290 -0.596063
O4    O     O_R   0.678390 0.711630 0.490800 -0.577629
O5    O     O_R   0.321610 0.288370 0.509200 -0.577091
O6    O     O_R   0.355390 0.513480 0.633740 -0.617474
O7    O     O_R   0.644610 0.486520 0.366260 -0.617708
O8    O     O_R   0.644540 0.486530 0.618830 -0.630775
O9    O     O_R   0.355460 0.513470 0.381170 -0.630352
O10   O     O_2   0.059323 0.264418 0.380540 -0.558607
Zn1   Zn    Zn3+2 0.306930 0.517990 0.509950 1.003380
Zn2   Zn    Zn3+2 0.693070 0.482010 0.490050 1.002864

loop_
_geom_bond_atom_site_label_1
_geom_bond_atom_site_label_2
_ccdc_geom_bond_type
O5    Zn1   S    
O4    Zn2   S    
C1    O1    A    
C5    N1    S    
C9    C11   S    
N1    N2    D    
C7    O5    A    
C9    O9    A    
C4    I2    S    
O3    Zn2   S    
O6    Zn1   S    
O9    Zn1   S    
O1    Zn1   S    
C10   C12   T    
C1    O4    A    
C4    C7    S    
C7    O3    A    
N1    Zn2   S    
O8    Zn2   S    
C12   C14   S    
C3    I1    S    
C8    O6    A    
C2    C14   T    
C5    H1    S    
C6    H2    S    
C3    C4    D    
C6    O2    D    
C11   C13   T    
C6    N2    S    
C9    O7    A    
C8    O8    A    
C8    C10   S    
C5    O10   D    
C2    C13   S    
O7    Zn2   S    
C1    C3    S    
N2    Zn1   S    
