data_mof_unit_45881.cif
_audit_creation_date              2012-12-11T15:08:53-0500
_audit_creation_method            fapswitch 2.2
_symmetry_space_group_name_H-M    P1
_symmetry_Int_Tables_number       1
_space_group_crystal_system       triclinic
_cell_length_a                    19.656227
_cell_length_b                    11.330671
_cell_length_c                    18.729695
_cell_angle_alpha                 89.999988
_cell_angle_beta                  89.350398
_cell_angle_gamma                 90.0
_cell_volume                      4171.17662657

loop_
_atom_site_label
_atom_site_type_symbol
_atom_type_description
_atom_site_fract_x
_atom_site_fract_y
_atom_site_fract_z
_atom_type_partial_charge
C1    C     C_R   0.273047 0.040265 0.855372 0.523502
C2    C     C_3   0.721464 0.461505 0.973234 -0.224164
C3    C     C_R   0.226794 0.545162 0.353328 0.554517
C4    C     C_R   0.469188 0.822244 0.645717 0.542757
C5    C     C_R   0.530817 0.822244 0.354287 0.542064
C6    C     C_R   0.969183 0.322244 0.645713 0.542064
C7    C     C_R   0.030812 0.322244 0.354283 0.542758
C8    C     C_R   0.260745 0.641036 0.643617 0.547536
C9    C     C_R   0.739254 0.641038 0.356384 0.545469
C10   C     C_R   0.760746 0.141038 0.643616 0.545468
C11   C     C_R   0.239255 0.141036 0.356383 0.547536
C12   C     C_3   0.485664 0.917250 0.037997 0.093147
C13   C     C_3   0.778536 0.961505 0.026766 -0.224163
C14   C     C_3   0.518019 0.926447 0.962719 0.072145
C15   C     C_3   0.981981 0.426447 0.037281 0.072145
C16   C     C_3   0.014336 0.417249 0.962003 0.093145
C17   C     C_3   0.438491 0.816405 0.011866 -0.195574
C18   C     C_3   0.573126 0.836003 0.984898 -0.208544
C19   C     C_3   0.926873 0.336004 0.015102 -0.208544
C20   C     C_3   0.061508 0.316404 0.988134 -0.195574
C21   C     C_3   0.472701 0.825405 0.936778 0.007332
C22   C     C_3   0.538505 0.824711 0.060080 -0.013482
C23   C     C_3   0.961494 0.324711 0.939920 -0.013482
C24   C     C_3   0.191636 0.009913 0.961891 -0.246041
C25   C     C_3   0.027298 0.325405 0.063222 0.007333
C26   C     C_3   0.307496 0.511849 0.955303 -0.282117
C27   C     C_3   0.725286 0.475949 0.055960 -0.309981
C28   C     C_3   0.774714 0.975950 0.944040 -0.309981
C29   C     C_3   0.192503 0.011850 0.044697 -0.282116
C30   C     C_3   0.179985 0.525755 0.025009 -0.155211
C31   C     C_3   0.830194 0.580035 0.969841 -0.167012
C32   C     C_3   0.669806 0.080032 0.030159 -0.167012
C33   C     C_R   0.726140 0.038507 0.143669 0.528826
C34   C     C_3   0.320015 0.025754 0.974991 -0.155210
C35   C     C_3   0.250438 0.701466 0.054873 -0.237959
C36   C     C_3   0.721402 0.678584 0.946439 -0.257105
C37   C     C_3   0.778597 0.178585 0.053560 -0.257104
C38   C     C_3   0.249562 0.201466 0.945126 -0.237960
C39   C     C_3   0.242296 0.568374 0.068469 0.006860
C40   C     C_3   0.760410 0.563575 0.933668 -0.019649
C41   C     C_3   0.739590 0.063575 0.066332 -0.019647
C42   C     C_3   0.257704 0.068374 0.931531 0.006859
C43   C     C_3   0.256544 0.607873 0.930645 0.052653
C44   C     C_R   0.773860 0.538507 0.856331 0.528826
C45   C     C_3   0.745134 0.603887 0.071104 0.050714
C46   C     C_3   0.754866 0.103887 0.928896 0.050714
C47   C     C_3   0.243456 0.107873 0.069354 0.052654
C48   C     C_3   0.183760 0.571628 0.948757 0.256119
C49   C     C_3   0.820609 0.616048 0.047110 0.262657
C50   C     C_3   0.679391 0.116047 0.952890 0.262657
C51   C     C_3   0.316240 0.071626 0.051243 0.256118
C52   C     C_3   0.272068 0.718698 0.975150 -0.196678
C53   C     C_3   0.696327 0.679620 0.025285 -0.207029
C54   C     C_3   0.803673 0.179620 0.974715 -0.207029
C55   C     C_R   0.226953 0.540264 0.144628 0.523502
C56   C     C_3   0.227933 0.218698 0.024850 -0.196678
C57   C     C_3   0.505798 0.695589 0.460300 -0.218247
C58   C     C_3   0.494208 0.695588 0.539704 -0.218067
C59   C     C_3   0.005792 0.195588 0.460295 -0.218067
C60   C     C_3   0.994201 0.195588 0.539700 -0.218247
C61   C     C_R   0.444441 0.817926 0.862986 0.535018
C62   C     C_R   0.559927 0.817383 0.137278 0.534342
C63   C     C_R   0.940073 0.317383 0.862722 0.534342
C64   C     C_R   0.055558 0.317926 0.137014 0.535018
C65   C     C_3   0.563124 0.899632 0.472491 -0.226234
C66   C     C_3   0.527219 0.735215 0.958223 0.101306
C67   C     C_3   0.436880 0.899629 0.527514 -0.226337
C68   C     C_3   0.063120 0.399629 0.472486 -0.226338
C69   C     C_3   0.936875 0.399632 0.527509 -0.226235
C70   C     C_3   0.440649 0.876877 0.446134 -0.267658
C71   C     C_3   0.559355 0.876880 0.553871 -0.267641
C72   C     C_3   0.940645 0.376879 0.446129 -0.267642
C73   C     C_3   0.059350 0.376877 0.553865 -0.267657
C74   C     C_3   0.510360 0.824031 0.430832 0.051213
C75   C     C_3   0.489645 0.824030 0.569173 0.050859
C76   C     C_3   0.010355 0.324030 0.430827 0.050859
C77   C     C_3   0.493071 0.724444 0.032299 0.100411
C78   C     C_3   0.989640 0.324030 0.569168 0.051213
C79   C     C_3   0.177137 0.647347 0.458740 0.259562
C80   C     C_3   0.822861 0.647352 0.541262 0.259479
C81   C     C_3   0.677139 0.147351 0.458737 0.259480
C82   C     C_3   0.322862 0.147347 0.541260 0.259562
C83   C     C_3   0.186996 0.676991 0.535851 -0.009123
C84   C     C_3   0.813002 0.676995 0.464151 -0.009192
C85   C     C_3   0.686998 0.176996 0.535849 -0.009191
C86   C     C_3   0.313004 0.176991 0.464149 -0.009123
C87   C     C_3   0.248499 0.462343 0.472052 -0.282948
C88   C     C_3   0.006928 0.224444 0.967702 0.100411
C89   C     C_3   0.751499 0.462347 0.527952 -0.283246
C90   C     C_3   0.748501 0.962347 0.472048 -0.283246
C91   C     C_3   0.251501 0.962343 0.527948 -0.282948
C92   C     C_3   0.302419 0.653064 0.442000 -0.272401
C93   C     C_3   0.697580 0.653068 0.558004 -0.272154
C94   C     C_3   0.802420 0.153068 0.441996 -0.272154
C95   C     C_3   0.197581 0.153064 0.558000 -0.272401
C96   C     C_3   0.239022 0.577996 0.428857 0.045237
C97   C     C_3   0.760977 0.578000 0.571146 0.044931
C98   C     C_3   0.739023 0.078000 0.428854 0.044930
C99   C     C_3   0.972780 0.235216 0.041778 0.101306
C100  C     C_3   0.260978 0.077996 0.571143 0.045237
C101  C     C_3   0.250396 0.610596 0.567198 -0.000336
C102  C     C_3   0.749603 0.610599 0.432804 0.000139
C103  C     C_3   0.750397 0.110599 0.567196 0.000139
C104  C     C_3   0.249604 0.110596 0.432802 -0.000336
C105  C     C_3   0.239589 0.480177 0.553351 -0.286010
C106  C     C_3   0.760410 0.480181 0.446652 -0.285852
C107  C     C_3   0.739590 0.980181 0.553348 -0.285851
C108  C     C_3   0.260411 0.980177 0.446649 -0.286011
C109  C     C_R   0.261932 0.640030 0.853843 0.529480
C110  C     C_3   0.308363 0.509913 0.038108 -0.246041
C111  C     C_R   0.738477 0.639204 0.146777 0.536966
C112  C     C_R   0.761523 0.139204 0.853223 0.536965
C113  C     C_R   0.238068 0.140030 0.146157 0.529482
C114  C     C_3   0.315584 0.648673 0.523642 -0.271737
C115  C     C_3   0.684416 0.648676 0.476361 -0.271862
C116  C     C_3   0.815584 0.148676 0.523639 -0.271863
C117  C     C_3   0.184416 0.148673 0.476358 -0.271737
C118  C     C_R   0.273206 0.045162 0.646672 0.554516
C119  C     C_R   0.726796 0.045167 0.353325 0.555357
C120  C     C_R   0.773204 0.545167 0.646675 0.555357
Cr1   Cr    Cr6+3 0.229620 0.836040 0.749110 1.080367
Cr2   Cr    Cr6+3 0.613980 0.676590 0.250790 1.059337
Cr3   Cr    Cr6+3 0.886020 0.176590 0.749210 1.059337
Cr4   Cr    Cr6+3 0.113980 0.176590 0.250790 1.061469
Cr5   Cr    Cr6+3 0.770380 0.836040 0.250890 1.096093
Cr6   Cr    Cr6+3 0.729620 0.336040 0.749110 1.096093
Cr7   Cr    Cr6+3 0.270380 0.336040 0.250890 1.080367
Cr8   Cr    Cr6+3 0.387630 0.990680 0.750730 1.092234
Cr9   Cr    Cr6+3 0.612370 0.990680 0.249270 1.091353
Cr10  Cr    Cr6+3 0.887630 0.490680 0.750730 1.091353
Cr11  Cr    Cr6+3 0.112370 0.490680 0.249270 1.092234
Cr12  Cr    Cr6+3 0.386020 0.676590 0.749210 1.061469
F1    F     F_    0.144586 0.673291 0.945778 -0.603481
F2    F     F_    0.845391 0.729802 0.055136 -0.617992
F3    F     F_    0.654609 0.229801 0.944865 -0.617992
F4    F     F_    0.355414 0.173288 0.054223 -0.603480
F5    F     F_    0.164514 0.749032 0.419902 -0.645079
F6    F     F_    0.835484 0.749037 0.580100 -0.645012
F7    F     F_    0.664515 0.249036 0.419900 -0.645012
F8    F     F_    0.335486 0.249032 0.580098 -0.645079
H1    H     H_    0.388575 0.816033 0.038764 0.098447
H2    H     H_    0.680310 0.692046 0.907852 0.149085
H3    H     H_    0.139968 0.029082 0.064833 0.196433
H4    H     H_    0.290819 0.427022 0.933608 0.109395
H5    H     H_    0.765388 0.420763 0.079627 0.083202
H6    H     H_    0.734613 0.920764 0.920373 0.083202
H7    H     H_    0.209178 0.927024 0.066392 0.109397
H8    H     H_    0.640519 0.998603 0.035949 0.084946
H9    H     H_    0.321759 0.929807 0.974958 0.020279
H10   H     H_    0.178241 0.429808 0.025041 0.020280
H11   H     H_    0.859484 0.498608 0.964049 0.084954
H12   H     H_    0.650068 0.055564 0.918759 0.147293
H13   H     H_    0.819688 0.192050 0.092148 0.149084
H14   H     H_    0.335083 0.003960 0.089228 0.122097
H15   H     H_    0.164915 0.503963 0.910772 0.122098
H16   H     H_    0.849932 0.555565 0.081240 0.147293
H17   H     H_    0.211636 0.241534 0.908863 0.098450
H18   H     H_    0.326598 0.733575 0.968091 0.088504
H19   H     H_    0.644832 0.639281 0.027479 0.167639
H20   H     H_    0.855168 0.139281 0.972522 0.167639
H21   H     H_    0.173403 0.233577 0.031909 0.088502
H22   H     H_    0.246868 0.794941 0.952857 0.168592
H23   H     H_    0.685237 0.765962 0.048564 0.080042
H24   H     H_    0.814762 0.265962 0.951435 0.080042
H25   H     H_    0.625474 0.849595 0.965057 0.094695
H26   H     H_    0.253133 0.294940 0.047142 0.168594
H27   H     H_    0.638632 0.149870 0.056683 0.225581
H28   H     H_    0.369126 0.055254 0.951375 0.214074
H29   H     H_    0.130874 0.555254 0.048625 0.214074
H30   H     H_    0.861366 0.649876 0.943317 0.225580
H31   H     H_    0.551432 0.644633 0.447937 0.151036
H32   H     H_    0.448573 0.644632 0.552066 0.150947
H33   H     H_    0.051427 0.144632 0.447935 0.150947
H34   H     H_    0.948568 0.144633 0.552063 0.151036
H35   H     H_    0.463908 0.646405 0.434098 0.137048
H36   H     H_    0.874525 0.349597 0.034942 0.094694
H37   H     H_    0.536098 0.646404 0.565908 0.137734
H38   H     H_    0.963902 0.146403 0.434092 0.137734
H39   H     H_    0.036092 0.146405 0.565902 0.137048
H40   H     H_    0.613985 0.891386 0.450529 0.093686
H41   H     H_    0.386019 0.891379 0.549476 0.093720
H42   H     H_    0.113981 0.391379 0.450524 0.093720
H43   H     H_    0.886015 0.391386 0.549471 0.093687
H44   H     H_    0.600035 0.816442 0.570780 0.110804
H45   H     H_    0.399969 0.816438 0.429227 0.110426
H46   H     H_    0.100031 0.316438 0.570773 0.110426
H47   H     H_    0.111424 0.316030 0.961236 0.098447
H48   H     H_    0.899965 0.316441 0.429220 0.110805
H49   H     H_    0.434325 0.958032 0.415197 0.161859
H50   H     H_    0.565678 0.958036 0.584808 0.161570
H51   H     H_    0.934322 0.458036 0.415192 0.161570
H52   H     H_    0.065675 0.458033 0.584802 0.161859
H53   H     H_    0.452111 0.992462 0.536261 0.162402
H54   H     H_    0.547891 0.992464 0.463744 0.162409
H55   H     H_    0.952109 0.492464 0.536255 0.162409
H56   H     H_    0.047889 0.492462 0.463738 0.162402
H57   H     H_    0.132191 0.593126 0.454490 0.160642
H58   H     H_    0.200260 0.742977 0.065306 0.192382
H59   H     H_    0.867808 0.593131 0.545513 0.160604
H60   H     H_    0.632192 0.093130 0.454487 0.160604
H61   H     H_    0.367809 0.093126 0.545510 0.160642
H62   H     H_    0.201699 0.766195 0.536957 0.171732
H63   H     H_    0.798299 0.766198 0.463045 0.171741
H64   H     H_    0.701702 0.266199 0.536954 0.171740
H65   H     H_    0.298301 0.266195 0.463043 0.171732
H66   H     H_    0.717364 0.890610 0.452224 0.098424
H67   H     H_    0.282638 0.890606 0.547772 0.098717
H68   H     H_    0.217362 0.390606 0.452228 0.098717
H69   H     H_    0.758041 0.749658 0.937628 0.156182
H70   H     H_    0.782636 0.390610 0.547777 0.098423
H71   H     H_    0.688269 0.953331 0.571621 0.123736
H72   H     H_    0.311732 0.953328 0.428376 0.123790
H73   H     H_    0.188268 0.453327 0.571624 0.123790
H74   H     H_    0.811731 0.453331 0.428379 0.123736
H75   H     H_    0.346940 0.617444 0.411903 0.124367
H76   H     H_    0.653059 0.617449 0.588102 0.125608
H77   H     H_    0.846941 0.117448 0.411898 0.125608
H78   H     H_    0.153060 0.117444 0.588097 0.124367
H79   H     H_    0.293655 0.744685 0.423872 0.160668
H80   H     H_    0.741957 0.249658 0.062370 0.156187
H81   H     H_    0.706344 0.744688 0.576132 0.160917
H82   H     H_    0.793656 0.244688 0.423868 0.160917
H83   H     H_    0.206345 0.244685 0.576128 0.160668
H84   H     H_    0.337057 0.730680 0.542958 0.112867
H85   H     H_    0.662943 0.730683 0.457044 0.112970
H86   H     H_    0.837056 0.230683 0.542956 0.112970
H87   H     H_    0.162943 0.230680 0.457041 0.112867
H88   H     H_    0.354061 0.579224 0.532683 0.158481
H89   H     H_    0.645940 0.579225 0.467320 0.158486
H90   H     H_    0.854060 0.079226 0.532680 0.158487
H91   H     H_    0.299741 0.242977 0.934693 0.192381
H92   H     H_    0.145939 0.079224 0.467317 0.158481
H93   H     H_    0.302557 0.439028 0.462348 0.177673
H94   H     H_    0.697441 0.439032 0.537656 0.177653
H95   H     H_    0.802559 0.939032 0.462344 0.177654
H96   H     H_    0.197443 0.939028 0.537652 0.177673
H97   H     H_    0.277336 0.427818 0.583056 0.225151
H98   H     H_    0.722663 0.427821 0.416947 0.225268
H99   H     H_    0.777337 0.927821 0.583053 0.225268
H100  H     H_    0.222664 0.927818 0.416944 0.225151
H101  H     H_    0.322696 0.423253 0.059597 0.206895
H102  H     H_    0.288364 0.741534 0.091137 0.098450
H103  H     H_    0.738596 0.376697 0.955847 0.193517
H104  H     H_    0.761404 0.876696 0.044153 0.193518
H105  H     H_    0.177304 0.923253 0.940403 0.206896
H106  H     H_    0.350101 0.566974 0.055518 0.172654
H107  H     H_    0.667595 0.461438 0.958004 0.234749
H108  H     H_    0.832406 0.961438 0.041996 0.234749
H109  H     H_    0.149898 0.066974 0.944480 0.172653
H110  H     H_    0.360031 0.529078 0.935166 0.196433
H111  H     H_    0.675627 0.451968 0.081140 0.188024
H112  H     H_    0.824374 0.951969 0.918860 0.188024
I1    I     I_    0.480176 0.084293 0.095681 -0.147646
I2    I     I_    0.484241 0.544615 0.073331 -0.274447
I3    I     I_    0.015758 0.044615 0.926670 -0.274447
I4    I     I_    0.942226 0.076763 0.100655 -0.277761
I5    I     I_    0.515775 0.098092 0.909277 -0.169538
I6    I     I_    0.984226 0.598093 0.090722 -0.169538
I7    I     I_    0.019826 0.584292 0.904318 -0.147649
I8    I     I_    0.087844 0.693420 0.588101 -0.316934
I9    I     I_    0.912153 0.693430 0.411901 -0.316916
I10   I     I_    0.587846 0.193431 0.588099 -0.316916
I11   I     I_    0.412156 0.193420 0.411899 -0.316934
I12   I     I_    0.557772 0.576761 0.899347 -0.277760
O1    O     O_R   0.214130 0.708570 0.829890 -0.434731
O2    O     O_R   0.542830 0.717300 0.331620 -0.519576
O3    O     O_R   0.957170 0.217300 0.668380 -0.519576
O4    O     O_R   0.042830 0.217300 0.331620 -0.517240
O5    O     O_R   0.320870 0.624890 0.673130 -0.498689
O6    O     O_R   0.679130 0.624890 0.326870 -0.499638
O7    O     O_R   0.820870 0.124890 0.673130 -0.499638
O8    O     O_R   0.179130 0.124890 0.326870 -0.498689
O9    O     O_3   0.334430 0.834430 0.749680 -0.331054
O10   O     O_3   0.665570 0.834430 0.250320 -0.336859
O11   O     O_3   0.834430 0.334430 0.749680 -0.336859
O12   O     O_R   0.785870 0.708570 0.170110 -0.427656
O13   O     O_3   0.165570 0.334430 0.250320 -0.331054
O14   O     O_R   0.236050 0.959150 0.825270 -0.503145
O15   O     O_R   0.763950 0.959150 0.174730 -0.476108
O16   O     O_R   0.736050 0.459150 0.825270 -0.476108
O17   O     O_R   0.263950 0.459150 0.174730 -0.503145
O18   O     O_R   0.332100 0.076650 0.832310 -0.511481
O19   O     O_R   0.667900 0.076650 0.167690 -0.521130
O20   O     O_R   0.832100 0.576650 0.832310 -0.521130
O21   O     O_R   0.167900 0.576650 0.167690 -0.511480
O22   O     O_R   0.446500 0.918620 0.826240 -0.476346
O23   O     O_R   0.714130 0.208570 0.829890 -0.427657
O24   O     O_R   0.553500 0.918620 0.173760 -0.470889
O25   O     O_R   0.946500 0.418620 0.826240 -0.470888
O26   O     O_R   0.053500 0.418620 0.173760 -0.476347
O27   O     O_R   0.457310 0.715830 0.831280 -0.468258
O28   O     O_R   0.542690 0.715830 0.168720 -0.469314
O29   O     O_R   0.957310 0.215830 0.831280 -0.469314
O30   O     O_R   0.042690 0.215830 0.168720 -0.468258
O31   O     O_R   0.321000 0.623520 0.824130 -0.528779
O32   O     O_R   0.679000 0.623520 0.175870 -0.524760
O33   O     O_R   0.821000 0.123520 0.824130 -0.524760
O34   O     O_R   0.285870 0.208570 0.170110 -0.434730
O35   O     O_R   0.179000 0.123520 0.175870 -0.528780
O36   O     O_R   0.213990 0.710040 0.667000 -0.490657
O37   O     O_R   0.786010 0.710040 0.333000 -0.492592
O38   O     O_R   0.713990 0.210040 0.667000 -0.492592
O39   O     O_R   0.286010 0.210040 0.333000 -0.490657
O40   O     O_R   0.235920 0.960520 0.674260 -0.515806
O41   O     O_R   0.764080 0.960520 0.325740 -0.514671
O42   O     O_R   0.735920 0.460520 0.674260 -0.514671
O43   O     O_R   0.264080 0.460520 0.325740 -0.515806
O44   O     O_R   0.331960 0.078120 0.669410 -0.454431
O45   O     O_R   0.446360 0.919990 0.675230 -0.492666
O46   O     O_R   0.668040 0.078120 0.330590 -0.454564
O47   O     O_R   0.831960 0.578120 0.669410 -0.454564
O48   O     O_R   0.168040 0.578120 0.330590 -0.454431
O49   O     O_R   0.553640 0.919990 0.324770 -0.492318
O50   O     O_R   0.946360 0.419990 0.675230 -0.492318
O51   O     O_R   0.053640 0.419990 0.324770 -0.492666
O52   O     O_R   0.457170 0.717300 0.668380 -0.517240

loop_
_geom_bond_atom_site_label_1
_geom_bond_atom_site_label_2
_ccdc_geom_bond_type
C9    O6    A    
C33   O19   A    
C51   H14   S    
C113  O34   A    
C46   C112  S    
C60   H34   S    
C11   O8    A    
C34   C42   S    
C4    O52   A    
C73   H46   S    
C68   H42   S    
C14   C21   S    
C24   H109  S    
C90   C107  S    
C104  C117  S    
Cr2   O10   S    
C81   F7    S    
C5    C74   S    
Cr9   O19   S    
C36   H2    S    
C19   H36   S    
C82   F8    S    
C36   C53   S    
C70   H45   S    
C89   C106  S    
C70   C74   S    
C91   C100  S    
C72   H51   S    
C85   C103  S    
C59   C60   S    
Cr9   O10   S    
C71   H44   S    
C34   H9    S    
C52   H18   S    
C53   H19   S    
Cr2   O28   S    
Cr1   O1    S    
Cr11  O21   S    
C19   C99   S    
C53   H23   S    
C61   O27   A    
Cr4   O4    S    
C17   C21   S    
C19   C23   S    
C2    H107  S    
C30   H29   S    
C4    O45   A    
C27   H5    S    
C83   I8    S    
Cr4   O35   S    
C79   F5    S    
C48   H15   S    
C10   O7    A    
C120  O47   A    
C65   H54   S    
C66   C77   S    
C18   C66   S    
C116  H90   S    
C38   H17   S    
C14   I5    S    
C10   O38   A    
C45   C111  S    
C38   H91   S    
C31   H30   S    
C117  H92   S    
C87   H93   S    
Cr12  O52   S    
C103  C116  S    
C79   C96   S    
Cr7   O34   S    
C90   H95   S    
C71   H50   S    
C95   H83   S    
Cr8   O9    S    
C88   C99   S    
Cr8   O45   S    
C2    C40   S    
C13   H108  S    
C20   C25   S    
C89   C97   S    
C55   O17   A    
C105  H97   S    
C103  C107  S    
C37   H80   S    
C65   H40   S    
C44   O20   A    
C57   C74   S    
Cr8   O44   S    
C21   C66   S    
C69   C72   S    
C84   C102  S    
C3    O48   A    
Cr8   O18   S    
C86   C104  S    
C81   H60   S    
C95   C117  S    
C60   H39   S    
C28   C46   S    
C34   C51   S    
C29   C47   S    
C30   C48   S    
C115  H85   S    
C43   C52   S    
C6    C78   S    
C12   C22   S    
C63   O29   A    
Cr1   O36   S    
C92   H75   S    
C64   O26   A    
C27   H111  S    
C85   H64   S    
C57   H35   S    
C8    O36   A    
C119  O46   A    
C32   C41   S    
C67   H41   S    
C5    O49   A    
Cr5   O37   S    
C45   C53   S    
C93   H76   S    
C24   H105  S    
Cr3   O33   S    
C83   H62   S    
Cr4   O30   S    
C86   H65   S    
C108  H72   S    
Cr3   O11   S    
C88   I3    S    
C62   O24   A    
C60   C78   S    
C106  H74   S    
C109  O1    A    
C109  O31   A    
C61   O22   A    
C80   H59   S    
C94   H77   S    
C62   O28   A    
C65   C74   S    
C25   C64   S    
C92   H79   S    
C99   I4    S    
Cr3   O3    S    
C31   H11   S    
C51   F4    S    
C87   C105  S    
Cr12  O27   S    
C111  O12   A    
C2    C27   S    
C69   H43   S    
C16   C23   S    
C23   C88   S    
C67   C75   S    
Cr3   O29   S    
C93   C97   S    
C35   C52   S    
Cr2   O2    S    
Cr3   O7    S    
Cr4   O8    S    
C12   I1    S    
C83   C101  S    
C18   C22   S    
C59   H38   S    
C91   H67   S    
C7    C76   S    
Cr9   O49   S    
C68   C76   S    
C28   H6    S    
C67   C70   S    
C57   C58   S    
C44   O16   A    
C80   F6    S    
Cr12  O9    S    
Cr10  O25   S    
C30   C39   S    
C37   C41   S    
C87   H68   S    
C73   H52   S    
C114  H88   S    
C40   C44   S    
C38   C56   S    
C94   H82   S    
C43   C109  S    
C114  H84   S    
C59   C76   S    
C81   C85   S    
C52   H22   S    
C47   C56   S    
Cr10  O50   S    
C24   C42   S    
C85   I10   S    
C80   C84   S    
C13   C41   S    
Cr2   O32   S    
C15   C19   S    
C10   C103  S    
C50   F3    S    
C80   C97   S    
C34   H28   S    
C30   H10   S    
C13   H104  S    
C107  H71   S    
C81   C98   S    
C94   C98   S    
C29   H3    S    
C55   O21   A    
C31   C40   S    
C17   H1    S    
C24   C29   S    
C4    C75   S    
C102  C115  S    
C26   H110  S    
C90   H66   S    
C25   C99   S    
C39   C55   S    
C9    C102  S    
C12   C17   S    
C13   C28   S    
C11   C104  S    
C112  O23   A    
C119  O41   A    
C8    C101  S    
C21   C61   S    
C36   H69   S    
C27   C45   S    
C23   C63   S    
C5    O2    A    
C113  O35   A    
C101  C114  S    
C31   C49   S    
C66   I12   S    
C18   H25   S    
Cr5   O10   S    
Cr1   O40   S    
C37   H13   S    
C2    H103  S    
Cr1   O14   S    
Cr12  O5    S    
C94   C116  S    
C95   C100  S    
C47   C51   S    
C82   C86   S    
C107  H99   S    
C56   H21   S    
C35   C39   S    
C28   H112  S    
C6    O50   A    
Cr6   O38   S    
C45   C49   S    
Cr7   O43   S    
C46   C54   S    
C17   C77   S    
C68   H56   S    
Cr7   O13   S    
C15   I6    S    
C84   H63   S    
C84   I9    S    
C100  C118  S    
C86   I11   S    
C104  C108  S    
C47   C113  S    
C91   C108  S    
C22   C77   S    
C29   H7    S    
C82   H61   S    
Cr4   O13   S    
C38   C42   S    
C32   H8    S    
Cr11  O48   S    
Cr12  O31   S    
C33   C41   S    
C1    O14   A    
C79   C83   S    
C110  H101  S    
C20   C88   S    
C7    O51   A    
Cr1   O9    S    
Cr11  O13   S    
C15   C25   S    
Cr2   O6    S    
C54   H20   S    
C50   H12   S    
C1    C42   S    
C106  H98   S    
C32   H27   S    
C56   H26   S    
C6    O3    A    
C120  O42   A    
C54   H24   S    
C70   H49   S    
Cr5   O12   S    
Cr6   O11   S    
C79   H57   S    
C14   C18   S    
C49   H16   S    
C58   H32   S    
C92   C96   S    
C72   C76   S    
C98   C119  S    
Cr6   O42   S    
Cr7   O39   S    
C1    O18   A    
C15   C16   S    
C95   H78   S    
C93   C115  S    
C72   H48   S    
Cr10  O20   S    
C39   C110  S    
C108  H100  S    
Cr11  O51   S    
C73   C78   S    
C3    C96   S    
C43   C48   S    
C26   C110  S    
C16   C20   S    
C110  H106  S    
Cr6   O23   S    
Cr5   O41   S    
C69   C78   S    
C26   H4    S    
C58   C75   S    
Cr10  O47   S    
C101  C105  S    
C105  H73   S    
C48   F1    S    
C36   C40   S    
C16   I7    S    
C116  H86   S    
Cr5   O15   S    
C68   C73   S    
C65   C71   S    
Cr6   O16   S    
C91   H96   S    
C118  O44   A    
C89   H94   S    
C9    O37   A    
C8    O5    A    
C22   C62   S    
C11   O39   A    
C87   C96   S    
C118  O40   A    
C32   C50   S    
C37   C54   S    
C26   C43   S    
C12   C14   S    
C49   F2    S    
C33   O15   A    
C117  H87   S    
C111  O32   A    
Cr11  O26   S    
C82   C100  S    
Cr9   O24   S    
C77   I2    S    
C59   H33   S    
C93   H81   S    
Cr9   O46   S    
C69   H55   S    
C89   H70   S    
C46   C50   S    
C112  O33   A    
Cr7   O17   S    
C97   C120  S    
Cr8   O22   S    
C20   H47   S    
C71   C75   S    
C102  C106  S    
C58   H37   S    
C7    O4    A    
C115  H89   S    
C35   H102  S    
C63   O25   A    
C3    O43   A    
C64   O30   A    
Cr10  O11   S    
C67   H53   S    
C92   C114  S    
C90   C98   S    
C35   H58   S    
C57   H31   S    
