data_mof_unit_44696.cif
_audit_creation_date              2012-12-11T14:43:39-0500
_audit_creation_method            fapswitch 2.2
_symmetry_space_group_name_H-M    P1
_symmetry_Int_Tables_number       1
_space_group_crystal_system       triclinic
_cell_length_a                    20.830248
_cell_length_b                    7.105306
_cell_length_c                    16.38877
_cell_angle_alpha                 90.000144
_cell_angle_beta                  92.531658
_cell_angle_gamma                 89.999798
_cell_volume                      2423.25710484

loop_
_atom_site_label
_atom_site_type_symbol
_atom_type_description
_atom_site_fract_x
_atom_site_fract_y
_atom_site_fract_z
_atom_type_partial_charge
O1    O     O_R   0.564840 0.505290 0.579830 -0.538972
O2    O     O_R   0.435160 0.005290 0.420170 -0.538972
O3    O     O_R   0.556720 0.179930 0.409350 -0.537620
O4    O     O_R   0.443280 0.679930 0.590650 -0.537621
C1    C     C_R   0.570278 0.344788 0.380950 0.696843
C2    C     C_R   0.429722 0.844789 0.619050 0.696843
O5    O     O_R   0.572280 0.175810 0.578530 -0.538192
O6    O     O_R   0.427720 0.675810 0.421470 -0.538192
O7    O     O_R   0.450830 0.001920 0.590540 -0.537132
O8    O     O_R   0.549170 0.501920 0.409460 -0.537132
C3    C     C_R   0.589916 0.342943 0.605114 0.700711
C4    C     C_R   0.410084 0.842943 0.394886 0.700708
O9    O     O_3   0.460130 0.338030 0.503750 -0.371669
O10   O     O_3   0.539870 0.838030 0.496250 -0.371668
V1    V     V_3+5 0.507400 0.064560 0.499310 1.420119
V2    V     V_3+5 0.492600 0.564560 0.500690 1.420117
C5    C     C_R   0.143760 0.923504 0.167675 -0.123689
C6    C     C_R   0.856240 0.423504 0.832326 -0.123675
C7    C     C_R   0.356296 0.840565 0.331963 -0.080912
C8    C     C_R   0.643704 0.340565 0.668037 -0.080925
C9    C     C_R   0.296924 0.663195 0.224452 0.008383
C10   C     C_R   0.703077 0.163195 0.775547 0.008374
C11   C     C_R   0.350826 0.687742 0.277818 -0.229725
C12   C     C_R   0.649175 0.187742 0.722181 -0.229719
C13   C     C_R   0.307281 0.975148 0.330875 -0.221048
C14   C     C_R   0.692719 0.475146 0.669124 -0.221032
C15   C     C_R   0.252160 0.955814 0.277789 0.111688
C16   C     C_R   0.747840 0.455813 0.722210 0.111712
C17   C     C_R   0.246726 0.799296 0.223252 0.079880
C18   C     C_R   0.753274 0.299296 0.776748 0.079865
C19   C     C_R   0.192525 0.787795 0.167826 -0.211618
C20   C     C_R   0.807475 0.287795 0.832174 -0.211628
C21   C     C_R   0.148978 0.072986 0.223479 -0.141706
C22   C     C_R   0.851022 0.572985 0.776520 -0.141719
C23   C     C_R   0.202334 0.090829 0.278315 0.242409
C24   C     C_R   0.797666 0.590827 0.721684 0.242409
H1    H     H_    0.188720 0.680404 0.121388 0.181097
H2    H     H_    0.811280 0.180404 0.878612 0.181091
H3    H     H_    0.111368 0.178377 0.223713 0.116648
H4    H     H_    0.888632 0.678375 0.776285 0.116646
H5    H     H_    0.388561 0.582397 0.278828 0.115921
H6    H     H_    0.611440 0.082398 0.721171 0.115922
H7    H     H_    0.311558 0.091619 0.373399 0.154094
H8    H     H_    0.688443 0.591616 0.626599 0.154113
C25   C     C_R   0.380619 0.854066 0.837119 -0.158104
C26   C     C_R   0.619384 0.353979 0.162882 -0.158103
H9    H     H_    0.469883 0.836573 0.777236 0.100205
H10   H     H_    0.530119 0.336485 0.222765 0.100207
H11   H     H_    0.300694 0.868447 0.958343 0.127516
H12   H     H_    0.699310 0.368314 0.041659 0.127513
H13   H     H_    0.404306 0.848758 0.897306 0.110944
H14   H     H_    0.595697 0.348628 0.102695 0.110944
C27   C     C_R   0.389234 0.853476 0.690445 -0.036451
C28   C     C_R   0.610766 0.353469 0.309555 -0.036452
C29   C     C_R   0.078004 0.916201 0.732075 -0.165519
C30   C     C_R   0.921995 0.416265 0.267925 -0.165521
C31   C     C_R   0.112507 0.909675 0.661474 -0.121949
C32   C     C_R   0.887491 0.409767 0.338525 -0.121948
C33   C     C_R   0.179310 0.896109 0.666065 -0.155797
C34   C     C_R   0.820688 0.396177 0.333934 -0.155796
C35   C     C_R   0.213780 0.888430 0.742379 0.077288
C36   C     C_R   0.786219 0.388444 0.257621 0.077288
C37   C     C_R   0.177880 0.895046 0.814904 0.065053
C38   C     C_R   0.822120 0.395029 0.185097 0.065056
C39   C     C_R   0.282533 0.874521 0.749097 0.073707
C40   C     C_R   0.717467 0.374514 0.250903 0.073707
C41   C     C_R   0.313419 0.867544 0.828169 0.135805
C42   C     C_R   0.686582 0.367483 0.171832 0.135805
C43   C     C_R   0.277241 0.873951 0.898000 -0.191744
C44   C     C_R   0.722761 0.373860 0.102001 -0.191745
C45   C     C_R   0.210664 0.887484 0.891627 -0.180805
C46   C     C_R   0.789338 0.387415 0.108374 -0.180805
C47   C     C_R   0.322023 0.867135 0.680429 -0.213620
C48   C     C_R   0.677976 0.367156 0.319571 -0.213618
C49   C     C_R   0.418114 0.847125 0.768874 -0.170979
C50   C     C_R   0.581888 0.347062 0.231127 -0.170982
C51   C     C_R   0.109703 0.909196 0.808952 -0.076511
C52   C     C_R   0.890297 0.409204 0.191048 -0.076512
H15   H     H_    0.302328 0.871442 0.618548 0.092205
H16   H     H_    0.697670 0.371501 0.381451 0.092207
H17   H     H_    0.026080 0.926904 0.726743 0.099151
H18   H     H_    0.973917 0.426993 0.273256 0.099153
H19   H     H_    0.202454 0.891968 0.608635 0.106220
H20   H     H_    0.797544 0.392062 0.391364 0.106221
H21   H     H_    0.087192 0.915317 0.602385 0.115382
H22   H     H_    0.912804 0.415453 0.397614 0.115382
H23   H     H_    0.184992 0.891965 0.947634 0.112546
H24   H     H_    0.815010 0.391872 0.052367 0.112542
O11   O     O_R   0.950790 0.256670 0.090520 -0.536303
O12   O     O_R   0.049210 0.756670 0.909480 -0.536301
O13   O     O_R   0.927720 0.590370 0.921470 -0.533445
O14   O     O_R   0.072280 0.090370 0.078530 -0.533446
C53   C     C_R   0.910123 0.422689 0.894995 0.698731
C54   C     C_R   0.089877 0.922689 0.105005 0.698731
O15   O     O_R   0.943270 0.586180 0.090640 -0.536295
O16   O     O_R   0.056730 0.086180 0.909360 -0.536296
O17   O     O_R   0.064850 0.759970 0.079840 -0.537971
O18   O     O_R   0.935150 0.259970 0.920160 -0.537972
C55   C     C_R   0.930216 0.417682 0.118822 0.676938
C56   C     C_R   0.069784 0.917681 0.881177 0.676937
O19   O     O_3   0.039850 0.428050 0.996240 -0.368329
O20   O     O_3   0.960150 0.928050 0.003760 -0.368331
V3    V     V_3+5 0.992610 0.701540 0.000700 1.449969
V4    V     V_3+5 0.007390 0.201540 0.999300 1.449965
C57   C     C_2   0.296123 0.489856 0.173573 0.362856
H25   H     H_    0.341299 0.427404 0.156990 0.036603
O21   O     O_2   0.246307 0.408135 0.153953 -0.532111
C58   C     C_2   0.703879 0.989855 0.826424 0.362828
H26   H     H_    0.658704 0.927405 0.843011 0.036615
O22   O     O_2   0.753695 0.908127 0.846038 -0.532118
N1    N     N_3   0.206538 0.247989 0.333642 -0.660421
H27   H     H_    0.170134 0.345679 0.319709 0.235316
H28   H     H_    0.198451 0.196639 0.392081 0.204420
N2    N     N_3   0.793464 0.747977 0.666352 -0.660457
H29   H     H_    0.829845 0.845720 0.680313 0.235348
H30   H     H_    0.801589 0.696633 0.607922 0.204429

loop_
_geom_bond_atom_site_label_1
_geom_bond_atom_site_label_2
_ccdc_geom_bond_type
C30   C52   A    
C40   C42   A    
C15   C17   A    
C12   H6    S    
H10   C50   S    
N1    H27   S    
O1    C3    A    
C24   N2    S    
C13   H7    S    
C2    O7    A    
C26   C50   A    
N2    H29   S    
C14   H8    S    
O5    C3    A    
C57   O21   D    
C21   H3    S    
O11   C55   A    
C22   H4    S    
C33   H19   S    
C29   C51   A    
O15   C55   A    
C31   C33   A    
C25   H13   S    
C32   C34   A    
C40   C48   A    
C26   H14   S    
C39   C47   A    
C58   H26   S    
C51   C56   S    
C34   C36   A    
O6    V2    S    
C43   C45   A    
C36   C38   A    
C28   C48   A    
C8    C12   A    
C31   H21   S    
C39   C41   A    
C25   C41   A    
C20   H2    S    
C29   H17   S    
C22   C24   A    
H11   C43   S    
O5    V1    S    
O2    C4    A    
O19   V3    S    
C48   H16   S    
C27   C49   A    
C5    C21   A    
C32   H22   S    
O12   C56   A    
C46   H24   S    
O15   V3    S    
C3    C8    S    
C33   C35   A    
C36   C40   A    
C1    C28   S    
O4    C2    A    
C54   O17   A    
C15   C23   A    
C9    C17   A    
C19   H1    S    
C41   C43   A    
O4    V2    S    
C7    C11   A    
C26   C42   A    
O13   C53   A    
O6    C4    A    
O14   C54   A    
C47   H15   S    
N1    H28   S    
O1    V2    S    
O20   V4    S    
O2    V1    S    
C6    C22   A    
O17   V3    S    
C28   C50   A    
C37   C45   A    
O19   V4    S    
C29   C31   A    
O11   V4    S    
C5    C19   A    
C45   H23   S    
C6    C20   A    
C2    C27   S    
C23   N1    S    
C37   C51   A    
O16   V4    S    
C10   C18   A    
C38   C52   A    
C35   C37   A    
C27   C47   A    
O13   V3    S    
O3    C1    A    
N2    H30   S    
C58   O22   D    
C30   H18   S    
C13   C15   A    
C57   H25   S    
C14   C16   A    
C11   H5    S    
C25   C49   A    
C9    C11   A    
H12   C44   S    
H9    C49   S    
C1    O8    A    
C17   C19   A    
O8    V2    S    
C18   C20   A    
C34   H20   S    
C8    C14   A    
C10   C58   S    
O16   C56   A    
C4    C7    S    
C16   C18   A    
C21   C23   A    
C30   C32   A    
C10   C12   A    
C38   C46   A    
O7    V1    S    
O20   V3    S    
C7    C13   A    
O12   V3    S    
O14   V4    S    
C35   C39   A    
C16   C24   A    
C42   C44   A    
O9    V2    S    
C52   C55   S    
C6    C53   S    
O10   V1    S    
O3    V1    S    
C44   C46   A    
C5    C54   S    
C53   O18   A    
O18   V4    S    
C9    C57   S    
