data_mof_unit_30969.cif
_audit_creation_date              2012-12-11T18:11:22-0500
_audit_creation_method            fapswitch 2.2
_symmetry_space_group_name_H-M    P1
_symmetry_Int_Tables_number       1
_space_group_crystal_system       triclinic
_cell_length_a                    8.176393
_cell_length_b                    12.668868
_cell_length_c                    18.777003
_cell_angle_alpha                 99.587452
_cell_angle_beta                  90.949602
_cell_angle_gamma                 98.610433
_cell_volume                      1894.52540554

loop_
_atom_site_label
_atom_site_type_symbol
_atom_type_description
_atom_site_fract_x
_atom_site_fract_y
_atom_site_fract_z
_atom_type_partial_charge
Ba1   Ba    Ba6+2 0.852780 0.548340 0.465070 1.638636
Ba2   Ba    Ba6+2 0.337060 0.451750 0.534940 1.643203
C1    C     C_3   0.582834 0.903192 0.255248 -0.422560
C2    C     C_R   0.906031 0.383625 0.094496 -0.087602
C3    C     C_R   0.768841 0.406683 0.953077 -0.080041
C4    C     C_3   0.128751 0.765945 0.266655 0.366292
C5    C     C_R   0.932674 0.452250 0.977379 0.023469
C6    C     C_R   0.711275 0.406149 0.882934 -0.079426
C7    C     C_R   0.813840 0.451044 0.833206 -0.021327
C8    C     C_R   0.975983 0.503524 0.856707 0.015415
C9    C     C_R   0.035347 0.505960 0.929501 0.028863
C10   C     C_R   0.759146 0.444558 0.760438 -0.026787
C11   C     C_R   0.867347 0.485736 0.711413 -0.289681
C12   C     C_3   0.634868 0.825215 0.301575 0.337612
C13   C     C_R   0.023962 0.543052 0.733506 0.043109
C14   C     C_R   0.078104 0.553872 0.807464 -0.043919
C15   C     C_R   0.153081 0.504282 0.073142 0.027569
C16   C     C_3   0.108122 0.793440 0.191520 -0.358007
C17   C     C_R   0.211848 0.504638 0.145726 0.002248
C18   C     C_R   0.112998 0.447806 0.193115 -0.035811
C19   C     C_R   0.963569 0.384310 0.164999 -0.026579
C20   C     C_R   0.234317 0.609261 0.832740 -0.044417
C21   C     C_R   0.299715 0.604054 0.900895 -0.049720
C22   C     C_R   0.197773 0.559469 0.953194 -0.016244
C23   C     C_3   0.461805 0.277519 0.314663 0.307197
C24   C     C_R   0.250829 0.564758 0.027252 0.014825
C25   C     C_R   0.395060 0.632922 0.058698 -0.096452
C26   C     C_R   0.369576 0.562616 0.170921 -0.039130
C27   C     C_R   0.458487 0.626337 0.126363 -0.109548
C28   C     C_3   0.224668 0.793583 0.623415 0.266169
C29   C     C_R   0.429376 0.560631 0.241573 -0.009877
C30   C     C_R   0.324906 0.512472 0.289241 -0.291271
C31   C     C_R   0.167254 0.456659 0.266921 0.038460
C32   C     C_R   0.765462 0.182526 0.526977 -0.268996
C33   C     C_R   0.425030 0.808168 0.472396 -0.288130
C34   C     C_3   0.442768 0.243239 0.233026 -0.393391
C35   C     C_R   0.400421 0.984590 0.445539 -0.106293
C36   C     C_R   0.334933 0.876558 0.442872 -0.011112
C37   C     C_R   0.576249 0.848598 0.510001 0.065628
C38   C     C_R   0.641464 0.960634 0.516485 -0.057536
C39   C     C_R   0.552977 0.028547 0.482453 -0.057561
C40   C     C_3   0.163687 0.901773 0.635763 -0.330063
C41   C     C_R   0.617760 0.139368 0.487699 0.051967
C42   C     C_R   0.856771 0.116415 0.557689 -0.014504
C43   C     C_R   0.792837 0.007009 0.554669 -0.091256
C44   C     C_3   0.961600 0.211469 0.379666 0.275092
C45   C     C_3   0.075497 0.239926 0.733707 0.396912
C46   C     C_3   0.956687 0.089627 0.363769 -0.341631
C47   C     C_3   0.732411 0.707429 0.681884 0.288570
C48   C     C_3   0.762458 0.747298 0.762683 -0.374260
C49   C     C_1   0.977429 0.122786 0.822111 0.281048
C50   C     C_1   0.478076 0.631083 0.908886 0.249806
C51   C     C_3   0.095775 0.216822 0.810380 -0.246392
C52   C     C_3   0.613980 0.191699 0.726371 0.311309
C53   C     C_3   0.548703 0.071326 0.711210 -0.325012
C54   C     C_R   0.995356 0.446425 0.047987 0.012698
H1    H     H_    0.722277 0.871162 0.345740 0.076444
H2    H     H_    0.847054 0.682378 0.659090 0.011487
H3    H     H_    0.630852 0.637304 0.673280 0.068764
H4    H     H_    0.528582 0.968286 0.289481 0.108075
H5    H     H_    0.868397 0.814639 0.772552 0.144406
H6    H     H_    0.791208 0.680905 0.790015 0.078043
H7    H     H_    0.650175 0.776431 0.786151 0.136322
H8    H     H_    0.522553 0.789696 0.326876 -0.052108
H9    H     H_    0.489103 0.859058 0.213111 0.109206
H10   H     H_    0.342792 0.299351 0.335081 0.017284
H11   H     H_    0.560278 0.349325 0.326811 0.063810
H12   H     H_    0.228140 0.954676 0.683998 0.133936
H13   H     H_    0.341886 0.173152 0.218997 0.128021
H14   H     H_    0.412079 0.311233 0.207573 0.057119
H15   H     H_    0.560326 0.219951 0.211379 0.120223
H16   H     H_    0.691097 0.939935 0.228084 0.132555
H17   H     H_    0.191011 0.869646 0.186968 0.108551
H18   H     H_    0.165497 0.312307 0.728435 0.104046
H19   H     H_    0.949804 0.259079 0.725169 -0.142676
H20   H     H_    0.074979 0.288441 0.849960 0.030597
H21   H     H_    0.223294 0.200735 0.820090 0.118420
H22   H     H_    0.699279 0.208883 0.774852 0.009694
H23   H     H_    0.184522 0.940651 0.587447 0.105825
H24   H     H_    0.682133 0.210737 0.678128 -0.020084
H25   H     H_    0.653810 0.024672 0.706135 0.097354
H26   H     H_    0.474762 0.051650 0.659334 0.110704
H27   H     H_    0.045771 0.688975 0.269250 0.094623
H28   H     H_    0.471676 0.048155 0.755949 0.124193
H29   H     H_    0.825909 0.477450 0.655468 0.069499
H30   H     H_    0.584742 0.369195 0.868266 0.089793
H31   H     H_    0.888525 0.334043 0.197054 0.093180
H32   H     H_    0.313690 0.651794 0.797974 0.105949
H33   H     H_    0.574485 0.676871 0.144167 0.116290
H34   H     H_    0.030285 0.889078 0.646772 0.129682
H35   H     H_    0.369049 0.515565 0.344292 0.072900
H36   H     H_    0.679805 0.371946 0.987670 0.067854
H37   H     H_    0.790989 0.331102 0.077603 0.059317
H38   H     H_    0.259123 0.754915 0.275368 -0.075198
H39   H     H_    0.458419 0.697118 0.033944 0.088967
H40   H     H_    0.328012 0.033311 0.419891 0.099684
H41   H     H_    0.863807 0.959594 0.581368 0.097958
H42   H     H_    0.814745 0.267431 0.530030 0.060296
H43   H     H_    0.373086 0.723694 0.469134 0.071201
H44   H     H_    0.139514 0.727197 0.150186 0.076135
H45   H     H_    0.838134 0.230003 0.394285 -0.000183
H46   H     H_    0.978159 0.804027 0.180915 0.154550
H47   H     H_    0.360190 0.807066 0.617857 0.001500
H48   H     H_    0.163042 0.746037 0.572546 0.066020
H49   H     H_    0.052007 0.244702 0.425480 0.078861
H50   H     H_    0.869912 0.054061 0.317157 0.117406
H51   H     H_    0.914784 0.053360 0.411259 0.083682
H52   H     H_    0.082089 0.070601 0.350633 0.140088
N1    N     N_1   0.884276 0.048610 0.831441 -0.305668
N2    N     N_1   0.620841 0.652734 0.914882 -0.309564
O1    O     O_2   0.873090 0.425890 0.325140 -0.466621
O2    O     O_2   0.197472 0.122151 0.550744 -0.475976
O3    O     O_3   0.105677 0.150476 0.683329 -0.602931
O4    O     O_3   0.122420 0.434370 0.414380 -0.495994
O5    O     O_3   0.578370 0.633800 0.536380 -0.485876
O6    O     O_2   0.341510 0.231850 0.465510 -0.465636
O7    O     O_3   0.503908 0.191116 0.345405 -0.652244
O8    O     O_2   0.415546 0.449074 0.756797 -0.506654
O9    O     O_3   0.482085 0.250734 0.740219 -0.588639
O10   O     O_3   0.659500 0.627100 0.368810 -0.470605
O11   O     O_2   0.770312 0.547701 0.242998 -0.489938
O12   O     O_3   0.689550 0.792320 0.650212 -0.640359
O13   O     O_3   0.005018 0.253149 0.317132 -0.640537
O14   O     O_3   0.716092 0.748643 0.258472 -0.597076
O15   O     O_2   0.848200 0.768190 0.534530 -0.475166
O16   O     O_3   0.081160 0.685950 0.404810 -0.486466
O17   O     O_2   0.997367 0.878736 0.451015 -0.487155
O18   O     O_3   0.086763 0.850592 0.317850 -0.598078
O19   O     O_2   0.316610 0.574140 0.674900 -0.468134
O20   O     O_3   0.067290 0.565720 0.585630 -0.498156
O21   O     O_3   0.530210 0.372990 0.631200 -0.451138
O22   O     O_3   0.190298 0.746550 0.684835 -0.636223
O23   O     O_3   0.611340 0.366290 0.463630 -0.478884
O24   O     O_3   0.108550 0.314140 0.595200 -0.484418
P1    P     P_3+3 0.041040 0.394770 0.336330 0.971115
P2    P     P_3+3 0.672880 0.754030 0.556100 0.972160
P3    P     P_3+3 0.125578 0.824285 0.404617 0.950440
P4    P     P_3+3 0.148670 0.605320 0.663680 0.971464
P5    P     P_3+3 0.066002 0.174866 0.596098 0.961516
P6    P     P_3+3 0.643196 0.618744 0.275864 0.954210
P7    P     P_3+3 0.522071 0.230275 0.439432 0.935196
P8    P     P_3+3 0.547912 0.382308 0.724429 0.950207

loop_
_geom_bond_atom_site_label_1
_geom_bond_atom_site_label_2
_ccdc_geom_bond_type
C19   H31   S    
O16   P3    S    
C25   C27   A    
C25   H39   S    
C17   C18   A    
C23   H11   S    
C32   H42   S    
C27   H33   S    
C42   C43   A    
C5    C9    A    
C24   C25   A    
Ba2   O24   S    
C15   C24   A    
O11   P6    D    
C26   C27   A    
Ba1   O15   S    
C33   C37   A    
C33   H43   S    
C46   H51   S    
O5    P2    S    
O22   P4    S    
C13   C14   A    
C44   H49   S    
C9    C22   A    
Ba2   O19   S    
Ba1   Ba2   S    
C16   H46   S    
C15   C17   A    
Ba2   O6    S    
C46   H50   S    
O19   P4    D    
C6    C7    A    
C4    H38   S    
C28   H47   S    
O4    P1    S    
O3    P5    S    
O10   P6    S    
C20   H32   S    
C53   H25   S    
Ba1   P2    S    
C7    C8    A    
C34   H15   S    
C45   C51   S    
C13   P4    S    
C1    H4    S    
C40   H23   S    
C49   N1    T    
C52   O9    S    
C2    C54   A    
C40   H12   S    
C48   H7    S    
C39   C41   A    
O2    P5    D    
C1    H9    S    
C16   H44   S    
C5    C54   A    
Ba1   O23   S    
C34   H14   S    
C52   H24   S    
C37   P2    S    
C38   C43   A    
C4    C16   S    
C44   H45   S    
C44   C46   S    
Ba2   O23   S    
C12   O14   S    
C32   C41   A    
Ba2   P4    S    
C33   C36   A    
C32   C42   A    
Ba1   O16   S    
Ba1   O20   S    
O24   P5    S    
C3    C5    A    
C47   H2    S    
O6    P7    D    
C35   H40   S    
O13   P1    S    
C40   H34   S    
Ba1   O10   S    
O7    P7    S    
O18   P3    S    
C35   C36   A    
Ba2   O5    S    
C31   P1    S    
C29   C30   A    
C50   N2    T    
C21   C22   A    
C12   H8    S    
Ba2   O21   S    
C10   C11   A    
C53   H26   S    
C17   C26   A    
O21   P8    S    
C15   C54   A    
O12   P2    S    
C1    C12   S    
C18   C31   A    
O15   P2    D    
C38   C39   A    
C16   H17   S    
C11   C13   A    
C51   H21   S    
C48   H6    S    
C44   O13   S    
C41   P7    S    
C51   H20   S    
Ba1   O4    S    
C28   H48   S    
O20   P4    S    
C37   C38   A    
C34   H13   S    
C45   O3    S    
C12   H1    S    
C52   C53   S    
C14   C20   A    
C4    H27   S    
O14   P6    S    
C26   C29   A    
C23   H10   S    
C45   H18   S    
C22   C24   A    
O8    P8    D    
C23   O7    S    
C3    C6    A    
C42   P5    S    
O17   P3    D    
O23   P7    S    
C47   H3    S    
C30   C31   A    
C1    H16   S    
C53   H28   S    
C4    O18   S    
C8    C14   A    
Ba1   O1    S    
C2    C19   A    
Ba2   O4    S    
O1    P1    D    
C21   C50   S    
C46   H52   S    
C28   O22   S    
C47   O12   S    
Ba2   O20   S    
C36   P3    S    
C10   P8    S    
C6    H30   S    
C35   C39   A    
C7    C10   A    
C3    H36   S    
C8    C9    A    
C23   C34   S    
C45   H19   S    
C2    H37   S    
C30   H35   S    
C48   H5    S    
C18   C19   A    
C47   C48   S    
C11   H29   S    
O9    P8    S    
C20   C21   A    
C28   C40   S    
C43   H41   S    
Ba1   O5    S    
C49   C51   S    
C29   P6    S    
Ba1   P1    S    
C52   H22   S    
