data_mof_unit_42392.cif
_audit_creation_date              2012-12-11T21:25:25-0500
_audit_creation_method            fapswitch 2.2
_symmetry_space_group_name_H-M    P1
_symmetry_Int_Tables_number       1
_space_group_crystal_system       triclinic
_cell_length_a                    23.278085
_cell_length_b                    29.40181
_cell_length_c                    8.313069
_cell_angle_alpha                 90.087775
_cell_angle_beta                  92.869809
_cell_angle_gamma                 89.944076
_cell_volume                      5682.46822224

loop_
_atom_site_label
_atom_site_type_symbol
_atom_type_description
_atom_site_fract_x
_atom_site_fract_y
_atom_site_fract_z
_atom_type_partial_charge
Ba1   Ba    Ba6+2 0.999920 0.467660 0.844980 1.649550
Ba2   Ba    Ba6+2 0.999920 0.532340 0.344980 1.649599
Ba3   Ba    Ba6+2 0.499920 0.967660 0.844980 1.649550
Ba4   Ba    Ba6+2 0.499920 0.032340 0.344980 1.649599
C1    C     C_3   0.047844 0.254898 0.621277 -0.373081
C2    C     C_R   0.192164 0.244432 0.286859 -0.106483
C3    C     C_R   0.342900 0.220202 0.958908 -0.094031
C4    C     C_R   0.891710 0.352480 0.416370 -0.012831
C5    C     C_R   0.891984 0.647683 0.915817 -0.012630
C6    C     C_R   0.391709 0.852479 0.416370 -0.012831
C7    C     C_R   0.391984 0.147683 0.915817 -0.012629
C8    C     C_R   0.901974 0.389329 0.315192 -0.304701
C9    C     C_R   0.902108 0.610699 0.814747 -0.300293
C10   C     C_R   0.401974 0.889328 0.315192 -0.304700
C11   C     C_R   0.402109 0.110699 0.814747 -0.300293
C12   C     C_R   0.869540 0.396027 0.170758 0.017523
C13   C     C_R   0.692091 0.255499 0.786980 -0.104983
C14   C     C_R   0.869570 0.603954 0.670482 0.025110
C15   C     C_R   0.369540 0.896027 0.170759 0.017522
C16   C     C_R   0.369570 0.103954 0.670482 0.025110
C17   C     C_3   0.164544 0.471093 0.193483 0.406831
C18   C     C_3   0.166111 0.528051 0.700686 0.348269
C19   C     C_3   0.664544 0.971093 0.193484 0.406831
C20   C     C_3   0.666111 0.028051 0.700686 0.348269
C21   C     C_3   0.218870 0.442389 0.216865 0.301488
C22   C     C_3   0.221050 0.553502 0.758593 0.294797
C23   C     C_3   0.718870 0.942390 0.216867 0.301490
C24   C     C_R   0.692164 0.744432 0.286859 -0.106483
C25   C     C_3   0.721050 0.053502 0.758595 0.294797
C26   C     C_3   0.835289 0.529313 0.996604 0.408355
C27   C     C_3   0.833815 0.471500 0.489459 0.348283
C28   C     C_3   0.335289 0.029313 0.996603 0.408355
C29   C     C_3   0.333815 0.971500 0.489459 0.348282
C30   C     C_3   0.780923 0.557991 0.973438 0.302711
C31   C     C_3   0.778862 0.445950 0.432116 0.295822
C32   C     C_3   0.280923 0.057991 0.973436 0.302711
C33   C     C_3   0.278862 0.945950 0.432116 0.295825
C34   C     C_3   0.020514 0.301740 0.604307 0.361275
C35   C     C_R   0.219868 0.754142 0.941942 0.017969
C36   C     C_3   0.020411 0.698302 0.104856 0.358223
C37   C     C_3   0.520514 0.801740 0.604305 0.361274
C38   C     C_3   0.520411 0.198302 0.104856 0.358223
C39   C     C_R   0.754298 0.290907 0.004143 0.013955
C40   C     C_R   0.754512 0.709106 0.503618 0.011333
C41   C     C_R   0.254298 0.790907 0.004143 0.013955
C42   C     C_R   0.254512 0.209106 0.503618 0.011333
C43   C     C_3   0.303433 0.421822 0.102830 0.277977
C44   C     C_3   0.339555 0.428487 0.957173 -0.300811
C45   C     C_3   0.272712 0.554827 0.526878 0.300436
C46   C     C_R   0.220000 0.245857 0.441761 0.017410
C47   C     C_3   0.326960 0.537865 0.451693 -0.322019
C48   C     C_3   0.803432 0.921821 0.102833 0.277976
C49   C     C_3   0.839556 0.928486 0.957177 -0.300812
C50   C     C_3   0.772712 0.054828 0.526879 0.300435
C51   C     C_3   0.826960 0.037866 0.451694 -0.322017
C52   C     C_3   0.696085 0.578066 0.087028 0.278258
C53   C     C_3   0.659975 0.571245 0.232627 -0.300742
C54   C     C_3   0.726434 0.445747 0.662485 0.301832
C55   C     C_3   0.672342 0.463639 0.736038 -0.322518
C56   C     C_3   0.196085 0.078066 0.087025 0.278259
C57   C     C_R   0.719868 0.254142 0.941941 0.017969
C58   C     C_3   0.159975 0.071246 0.232623 -0.300742
C59   C     C_3   0.226434 0.945747 0.662485 0.301831
C60   C     C_3   0.172343 0.963639 0.736038 -0.322518
C61   C     C_R   0.720000 0.745857 0.441761 0.017410
C62   C     C_R   0.156478 0.720476 0.730665 -0.094012
C63   C     C_R   0.156396 0.279388 0.230919 -0.094181
C64   C     C_R   0.656478 0.220476 0.730665 -0.094012
C65   C     C_3   0.047702 0.745106 0.122798 -0.370960
C66   C     C_R   0.656396 0.779388 0.230918 -0.094182
C67   C     C_R   0.146817 0.682190 0.825527 -0.028782
C68   C     C_R   0.146665 0.317696 0.326011 -0.027831
C69   C     C_R   0.646817 0.182190 0.825527 -0.028782
C70   C     C_R   0.646665 0.817696 0.326011 -0.027831
C71   C     C_R   0.177110 0.678142 0.976901 0.003547
C72   C     C_R   0.177044 0.321845 0.477371 0.002601
C73   C     C_R   0.677110 0.178142 0.976901 0.003547
C74   C     C_R   0.677044 0.821845 0.477371 0.002601
C75   C     C_R   0.214132 0.714065 0.034957 0.022158
C76   C     C_3   0.547844 0.754898 0.621276 -0.373081
C77   C     C_R   0.214114 0.285942 0.535224 0.021473
C78   C     C_R   0.714132 0.214065 0.034957 0.022158
C79   C     C_R   0.714114 0.785942 0.535224 0.021473
C80   C     C_R   0.107858 0.647778 0.773218 -0.011737
C81   C     C_R   0.107594 0.352063 0.273822 -0.011506
C82   C     C_R   0.607858 0.147778 0.773218 -0.011737
C83   C     C_R   0.607594 0.852063 0.273822 -0.011506
C84   C     C_R   0.097780 0.610860 0.874266 -0.304322
C85   C     C_R   0.097621 0.389094 0.374808 -0.300305
C86   C     C_R   0.597780 0.110860 0.874265 -0.304321
C87   C     C_3   0.547702 0.245107 0.122799 -0.370961
C88   C     C_R   0.597621 0.889094 0.374808 -0.300306
C89   C     C_R   0.130162 0.604275 0.018800 0.016425
C90   C     C_R   0.130106 0.395730 0.519169 0.023917
C91   C     C_R   0.630162 0.104275 0.018800 0.016424
C92   C     C_R   0.630106 0.895730 0.519169 0.023918
C93   C     C_3   0.978855 0.301719 0.084978 0.357974
C94   C     C_3   0.978739 0.698239 0.585533 0.361079
C95   C     C_3   0.478855 0.801719 0.084976 0.357976
C96   C     C_3   0.478739 0.198239 0.585533 0.361079
C97   C     C_R   0.171069 0.637953 0.069253 -0.041948
C98   C     C_R   0.757226 0.332988 0.923481 -0.088351
C99   C     C_R   0.171008 0.362106 0.569879 -0.053278
C100  C     C_R   0.671069 0.137953 0.069253 -0.041947
C101  C     C_R   0.671008 0.862106 0.569879 -0.053277
C102  C     C_R   0.785281 0.286366 0.154614 0.022231
C103  C     C_R   0.785315 0.713638 0.654422 0.021505
C104  C     C_R   0.285281 0.786366 0.154614 0.022231
C105  C     C_R   0.285315 0.213638 0.654422 0.021505
C106  C     C_R   0.822369 0.322246 0.212670 0.003276
C107  C     C_R   0.822447 0.677774 0.712272 0.002491
C108  C     C_R   0.322369 0.822246 0.212671 0.003276
C109  C     C_R   0.757728 0.667067 0.422171 -0.091504
C110  C     C_R   0.322447 0.177774 0.712272 0.002491
C111  C     C_R   0.828525 0.362418 0.120284 -0.042900
C112  C     C_R   0.828576 0.637522 0.619757 -0.054165
C113  C     C_R   0.328525 0.862418 0.120284 -0.042900
C114  C     C_R   0.328576 0.137522 0.619757 -0.054164
C115  C     C_R   0.793034 0.367803 0.980951 -0.027402
C116  C     C_R   0.793222 0.632097 0.479861 -0.037139
C117  C     C_R   0.293034 0.867803 0.980951 -0.027402
C118  C     C_R   0.293222 0.132097 0.479862 -0.037139
C119  C     C_R   0.206595 0.632590 0.208506 -0.027823
C120  C     C_R   0.257226 0.832988 0.923481 -0.088351
C121  C     C_R   0.206388 0.367510 0.709729 -0.037356
C122  C     C_R   0.706595 0.132590 0.208505 -0.027823
C123  C     C_R   0.706388 0.867510 0.709729 -0.037355
C124  C     C_R   0.242352 0.667426 0.265928 -0.088635
C125  C     C_R   0.241841 0.332525 0.767360 -0.091700
C126  C     C_R   0.742352 0.167426 0.265928 -0.088635
C127  C     C_R   0.741841 0.832525 0.767360 -0.091700
C128  C     C_R   0.245135 0.709530 0.185390 0.014067
C129  C     C_R   0.244933 0.290468 0.686001 0.011564
C130  C     C_R   0.745135 0.209530 0.185389 0.014068
C131  C     C_R   0.257728 0.167067 0.422171 -0.091504
C132  C     C_R   0.744933 0.790468 0.686001 0.011564
C133  C     C_R   0.779480 0.246310 0.247680 0.018000
C134  C     C_R   0.779371 0.753703 0.747930 0.017438
C135  C     C_R   0.279480 0.746310 0.247680 0.018000
C136  C     C_R   0.279371 0.253703 0.747930 0.017438
C137  C     C_R   0.807110 0.244977 0.402815 -0.105128
C138  C     C_R   0.807076 0.755109 0.902983 -0.106659
C139  C     C_R   0.307110 0.744977 0.402815 -0.105128
C140  C     C_R   0.307076 0.255109 0.902983 -0.106660
C141  C     C_3   0.951401 0.254972 0.067081 -0.371006
C142  C     C_R   0.192091 0.755499 0.786980 -0.104983
C143  C     C_3   0.951242 0.745021 0.568596 -0.373074
C144  C     C_3   0.451401 0.754973 0.067081 -0.371006
C145  C     C_3   0.451242 0.245021 0.568596 -0.373074
C146  C     C_R   0.852614 0.318169 0.364112 -0.028563
C147  C     C_R   0.852792 0.681956 0.863672 -0.027598
C148  C     C_R   0.352614 0.818169 0.364112 -0.028562
C149  C     C_R   0.352792 0.181956 0.863672 -0.027598
C150  C     C_R   0.842774 0.279951 0.459132 -0.093779
C151  C     C_R   0.842900 0.720202 0.958908 -0.094031
C152  C     C_R   0.342774 0.779951 0.459132 -0.093779
H1    H     H_    0.048040 0.326393 0.674084 0.089987
H2    H     H_    0.215293 0.590917 0.743930 -0.097072
H3    H     H_    0.447940 0.255222 0.439896 0.145683
H4    H     H_    0.977879 0.229470 0.135786 0.109247
H5    H     H_    0.977609 0.770427 0.638201 0.109596
H6    H     H_    0.477878 0.729471 0.135791 0.109246
H7    H     H_    0.477609 0.270427 0.638200 0.109596
H8    H     H_    0.142956 0.472931 0.308825 -0.109274
H9    H     H_    0.136997 0.526013 0.801774 -0.061116
H10   H     H_    0.642956 0.972931 0.308824 -0.109273
H11   H     H_    0.636997 0.026013 0.801775 -0.061117
H12   H     H_    0.135567 0.454818 0.100298 0.043656
H13   H     H_    0.706578 0.906476 0.238209 -0.076662
H14   H     H_    0.144317 0.547283 0.600392 0.000687
H15   H     H_    0.635567 0.954818 0.100298 0.043656
H16   H     H_    0.644317 0.047283 0.600393 0.000686
H17   H     H_    0.295351 0.384802 0.118116 0.022701
H18   H     H_    0.328525 0.434974 0.210685 0.020844
H19   H     H_    0.349874 0.465106 0.943269 0.143737
H20   H     H_    0.380284 0.408962 0.973382 0.046694
H21   H     H_    0.315749 0.416468 0.846175 0.119977
H22   H     H_    0.273944 0.592620 0.529115 0.013199
H23   H     H_    0.235186 0.542903 0.450282 0.054889
H24   H     H_    0.715293 0.090917 0.743934 -0.097074
H25   H     H_    0.327567 0.500102 0.449943 0.119552
H26   H     H_    0.328189 0.550568 0.326151 0.069361
H27   H     H_    0.365563 0.550366 0.522193 0.115580
H28   H     H_    0.795349 0.884801 0.118117 0.022702
H29   H     H_    0.828525 0.934972 0.210689 0.020844
H30   H     H_    0.849876 0.965105 0.943276 0.143735
H31   H     H_    0.880284 0.908960 0.973386 0.046695
H32   H     H_    0.815749 0.916468 0.846178 0.119979
H33   H     H_    0.773944 0.092621 0.529119 0.013199
H34   H     H_    0.735186 0.042904 0.450283 0.054889
H35   H     H_    0.856701 0.527341 0.881044 -0.111176
H36   H     H_    0.827567 0.000104 0.449938 0.119552
H37   H     H_    0.828190 0.050571 0.326153 0.069360
H38   H     H_    0.865563 0.050366 0.522197 0.115581
H39   H     H_    0.671161 0.564692 0.979235 0.020817
H40   H     H_    0.703789 0.615126 0.071427 0.022269
H41   H     H_    0.683616 0.583463 0.343607 0.119626
H42   H     H_    0.619054 0.590506 0.216154 0.046628
H43   H     H_    0.650021 0.534569 0.246772 0.144134
H44   H     H_    0.764040 0.457449 0.739246 0.054417
H45   H     H_    0.724475 0.407973 0.661688 0.012902
H46   H     H_    0.862741 0.473687 0.388015 -0.061547
H47   H     H_    0.633639 0.451307 0.665585 0.115468
H48   H     H_    0.670655 0.451466 0.862130 0.069495
H49   H     H_    0.672400 0.501407 0.735943 0.119284
H50   H     H_    0.171161 0.064693 0.979231 0.020816
H51   H     H_    0.203790 0.115127 0.071426 0.022270
H52   H     H_    0.183615 0.083463 0.343604 0.119627
H53   H     H_    0.119055 0.090507 0.216151 0.046628
H54   H     H_    0.150019 0.034570 0.246765 0.144132
H55   H     H_    0.264040 0.957449 0.739246 0.054418
H56   H     H_    0.224475 0.907973 0.661687 0.012903
H57   H     H_    0.356701 0.027341 0.881044 -0.111176
H58   H     H_    0.133639 0.951307 0.665585 0.115468
H59   H     H_    0.170655 0.951465 0.862130 0.069495
H60   H     H_    0.172400 0.001407 0.735943 0.119285
H61   H     H_    0.362741 0.973686 0.388015 -0.061547
H62   H     H_    0.864412 0.545631 0.089325 0.042862
H63   H     H_    0.855839 0.452271 0.589372 0.000983
H64   H     H_    0.364412 0.045631 0.089325 0.042862
H65   H     H_    0.048041 0.673552 0.173753 0.091190
H66   H     H_    0.355839 0.952271 0.589372 0.000983
H67   H     H_    0.756078 0.544936 0.865038 -0.003893
H68   H     H_    0.772046 0.451178 0.300423 0.071610
H69   H     H_    0.256079 0.044936 0.865036 -0.003891
H70   H     H_    0.272046 0.951178 0.300423 0.071610
H71   H     H_    0.793131 0.593937 0.952509 -0.075991
H72   H     H_    0.784415 0.408593 0.449154 -0.096231
H73   H     H_    0.293131 0.093937 0.952507 -0.075993
H74   H     H_    0.284415 0.908593 0.449153 -0.096231
H75   H     H_    0.018768 0.311128 0.474843 -0.063113
H76   H     H_    0.548040 0.826393 0.674080 0.089985
H77   H     H_    0.018544 0.689076 0.975139 -0.062185
H78   H     H_    0.518767 0.811127 0.474841 -0.063113
H79   H     H_    0.518544 0.189076 0.975139 -0.062185
H80   H     H_    0.091618 0.255413 0.574376 0.075887
H81   H     H_    0.091406 0.744623 0.075405 0.076316
H82   H     H_    0.591617 0.755413 0.574372 0.075888
H83   H     H_    0.591406 0.244623 0.075404 0.076317
H84   H     H_    0.051120 0.244706 0.749987 0.145742
H85   H     H_    0.051138 0.755131 0.251766 0.147048
H86   H     H_    0.551121 0.744707 0.749987 0.145742
H87   H     H_    0.548041 0.173552 0.173753 0.091190
H88   H     H_    0.551138 0.255131 0.251767 0.147048
H89   H     H_    0.907689 0.255560 0.114398 0.076396
H90   H     H_    0.907468 0.744405 0.615464 0.075956
H91   H     H_    0.407688 0.755560 0.114394 0.076396
H92   H     H_    0.407468 0.244405 0.615465 0.075956
H93   H     H_    0.066462 0.585475 0.835253 0.077527
H94   H     H_    0.066490 0.414616 0.335585 0.074055
H95   H     H_    0.566462 0.085475 0.835253 0.077527
H96   H     H_    0.566490 0.914616 0.335585 0.074054
H97   H     H_    0.136553 0.724189 0.611306 0.113761
H98   H     H_    0.243783 0.455504 0.325051 -0.002040
H99   H     H_    0.136396 0.275602 0.111651 0.113053
H100  H     H_    0.636553 0.224189 0.611306 0.113761
H101  H     H_    0.636396 0.775603 0.111650 0.113053
H102  H     H_    0.792550 0.398945 0.913359 0.075915
H103  H     H_    0.792542 0.600886 0.411400 0.136755
H104  H     H_    0.292550 0.898945 0.913359 0.075915
H105  H     H_    0.292542 0.100886 0.411400 0.136754
H106  H     H_    0.207187 0.601432 0.275981 0.075995
H107  H     H_    0.207157 0.398727 0.778155 0.136258
H108  H     H_    0.707187 0.101432 0.275981 0.075995
H109  H     H_    0.228192 0.547639 0.889845 0.074722
H110  H     H_    0.707157 0.898727 0.778155 0.136257
H111  H     H_    0.862604 0.276245 0.578603 0.113856
H112  H     H_    0.862815 0.723986 0.078274 0.113167
H113  H     H_    0.362604 0.776245 0.578603 0.113856
H114  H     H_    0.362815 0.223986 0.078274 0.113167
H115  H     H_    0.933422 0.414616 0.354191 0.077740
H116  H     H_    0.933349 0.585261 0.853979 0.074284
H117  H     H_    0.433422 0.914616 0.354191 0.077740
H118  H     H_    0.433349 0.085261 0.853979 0.074284
H119  H     H_    0.197684 0.783001 0.703803 0.072839
H120  H     H_    0.743783 0.955505 0.325053 -0.002038
H121  H     H_    0.197729 0.216903 0.203463 0.068253
H122  H     H_    0.697684 0.283001 0.703803 0.072839
H123  H     H_    0.697730 0.716904 0.203462 0.068254
H124  H     H_    0.731373 0.340540 0.816024 0.051326
H125  H     H_    0.732395 0.659604 0.313706 0.061636
H126  H     H_    0.231373 0.840540 0.816024 0.051326
H127  H     H_    0.232395 0.159604 0.313706 0.061636
H128  H     H_    0.268325 0.659863 0.373171 0.051389
H129  H     H_    0.267275 0.339999 0.875652 0.061286
H130  H     H_    0.768325 0.159863 0.373171 0.051389
H131  H     H_    0.728192 0.047638 0.889846 0.074725
H132  H     H_    0.767275 0.839999 0.875651 0.061285
H133  H     H_    0.021380 0.229544 0.551716 0.109562
H134  H     H_    0.021120 0.770563 0.054184 0.109206
H135  H     H_    0.521380 0.729544 0.551718 0.109562
H136  H     H_    0.521120 0.270563 0.054185 0.109207
H137  H     H_    0.801342 0.217534 0.486123 0.072897
H138  H     H_    0.801350 0.782580 0.986512 0.068399
H139  H     H_    0.301342 0.717534 0.486123 0.072897
H140  H     H_    0.301351 0.282580 0.986512 0.068400
H141  H     H_    0.951336 0.326517 0.015953 0.091342
H142  H     H_    0.206578 0.406476 0.238207 -0.076659
H143  H     H_    0.951319 0.673533 0.515672 0.090097
H144  H     H_    0.451336 0.826517 0.015949 0.091344
H145  H     H_    0.451319 0.173533 0.515672 0.090096
H146  H     H_    0.980723 0.310970 0.214671 -0.061733
H147  H     H_    0.980504 0.688834 0.714978 -0.062764
H148  H     H_    0.480722 0.810971 0.214669 -0.061734
H149  H     H_    0.480504 0.188834 0.714978 -0.062764
H150  H     H_    0.947957 0.244931 0.938130 0.146988
H151  H     H_    0.947940 0.755222 0.439896 0.145683
H152  H     H_    0.447959 0.744930 0.938130 0.146988
O1    O     O_2   0.885810 0.435270 0.885040 -0.468149
O2    O     O_3   0.034007 0.699698 0.525110 -0.603996
O3    O     O_3   0.534060 0.800313 0.024073 -0.604828
O4    O     O_3   0.534007 0.199698 0.525110 -0.603996
O5    O     O_3   0.066460 0.522600 0.056690 -0.489205
O6    O     O_3   0.066460 0.477400 0.556690 -0.487530
O7    O     O_3   0.566460 0.022600 0.056690 -0.489205
O8    O     O_3   0.566460 0.977400 0.556690 -0.487530
O9    O     O_3   0.933490 0.477290 0.133000 -0.488717
O10   O     O_3   0.933490 0.522710 0.633000 -0.487141
O11   O     O_3   0.433490 0.977290 0.133000 -0.488717
O12   O     O_2   0.885810 0.564730 0.385040 -0.460280
O13   O     O_3   0.433490 0.022710 0.633000 -0.487141
O14   O     O_3   0.980190 0.395350 0.639000 -0.483267
O15   O     O_3   0.980190 0.604650 0.139000 -0.484658
O16   O     O_3   0.480190 0.895350 0.639000 -0.483267
O17   O     O_3   0.480190 0.104650 0.139000 -0.484658
O18   O     O_2   0.887292 0.357695 0.751690 -0.491476
O19   O     O_2   0.887116 0.642336 0.250998 -0.486995
O20   O     O_2   0.387292 0.857695 0.751690 -0.491477
O21   O     O_2   0.387116 0.142336 0.250998 -0.486995
O22   O     O_3   0.819678 0.485751 0.045271 -0.645513
O23   O     O_2   0.385810 0.935270 0.885040 -0.468149
O24   O     O_3   0.819219 0.514873 0.543452 -0.620301
O25   O     O_3   0.319678 0.985751 0.045271 -0.645513
O26   O     O_3   0.319219 0.014873 0.543452 -0.620302
O27   O     O_3   0.965251 0.300427 0.664818 -0.603840
O28   O     O_3   0.965219 0.699562 0.165900 -0.604661
O29   O     O_3   0.465251 0.800427 0.664818 -0.603840
O30   O     O_3   0.465219 0.199562 0.165900 -0.604661
O31   O     O_2   0.113920 0.434910 0.804950 -0.460128
O32   O     O_2   0.113920 0.565090 0.304950 -0.467822
O33   O     O_2   0.613920 0.934910 0.804950 -0.460128
O34   O     O_2   0.385810 0.064730 0.385040 -0.460280
O35   O     O_2   0.613920 0.065090 0.304950 -0.467822
O36   O     O_3   0.019410 0.395290 0.051170 -0.484471
O37   O     O_3   0.019410 0.604710 0.551170 -0.483093
O38   O     O_3   0.519410 0.895290 0.051170 -0.484472
O39   O     O_3   0.519410 0.104710 0.551170 -0.483093
O40   O     O_2   0.112294 0.357366 0.938651 -0.486762
O41   O     O_2   0.112106 0.642606 0.437912 -0.491229
O42   O     O_2   0.612294 0.857367 0.938651 -0.486761
O43   O     O_2   0.612106 0.142606 0.437912 -0.491229
O44   O     O_3   0.251073 0.445568 0.077780 -0.618299
O45   O     O_3   0.180688 0.484610 0.647150 -0.620354
O46   O     O_3   0.270545 0.537260 0.684261 -0.610327
O47   O     O_3   0.751074 0.945568 0.077782 -0.618299
O48   O     O_3   0.770545 0.037259 0.684262 -0.610326
O49   O     O_3   0.748681 0.554667 0.112416 -0.617762
O50   O     O_3   0.729244 0.462731 0.504466 -0.609854
O51   O     O_3   0.248681 0.054667 0.112414 -0.617762
O52   O     O_3   0.229244 0.962731 0.504466 -0.609855
O53   O     O_3   0.180197 0.514722 0.145422 -0.646502
O54   O     O_3   0.680688 0.984610 0.647150 -0.620355
O55   O     O_3   0.680197 0.014722 0.145422 -0.646502
O56   O     O_3   0.034060 0.300314 0.024073 -0.604827
P1    P     P_3+3 0.880180 0.450420 0.058010 0.968672
P2    P     P_3+3 0.069335 0.648502 0.572616 0.935934
P3    P     P_3+3 0.569332 0.851438 0.072760 0.936930
P4    P     P_3+3 0.569335 0.148502 0.572616 0.935935
P5    P     P_3+3 0.930128 0.648370 0.117068 0.936512
P6    P     P_3+3 0.930114 0.351695 0.617170 0.935502
P7    P     P_3+3 0.430128 0.148370 0.117068 0.936512
P8    P     P_3+3 0.430114 0.851694 0.617170 0.935501
P9    P     P_3+3 0.880180 0.549580 0.558010 0.992847
P10   P     P_3+3 0.380180 0.950420 0.058010 0.968672
P11   P     P_3+3 0.380180 0.049580 0.558010 0.992846
P12   P     P_3+3 0.119600 0.450040 0.631910 0.991616
P13   P     P_3+3 0.119600 0.549960 0.131910 0.967226
P14   P     P_3+3 0.619600 0.950040 0.631910 0.991616
P15   P     P_3+3 0.619600 0.049960 0.131910 0.967226
P16   P     P_3+3 0.069332 0.351438 0.072760 0.936930

loop_
_geom_bond_atom_site_label_1
_geom_bond_atom_site_label_2
_ccdc_geom_bond_type
C141  H150  S    
Ba2   O37   S    
C50   H33   S    
C59   H56   S    
Ba4   O8    S    
O22   P1    S    
C16   C114  A    
C86   C91   A    
C14   P9    S    
C9    C14   A    
C47   H27   S    
C57   C78   A    
O40   P16   D    
C137  C150  A    
C52   C53   S    
C56   C58   S    
C85   C90   A    
C65   H85   S    
C5    C9    A    
C3    C140  A    
Ba1   O1    S    
C13   C57   A    
C7    C11   A    
C148  C152  A    
C45   C47   S    
C21   H142  S    
C66   C70   A    
Ba2   O6    S    
C147  C151  A    
Ba1   O31   S    
C23   H13   S    
C13   H122  S    
C41   C104  A    
C44   H19   S    
C29   H66   S    
C72   C99   A    
C126  C130  A    
O23   P10   D    
C37   C76   S    
C58   H52   S    
O7    P15   S    
C11   C16   A    
C85   H94   S    
C48   H28   S    
C21   O44   S    
C82   C86   A    
C9    H116  S    
C89   C97   A    
C26   C30   S    
C152  H113  S    
C106  C146  A    
C78   C130  A    
C4    C146  A    
C109  C116  A    
C38   O30   S    
C62   H97   S    
O6    P12   S    
O53   P13   S    
O33   P14   D    
Ba4   P11   S    
O8    P14   S    
C18   H14   S    
C125  C129  A    
C33   H70   S    
C150  H111  S    
C29   H61   S    
C83   P3    S    
C34   O27   S    
C12   C111  A    
C39   C57   A    
C81   P16   S    
C5    C147  A    
C53   H41   S    
C28   O25   S    
C93   C141  S    
C10   C15   A    
C80   C84   A    
C34   H1    S    
C36   H77   S    
C47   H25   S    
C43   O44   S    
C56   H51   S    
C34   H75   S    
C120  H126  S    
C138  H138  S    
O24   P9    S    
Ba3   P14   S    
C141  H89   S    
C36   H65   S    
O43   P4    D    
C144  H6    S    
O45   P12   S    
C125  H129  S    
C19   O55   S    
O32   P13   D    
C139  H139  S    
C108  C113  A    
C73   C78   A    
C103  C134  A    
Ba2   O12   S    
O26   P11   S    
C16   P11   S    
C123  C127  A    
C62   C142  A    
C43   H18   S    
C117  H104  S    
O5    P13   S    
C121  C125  A    
C115  H102  S    
C19   H15   S    
Ba2   O15   S    
O27   P6    S    
C71   C97   A    
C69   C73   A    
C71   C75   A    
O4    P4    S    
C80   P2    S    
C98   C115  A    
C46   C77   A    
C45   H23   S    
C82   P4    S    
C32   H69   S    
C1    H84   S    
O42   P3    D    
C8    H115  S    
C126  H130  S    
C37   O29   S    
C68   C81   A    
O18   P6    D    
C128  C135  A    
C17   H12   S    
C22   O46   S    
C28   C32   S    
C140  H140  S    
C96   O4    S    
C94   C143  S    
C88   C92   A    
O19   P5    D    
C63   C68   A    
C114  C118  A    
C25   O48   S    
C135  C139  A    
C55   H48   S    
C66   H101  S    
C43   C44   S    
O10   P9    S    
C22   H2    S    
C70   C83   A    
C48   O47   S    
C92   P14   S    
C35   C41   A    
Ba1   O6    S    
C53   H43   S    
C40   C61   A    
O56   P16   S    
C94   H143  S    
C88   H96   S    
C101  C123  A    
C8    C12   A    
C20   H11   S    
C127  C132  A    
C6    C10   A    
O11   P10   S    
C102  C133  A    
C144  H91   S    
C17   O53   S    
C112  C116  A    
C39   C102  A    
Ba3   O7    S    
C49   H30   S    
C94   O2    S    
Ba3   O33   S    
C38   H79   S    
C4    C8    A    
C58   H54   S    
C28   H64   S    
C2    C46   A    
C23   O47   S    
C79   C132  A    
C107  C112  A    
C105  C110  A    
C96   H149  S    
C2    C63   A    
C89   P13   S    
C145  H92   S    
C111  C115  A    
C70   C74   A    
C29   O26   S    
C124  H128  S    
Ba3   Ba4   S    
C30   H67   S    
C40   C103  A    
C17   C21   S    
C50   C51   S    
C50   H34   S    
O3    P3    S    
C45   O46   S    
C93   O56   S    
C103  C107  A    
C3    H114  S    
C24   C66   A    
C59   H55   S    
C104  C135  A    
C36   O28   S    
C77   C129  A    
C56   O51   S    
C7    P7    S    
C86   H95   S    
C4    P6    S    
O15   P5    S    
C39   C98   A    
C18   O45   S    
C31   H68   S    
C56   H50   S    
Ba3   O13   S    
Ba2   P9    S    
C12   P1    S    
C99   C121  A    
C7    C149  A    
C59   C60   S    
C51   H38   S    
C87   H88   S    
C93   H146  S    
C1    C34   S    
C95   H148  S    
Ba4   P15   S    
C84   H93   S    
C44   H20   S    
Ba1   P12   S    
C92   C101  A    
Ba3   P10   S    
C60   H59   S    
O36   P16   S    
C130  C133  A    
C48   C49   S    
C105  C136  A    
C49   H32   S    
O30   P7    S    
C127  H132  S    
C122  C126  A    
C119  H106  S    
C38   H87   S    
C65   H134  S    
O2    P2    S    
Ba2   P13   S    
C96   H145  S    
C20   C25   S    
C27   H46   S    
C6    C148  A    
C42   C131  A    
C52   H40   S    
C74   C79   A    
C143  H90   S    
C32   H73   S    
C1    H80   S    
C108  C148  A    
O34   P11   D    
C151  H112  S    
O41   P2    D    
C55   H49   S    
O9    P1    S    
C25   H131  S    
C17   H8    S    
C83   C88   A    
O38   P3    S    
Ba4   O7    S    
Ba1   O14   S    
C27   H63   S    
C87   H136  S    
C31   H72   S    
C131  H127  S    
C142  H119  S    
C143  H5    S    
C14   C112  A    
C81   C85   A    
C54   C55   S    
O37   P2    S    
C29   C33   S    
C104  C108  A    
C1    H133  S    
C35   C75   A    
O39   P4    S    
C137  H137  S    
C62   C67   A    
C37   H76   S    
C31   O50   S    
Ba1   O10   S    
C121  H107  S    
Ba2   O5    S    
C93   H141  S    
Ba4   O35   S    
C94   H147  S    
C43   H17   S    
O16   P8    S    
Ba3   O38   S    
C52   O49   S    
C134  C138  A    
C27   C31   S    
C24   H123  S    
C45   H22   S    
O1    P1    D    
C133  C137  A    
C13   C64   A    
C90   P12   S    
C136  C140  A    
C15   P10   S    
C98   H124  S    
C118  H105  S    
C63   H99   S    
C96   C145  S    
C116  H103  S    
Ba3   O23   S    
C51   H36   S    
C24   C61   A    
O35   P15   D    
O29   P8    S    
Ba4   O17   S    
C76   H86   S    
C118  C131  A    
C55   H47   S    
O28   P5    S    
C15   C113  A    
C129  C136  A    
C18   C22   S    
C42   C105  A    
C73   C100  A    
C2    H121  S    
C106  C111  A    
C109  H125  S    
C23   H120  S    
C95   C144  S    
C123  H110  S    
Ba1   O5    S    
C53   H42   S    
C95   O3    S    
O55   P15   S    
C68   C72   A    
C47   H26   S    
C50   O48   S    
C119  C124  A    
C144  H152  S    
C54   H44   S    
C97   C119  A    
C74   C101  A    
C60   H58   S    
C38   C87   S    
C61   C79   A    
C20   O54   S    
C37   H78   S    
C91   P15   S    
C52   H39   S    
C143  H151  S    
C6    P8    S    
Ba1   Ba2   S    
C76   H82   S    
C113  C117  A    
C117  C120  A    
C95   H144  S    
C18   H9    S    
C54   H45   S    
C59   O52   S    
C25   H24   S    
C33   O52   S    
C145  H7    S    
C19   C23   S    
C138  C151  A    
C110  C149  A    
C22   H109  S    
C5    P5    S    
O54   P14   S    
C27   O24   S    
C20   H16   S    
C124  C128  A    
C44   H21   S    
C42   C46   A    
C41   C120  A    
C33   H74   S    
C36   C65   S    
C122  H108  S    
C132  C134  A    
O25   P10   S    
C141  H4    S    
C64   C69   A    
O12   P9    D    
O31   P12   D    
C11   H118  S    
C19   H10   S    
C64   H100  S    
Ba2   O32   S    
Ba3   O16   S    
C3    C149  A    
O13   P11   S    
C26   H35   S    
C145  H3    S    
Ba4   O11   S    
C110  C114  A    
C32   O51   S    
C28   H57   S    
C51   H37   S    
C35   C142  A    
C26   O22   S    
Ba4   O34   S    
C48   H29   S    
C91   C100  A    
C67   C80   A    
C102  C106  A    
C84   C89   A    
O17   P7    S    
O14   P6    S    
Ba1   P1    S    
C60   H60   S    
C107  C147  A    
C72   C77   A    
C40   C109  A    
C21   H98   S    
C76   H135  S    
C54   O50   S    
C90   C99   A    
O20   P8    D    
O21   P7    D    
Ba2   O9    S    
C26   H62   S    
Ba4   O39   S    
Ba3   O8    S    
Ba1   O36   S    
C30   H71   S    
C49   H31   S    
C67   C71   A    
C10   H117  S    
C139  C152  A    
C75   C128  A    
C58   H53   S    
C69   C82   A    
C30   O49   S    
C100  C122  A    
C146  C150  A    
C87   H83   S    
C65   H81   S    
