data_mof_unit_14252.cif
_audit_creation_date              2012-12-11T19:38:13-0500
_audit_creation_method            fapswitch 2.2
_symmetry_space_group_name_H-M    P1
_symmetry_Int_Tables_number       1
_space_group_crystal_system       triclinic
_cell_length_a                    8.208996
_cell_length_b                    15.060816
_cell_length_c                    22.838032
_cell_angle_alpha                 98.612412
_cell_angle_beta                  89.696399
_cell_angle_gamma                 98.91138
_cell_volume                      2757.5611326

loop_
_atom_site_label
_atom_site_type_symbol
_atom_type_description
_atom_site_fract_x
_atom_site_fract_y
_atom_site_fract_z
_atom_type_partial_charge
Ba1   Ba    Ba6+2 0.856850 0.543240 0.473390 1.676074
Ba2   Ba    Ba6+2 0.332990 0.456830 0.526620 1.659101
C1    C     C_3   0.711148 0.873463 0.341870 -0.286243
C2    C     C_R   0.079207 0.578099 0.944968 -0.025500
C3    C     C_R   0.035354 0.572799 0.884325 0.584814
C4    C     C_3   0.198383 0.792372 0.320599 0.315766
C5    C     C_R   0.996780 0.409754 0.872708 0.613705
C6    C     C_R   0.037779 0.412801 0.933160 -0.035592
C7    C     C_R   0.079010 0.497470 0.969484 -0.051269
C8    C     C_R   0.121846 0.662161 0.981916 -0.070196
C9    C     C_R   0.163260 0.666092 0.041765 -0.076919
C10   C     C_R   0.163074 0.586092 0.066845 -0.027726
C11   C     C_R   0.120422 0.501448 0.030553 -0.049641
C12   C     C_3   0.627020 0.777345 0.317577 0.697630
C13   C     C_R   0.038140 0.332790 0.958153 -0.071069
C14   C     C_R   0.077844 0.336692 0.018065 -0.071923
C15   C     C_R   0.119368 0.420738 0.055049 -0.026115
C16   C     C_3   0.144591 0.815130 0.261725 -0.268217
C17   C     C_R   0.161051 0.425840 0.115766 0.584731
C18   C     C_R   0.204834 0.588896 0.127297 0.591193
C19   C     C_2   0.796273 0.433107 0.766613 -0.072760
C20   C     C_3   0.761249 0.408934 0.700756 -0.035374
C21   C     C_1   0.005629 0.519489 0.686201 0.011200
C22   C     C_2   0.051356 0.528884 0.743143 -0.078557
C23   C     C_3   0.475265 0.325360 0.345163 0.290947
C24   C     C_2   0.941500 0.483856 0.786892 0.246836
C25   C     C_R   0.410300 0.556787 0.233796 -0.069898
C26   C     C_R   0.456248 0.562843 0.293537 -0.040339
C27   C     C_R   0.188181 0.481230 0.314112 0.041752
C28   C     C_3   0.231615 0.735496 0.601971 0.456324
C29   C     C_R   0.141556 0.474590 0.253955 -0.076798
C30   C     C_R   0.251207 0.513956 0.213358 0.220086
C31   C     C_2   0.866586 0.469552 0.664179 -0.276554
C32   C     C_R   0.848582 0.168898 0.539177 -0.020367
C33   C     C_R   0.782483 0.075519 0.534089 -0.036774
C34   C     C_3   0.456486 0.301048 0.278226 -0.360327
C35   C     C_R   0.647032 0.887908 0.521695 -0.054821
C36   C     C_R   0.791370 0.923230 0.555785 -0.046633
C37   C     C_R   0.860250 0.014572 0.560459 -0.099741
C38   C     C_R   0.580973 0.794006 0.513338 0.042535
C39   C     C_R   0.436104 0.763265 0.479520 -0.282612
C40   C     C_3   0.269786 0.838346 0.620010 0.213834
C41   C     C_R   0.614687 0.195717 0.483401 0.023348
C42   C     C_R   0.549048 0.102822 0.476048 -0.031263
C43   C     C_R   0.632009 0.042468 0.502148 0.016076
C44   C     C_R   0.402134 0.068804 0.443617 -0.045240
C45   C     C_3   0.990167 0.236757 0.681390 0.795168
C46   C     C_R   0.334723 0.978003 0.438502 -0.109492
C47   C     C_R   0.415087 0.916576 0.463315 -0.029779
C48   C     C_R   0.565607 0.948707 0.495247 0.016651
C49   C     C_R   0.348524 0.823906 0.457156 -0.046921
C50   C     C_R   0.759251 0.228051 0.516565 -0.284187
C51   C     C_3   0.965189 0.263489 0.397515 0.312011
C52   C     C_3   0.943132 0.160686 0.379907 -0.386388
C53   C     C_3   0.713022 0.658703 0.651236 0.311567
C54   C     C_3   0.726603 0.681787 0.718352 -0.341353
C55   C     C_3   0.901785 0.166201 0.716695 -0.205052
C56   C     C_3   0.481243 0.217762 0.662693 0.401481
C57   C     C_3   0.429910 0.131782 0.690057 -0.332735
C58   C     C_R   0.343518 0.527409 0.333333 -0.299749
H1    H     H_    0.536275 0.756683 0.351354 -0.081325
H2    H     H_    0.612336 0.600448 0.639796 0.074664
H3    H     H_    0.771549 0.873675 0.385315 0.112057
H4    H     H_    0.832594 0.736649 0.731248 0.152165
H5    H     H_    0.745307 0.620990 0.737948 0.066768
H6    H     H_    0.611452 0.704747 0.736172 0.129021
H7    H     H_    0.618599 0.920442 0.348268 0.060160
H8    H     H_    0.357310 0.343794 0.363141 0.016771
H9    H     H_    0.574971 0.384593 0.355355 0.059912
H10   H     H_    0.354346 0.243452 0.266665 0.138982
H11   H     H_    0.428329 0.360254 0.258757 0.069561
H12   H     H_    0.368539 0.854784 0.654887 0.050069
H13   H     H_    0.572818 0.281463 0.259119 0.129853
H14   H     H_    0.805934 0.898346 0.310782 0.104338
H15   H     H_    0.247987 0.814941 0.230296 0.162290
H16   H     H_    0.893468 0.266275 0.660507 -0.173700
H17   H     H_    0.992736 0.136221 0.740318 0.117541
H18   H     H_    0.820224 0.198363 0.749597 0.105361
H19   H     H_    0.824895 0.111161 0.686450 0.008716
H20   H     H_    0.617000 0.226022 0.657864 -0.112704
H21   H     H_    0.423063 0.208771 0.617983 0.083037
H22   H     H_    0.465495 0.072482 0.660592 0.047148
H23   H     H_    0.314049 0.870769 0.581123 -0.040127
H24   H     H_    0.294634 0.119760 0.696211 0.150192
H25   H     H_    0.223539 0.721028 0.314033 0.041553
H26   H     H_    0.492649 0.138287 0.733794 0.113342
H27   H     H_    0.076129 0.273379 0.035331 0.124215
H28   H     H_    0.007029 0.266548 0.931428 0.123191
H29   H     H_    0.195343 0.732309 0.068439 0.119111
H30   H     H_    0.498212 0.584406 0.203161 0.099893
H31   H     H_    0.123303 0.725454 0.964653 0.124646
H32   H     H_    0.170663 0.567246 0.758063 0.113352
H33   H     H_    0.714051 0.399454 0.796720 0.092802
H34   H     H_    0.845892 0.284016 0.410988 -0.002754
H35   H     H_    0.020993 0.438945 0.238742 0.106593
H36   H     H_    0.380221 0.531468 0.379208 0.078145
H37   H     H_    0.312057 0.840285 0.335791 -0.004220
H38   H     H_    0.838518 0.459355 0.617046 0.078591
H39   H     H_    0.854581 0.881114 0.579056 0.156210
H40   H     H_    0.973543 0.036820 0.585936 0.103624
H41   H     H_    0.219724 0.956981 0.413998 0.093368
H42   H     H_    0.335113 0.111596 0.422208 0.101099
H43   H     H_    0.384224 0.691943 0.474499 0.070556
H44   H     H_    0.808817 0.299699 0.521237 0.064382
H45   H     H_    0.054727 0.283112 0.435103 0.073908
H46   H     H_    0.038320 0.764365 0.242624 0.150025
H47   H     H_    0.107951 0.883857 0.268231 0.081748
H48   H     H_    0.346052 0.709726 0.587237 -0.131911
H49   H     H_    0.139796 0.719951 0.564974 0.046087
H50   H     H_    0.158890 0.938789 0.651061 0.295459
H51   H     H_    0.625795 0.790915 0.234198 0.310486
H52   H     H_    0.133322 0.352191 0.696095 0.313082
H53   H     H_    0.847199 0.138676 0.344384 0.128599
H54   H     H_    0.904975 0.126075 0.418382 0.062620
H55   H     H_    0.061362 0.139894 0.363606 0.119396
H56   H     H_    0.830731 0.639683 0.634035 0.007214
N1    N     N_R   0.993173 0.489171 0.848839 -0.427946
N2    N     N_R   0.203274 0.509364 0.151341 -0.427208
O1    O     O_2   0.889550 0.449610 0.359390 -0.457578
O2    O     O_2   0.189430 0.175776 0.531605 -0.488991
O3    O     O_3   0.093740 0.194487 0.640469 -0.630375
O4    O     O_3   0.130110 0.450560 0.430470 -0.497816
O5    O     O_3   0.576420 0.610430 0.532020 -0.490898
O6    O     O_2   0.341600 0.276000 0.466340 -0.464596
O7    O     O_3   0.514443 0.250171 0.368563 -0.644495
O8    O     O_2   0.450860 0.469942 0.708077 -0.485488
O9    O     O_3   0.430666 0.292520 0.698930 -0.549952
O10   O     O_2   0.032488 0.642655 0.863448 -0.591877
O11   O     O_2   0.965074 0.336025 0.841175 -0.569355
O12   O     O_3   0.679996 0.735043 0.627963 -0.631493
O13   O     O_2   0.161959 0.355851 0.136711 -0.595120
O14   O     O_2   0.242005 0.662372 0.158629 -0.601602
O15   O     O_3   0.674110 0.616450 0.398780 -0.471620
O16   O     O_2   0.792841 0.551082 0.295373 -0.478985
O17   O     O_3   0.020817 0.304052 0.348487 -0.631536
O18   O     O_3   0.747395 0.719802 0.307133 -0.577802
O19   O     O_2   0.848090 0.724020 0.533700 -0.453892
O20   O     O_3   0.092920 0.663620 0.428750 -0.468856
O21   O     O_2   0.015586 0.823165 0.473314 -0.470453
O22   O     O_3   0.127589 0.871819 0.641577 -0.712619
O23   O     O_3   0.072261 0.803306 0.361278 -0.578162
O24   O     O_3   0.541940 0.777790 0.264512 -0.769963
O25   O     O_3   0.086154 0.305325 0.720295 -0.667118
O26   O     O_2   0.300150 0.550420 0.640640 -0.460189
O27   O     O_3   0.059600 0.549520 0.569540 -0.502288
O28   O     O_3   0.515600 0.383630 0.601220 -0.481185
O29   O     O_3   0.170982 0.696083 0.650981 -0.617488
O30   O     O_3   0.613290 0.389640 0.467990 -0.480630
O31   O     O_3   0.096790 0.336450 0.571260 -0.483488
P1    P     P_3+3 0.056000 0.422550 0.367550 0.993758
P2    P     P_3+3 0.670460 0.710570 0.550500 0.992991
P3    P     P_3+3 0.135501 0.780216 0.429602 0.962343
P4    P     P_3+3 0.133720 0.577520 0.632450 0.992572
P5    P     P_3+3 0.056817 0.218229 0.569541 0.932297
P6    P     P_3+3 0.666180 0.611155 0.321862 0.997958
P7    P     P_3+3 0.524362 0.276480 0.445869 0.937660
P8    P     P_3+3 0.539286 0.391969 0.678069 0.967617

loop_
_geom_bond_atom_site_label_1
_geom_bond_atom_site_label_2
_ccdc_geom_bond_type
C53   C54   S    
C12   O24   S    
C38   C39   A    
C16   H15   S    
O19   P2    D    
Ba2   O26   S    
C55   H19   S    
Ba1   O27   S    
C16   H46   S    
C51   O17   S    
C24   N1    S    
C19   C24   D    
C18   N2    Am   
C37   H40   S    
C5    C6    A    
O28   P8    S    
C51   C52   S    
Ba2   O27   S    
C44   H42   S    
C4    H25   S    
C19   H33   S    
O4    P1    S    
H52   O25   S    
C22   C24   S    
C45   H16   S    
C32   C33   A    
C35   C38   A    
C36   C37   A    
C29   H35   S    
C41   C50   A    
C45   O3    S    
C53   H56   S    
Ba2   O30   S    
C13   C14   A    
C52   H53   S    
C45   O25   S    
O21   P3    D    
C25   H30   S    
Ba1   Ba2   S    
Ba1   O1    S    
O26   P4    D    
C1    H14   S    
C7    C11   A    
Ba1   O4    S    
C23   O7    S    
H51   O24   S    
C27   P1    S    
C16   H47   S    
C31   H38   S    
C17   N2    Am   
C42   C44   A    
C14   C15   A    
C21   C31   D    
C14   H27   S    
C21   C22   D    
C57   H22   S    
O9    P8    S    
O7    P7    S    
C56   H20   S    
O27   P4    S    
O1    P1    D    
Ba2   O4    S    
C51   H34   S    
C56   O9    S    
C19   C20   S    
C23   H8    S    
C18   O14   D    
Ba1   O15   S    
C22   H32   S    
C40   H12   S    
C34   H10   S    
C44   C46   A    
C32   P5    S    
C17   O13   D    
C4    C16   S    
O5    P2    S    
O3    P5    S    
C28   H49   S    
C40   O22   S    
C4    H37   S    
C55   H17   S    
C28   O29   S    
C57   H24   S    
C34   H13   S    
C56   H21   S    
O18   P6    S    
C6    C7    A    
C47   C49   A    
C56   C57   S    
Ba2   O5    S    
C12   H1    S    
C39   H43   S    
C38   P2    S    
C3    N1    Am   
C33   C37   A    
O31   P5    S    
Ba1   O5    S    
C35   C36   A    
C45   C55   S    
C9    H29   S    
O16   P6    D    
C27   C58   A    
C53   O12   S    
C52   H55   S    
C10   C18   A    
O2    P5    D    
Ba1   P1    S    
C4    O23   S    
C1    C12   S    
C58   H36   S    
C53   H2    S    
C46   C47   A    
C49   P3    S    
Ba2   P4    S    
Ba2   O6    S    
O6    P7    D    
C41   C42   A    
C23   H9    S    
C2    C8    A    
C41   P7    S    
C33   C43   A    
O12   P2    S    
Ba1   O19   S    
C42   C43   A    
O8    P8    D    
C20   C31   S    
C50   H44   S    
C28   H48   S    
C25   C30   A    
O15   P6    S    
C55   H18   S    
C29   C30   A    
C1    H7    S    
C40   H23   S    
C30   N2    S    
C36   H39   S    
C8    H31   S    
C9    C10   A    
C34   H11   S    
C20   P8    S    
C1    H3    S    
C6    C13   A    
O17   P1    S    
C32   C50   A    
C5    N1    Am   
C11   C15   A    
O20   P3    S    
C21   P4    S    
C57   H26   S    
C27   C29   A    
C26   P6    S    
C35   C48   A    
C54   H4    S    
C12   O18   S    
C43   C48   A    
Ba2   O31   S    
C54   H6    S    
C46   H41   S    
C52   H54   S    
C3    O10   D    
H50   O22   S    
C15   C17   A    
Ba1   P2    S    
Ba2   O28   S    
O29   P4    S    
C5    O11   D    
C8    C9    A    
C23   C34   S    
C51   H45   S    
C2    C3    A    
C26   C58   A    
C10   C11   A    
C47   C48   A    
C25   C26   A    
C28   C40   S    
Ba1   O30   S    
O30   P7    S    
C2    C7    A    
C39   C49   A    
Ba1   O20   S    
C54   H5    S    
O23   P3    S    
C13   H28   S    
