data_mof_unit_31380.cif
_audit_creation_date              2012-10-26T20:40:16-0400
_audit_creation_method            fapswitch 2.2
_symmetry_space_group_name_H-M    P1
_symmetry_Int_Tables_number       1
_space_group_crystal_system       triclinic
_cell_length_a                    15.075935
_cell_length_b                    10.861534
_cell_length_c                    9.568249
_cell_angle_alpha                 90.710197
_cell_angle_beta                  90.06553
_cell_angle_gamma                 92.81173
_cell_volume                      1564.77069349

loop_
_atom_site_label
_atom_site_type_symbol
_atom_type_description
_atom_site_fract_x
_atom_site_fract_y
_atom_site_fract_z
_atom_type_partial_charge
C1    C     C_R   0.507533 0.263328 0.499824 0.550188
C2    C     C_R   0.184773 0.484697 0.373276 -0.137091
C3    C     C_R   0.231636 0.498344 0.499740 -0.008337
C4    C     C_R   0.328619 0.499307 0.499930 0.556027
C5    C     C_R   0.185625 0.511039 0.626044 -0.137121
C6    C     C_R   0.570119 0.127350 0.747737 -0.096127
C7    C     C_R   0.565765 0.071240 0.877714 -0.133603
C8    C     C_R   0.522945 0.955931 0.890362 -0.128092
C9    C     C_R   0.492932 0.891460 0.771126 -0.101381
C10   C     C_R   0.506002 0.941567 0.635830 0.024062
C11   C     C_R   0.531834 0.067702 0.627927 0.026711
C12   C     C_R   0.907528 0.512577 0.626252 0.009321
C13   C     C_R   0.516798 0.129958 0.501313 -0.009897
C14   C     C_R   0.498427 0.062425 0.378456 -0.165075
C15   C     C_R   0.491211 0.935208 0.381068 -0.164202
C16   C     C_R   0.496163 0.737872 0.502010 0.537904
C17   C     C_R   0.494300 0.872854 0.508211 -0.008007
C18   C     C_R   0.619894 0.662506 0.146553 -0.094345
C19   C     C_R   0.679231 0.740505 0.075131 -0.170370
C20   C     C_R   0.679355 0.740047 0.931147 -0.167452
C21   C     C_R   0.619889 0.661942 0.857792 -0.098331
C22   C     C_R   0.558982 0.579690 0.926227 0.143849
C23   C     C_R   0.952581 0.466657 0.244921 0.267060
C24   C     C_R   0.558961 0.579789 0.076000 0.152210
C25   C     C_R   0.444169 0.423781 0.072824 -0.013048
C26   C     C_R   0.444182 0.423832 0.924714 -0.011240
C27   C     C_R   0.671332 0.500824 0.500031 0.532318
C28   C     C_R   0.815235 0.513366 0.625897 -0.143821
C29   C     C_R   0.768171 0.501018 0.499798 -0.029159
C30   C     C_R   0.813659 0.487979 0.373163 -0.136520
C31   C     C_R   0.906116 0.483812 0.371363 0.009814
C32   C     C_R   0.953241 0.497387 0.498884 0.020256
C33   C     C_3   0.875136 0.333782 0.095650 -0.007956
C34   C     C_R   0.045349 0.469546 0.246193 -0.111868
C35   C     C_3   0.942371 0.258616 0.015672 -0.269138
C36   C     C_3   0.902858 0.130762 0.976398 -0.478172
C37   C     C_R   0.092279 0.483518 0.372236 -0.037087
C38   C     C_R   0.046225 0.496871 0.499241 0.047392
C39   C     C_R   0.093206 0.510937 0.626646 0.019954
C40   C     C_R   0.047108 0.525575 0.752377 -0.137711
C41   C     C_R   0.954768 0.526905 0.752025 -0.139135
Cu1   Cu    Cu3+1 0.499990 0.499990 0.640660 0.906420
Cu2   Cu    Cu3+1 0.500010 0.500010 0.359340 0.916540
H1    H     H_    0.780217 0.524257 0.723879 0.131986
H2    H     H_    0.725052 0.801894 0.875561 0.125646
H3    H     H_    0.623910 0.671512 0.747788 0.187869
H4    H     H_    0.776715 0.479863 0.276070 0.165235
H5    H     H_    0.398500 0.361423 0.868230 0.121525
H6    H     H_    0.080594 0.460263 0.148213 0.110809
H7    H     H_    0.220138 0.474416 0.275523 0.122432
H8    H     H_    0.221625 0.521986 0.723945 0.122632
H9    H     H_    0.082444 0.536476 0.850812 0.113172
H10   H     H_    0.920224 0.539207 0.850020 0.163654
H11   H     H_    0.489019 0.107874 0.279747 0.133870
H12   H     H_    0.604702 0.216723 0.742156 0.143720
H13   H     H_    0.814016 0.337776 0.031165 0.150977
H14   H     H_    0.854921 0.285789 0.193980 0.121961
H15   H     H_    0.962895 0.307498 0.918832 0.178074
H16   H     H_    0.002248 0.248257 0.081435 0.154676
H17   H     H_    0.882900 0.079285 0.071858 0.147553
H18   H     H_    0.953131 0.078347 0.919291 0.152328
H19   H     H_    0.843946 0.138440 0.907747 0.147311
H20   H     H_    0.593019 0.119006 0.969256 0.108607
H21   H     H_    0.514417 0.915138 0.992462 0.116346
H22   H     H_    0.456438 0.805402 0.789095 0.153499
H23   H     H_    0.481114 0.885713 0.282878 0.136583
H24   H     H_    0.398468 0.361375 0.127360 0.111820
H25   H     H_    0.624918 0.671667 0.256778 0.185689
H26   H     H_    0.725073 0.802424 0.132245 0.122366
N1    N     N_R   0.500860 0.501210 0.147910 -0.244344
N2    N     N_R   0.500890 0.501290 0.852040 -0.250474
O1    O     O_R   0.499990 0.319640 0.618810 -0.506334
O2    O     O_R   0.500000 0.319660 0.381240 -0.503647
O3    O     O_R   0.370250 0.499960 0.618800 -0.504531
O4    O     O_R   0.370260 0.499980 0.381230 -0.501506
O5    O     O_R   0.500000 0.680340 0.618760 -0.534763
O6    O     O_R   0.500010 0.680360 0.381190 -0.521610
O7    O     O_R   0.629740 0.500020 0.618770 -0.527790
O8    O     O_R   0.629750 0.500040 0.381200 -0.526239
O9    O     O_3   0.908752 0.456576 0.117759 -0.594842

loop_
_geom_bond_atom_site_label_1
_geom_bond_atom_site_label_2
_ccdc_geom_bond_type
Cu2   O2    S    
C27   C29   S    
C34   C37   A    
C19   C20   A    
C25   H24   S    
C6    H12   S    
C27   O7    A    
C24   N1    A    
C7    C8    A    
C37   C38   A    
C12   C28   A    
C35   H15   S    
C18   C24   A    
C28   C29   A    
C18   C19   A    
C27   O8    A    
C38   C39   A    
C10   C17   A    
Cu2   O8    S    
C35   H16   S    
C16   O6    A    
C4    O4    A    
C2    H7    S    
C35   C36   S    
C8    C9    A    
C32   C38   A    
C23   O9    S    
C29   C30   A    
C9    C10   A    
C4    O3    A    
C20   H2    S    
C26   H5    S    
C33   H13   S    
C13   C14   A    
C12   C32   A    
C26   N2    A    
C36   H19   S    
Cu2   O4    S    
Cu1   O3    S    
C1    O1    A    
C30   H4    S    
C39   C40   A    
C16   C17   S    
C36   H17   S    
C25   C26   A    
C40   H9    S    
C15   H23   S    
C28   H1    S    
C23   C31   A    
C12   C41   A    
C31   C32   A    
C23   C34   A    
C41   H10   S    
Cu1   O1    S    
C7    H20   S    
C8    H21   S    
C40   C41   A    
C14   H11   S    
Cu1   O7    S    
Cu2   N1    S    
C5    C39   A    
C22   C24   A    
C19   H26   S    
C1    C13   S    
Cu1   Cu2   S    
C3    C4    S    
C22   N2    A    
C6    C11   A    
C21   H3    S    
C15   C17   A    
C34   H6    S    
C33   H14   S    
C16   O5    A    
C3    C5    A    
C33   O9    S    
C6    C7    A    
Cu2   O6    S    
Cu1   O5    S    
C1    O2    A    
C2    C3    A    
C11   C13   A    
C2    C37   A    
C30   C31   A    
Cu1   N2    S    
C33   C35   S    
C9    H22   S    
C10   C11   A    
C20   C21   A    
C14   C15   A    
C5    H8    S    
C25   N1    A    
C21   C22   A    
C18   H25   S    
C36   H18   S    
