data_mof_unit_28969.cif
_audit_creation_date              2012-12-10T18:00:17-0500
_audit_creation_method            fapswitch 2.2
_symmetry_space_group_name_H-M    P1
_symmetry_Int_Tables_number       1
_space_group_crystal_system       triclinic
_cell_length_a                    10.825417
_cell_length_b                    9.517318
_cell_length_c                    10.702305
_cell_angle_alpha                 90.749048
_cell_angle_beta                  93.280063
_cell_angle_gamma                 90.268177
_cell_volume                      1100.7303787

loop_
_atom_site_label
_atom_site_type_symbol
_atom_type_description
_atom_site_fract_x
_atom_site_fract_y
_atom_site_fract_z
_atom_type_partial_charge
C1    C     C_R   0.871525 0.501378 0.500936 -0.207032
C2    C     C_R   0.128473 0.498616 0.499073 -0.207069
C3    C     C_R   0.262416 0.499599 0.497574 0.770296
C4    C     C_R   0.737583 0.500400 0.502425 0.770190
C5    C     C_R   0.496656 0.499060 0.259385 0.841854
C6    C     C_R   0.503342 0.500941 0.740614 0.841760
C7    C     C_3   0.389505 0.547037 0.032819 -0.093071
C8    C     C_3   0.610482 0.452974 0.967180 -0.093073
C9    C     C_3   0.483225 0.632101 0.960929 -0.068667
C10   C     C_3   0.516762 0.367907 0.039068 -0.068572
C11   C     C_3   0.409481 0.416748 0.948446 0.082796
C12   C     C_3   0.590503 0.583260 0.051552 0.082642
C13   C     C_3   0.503502 0.502142 0.876977 -0.111266
C14   C     C_3   0.496486 0.497864 0.123022 -0.111219
C15   C     C_R   0.419077 0.072834 0.422110 0.032524
C16   C     C_R   0.580920 0.927165 0.577891 0.032534
C17   C     C_R   0.580831 0.076012 0.578022 0.011457
C18   C     C_R   0.419168 0.923988 0.421978 0.011456
C19   C     C_R   0.057678 0.429799 0.401268 -0.005979
C20   C     C_R   0.942320 0.570178 0.598751 -0.005971
C21   C     C_R   0.927950 0.427919 0.404188 -0.025764
C22   C     C_R   0.072047 0.572093 0.595808 -0.025789
Cu1   Cu    Cu3+1 0.500000 0.640660 0.500000 0.982331
Cu2   Cu    Cu3+1 0.500000 0.359340 0.500000 0.982334
H1    H     H_    0.354195 0.127648 0.359835 0.143960
H2    H     H_    0.645798 0.872349 0.640169 0.144004
H3    H     H_    0.645515 0.133401 0.640589 0.165907
H4    H     H_    0.354484 0.866598 0.359412 0.165879
N1    N     N_R   0.500000 0.852070 0.500000 -0.182797
N2    N     N_R   0.500000 0.147930 0.500000 -0.182795
O1    O     O_R   0.319640 0.618740 0.499990 -0.559419
O2    O     O_R   0.680360 0.381260 0.500010 -0.559429
O3    O     O_R   0.680360 0.618740 0.500010 -0.608143
O4    O     O_R   0.319640 0.381260 0.499990 -0.608174
O5    O     O_R   0.499970 0.618770 0.316850 -0.569461
O6    O     O_R   0.500030 0.381230 0.683150 -0.569435
O7    O     O_R   0.500030 0.618770 0.683150 -0.581003
O8    O     O_R   0.499970 0.381230 0.316850 -0.580972
C23   C     C_3   0.313908 0.319026 0.879631 -0.405055
C24   C     C_3   0.207981 0.278313 0.959491 -0.655424
H5    H     H_    0.242725 0.247746 0.054668 0.288276
H6    H     H_    0.143131 0.367607 0.965480 0.266603
H7    H     H_    0.156184 0.188204 0.914804 0.248131
H8    H     H_    0.274382 0.371316 0.794413 0.180298
H9    H     H_    0.361795 0.222423 0.849419 0.241322
C25   C     C_3   0.686087 0.680990 0.120342 -0.405048
C26   C     C_3   0.791948 0.721771 0.040422 -0.655359
H10   H     H_    0.856967 0.632622 0.034621 0.266549
H11   H     H_    0.757164 0.752004 0.945184 0.288259
H12   H     H_    0.843562 0.812119 0.084914 0.248162
H13   H     H_    0.638188 0.777562 0.150609 0.241318
H14   H     H_    0.725673 0.628685 0.205521 0.180293
C27   C     C_2   0.267342 0.604945 0.067418 0.364033
H15   H     H_    0.196367 0.626123 0.994554 0.111875
O9    O     O_2   0.247768 0.630816 0.176390 -0.541285
C28   C     C_2   0.732664 0.395100 0.932597 0.363871
H16   H     H_    0.803668 0.374043 0.005460 0.111987
O10   O     O_2   0.752220 0.369115 0.823638 -0.541420
C29   C     C_2   0.460517 0.779764 0.917865 0.414877
H17   H     H_    0.368818 0.824638 0.920767 0.086614
O11   O     O_2   0.543681 0.848909 0.876582 -0.560548
C30   C     C_2   0.539469 0.220237 0.082118 0.414857
H18   H     H_    0.631157 0.175346 0.079186 0.086682
O12   O     O_2   0.456308 0.151098 0.123409 -0.560576
C31   C     C_2   0.119084 0.373283 0.290149 0.479663
H19   H     H_    0.210418 0.327435 0.299016 0.067040
O13   O     O_2   0.069538 0.383461 0.185419 -0.553031
C32   C     C_2   0.880911 0.626631 0.709897 0.479369
H20   H     H_    0.789466 0.672140 0.701097 0.067162
O14   O     O_2   0.930579 0.616732 0.814597 -0.553112
C33   C     C_2   0.849931 0.347176 0.308276 0.472853
H21   H     H_    0.762469 0.389227 0.271680 0.004125
O15   O     O_2   0.880281 0.230232 0.273558 -0.528745
C34   C     C_2   0.150062 0.652885 0.691684 0.473167
H22   H     H_    0.237498 0.610827 0.728333 0.004019
O16   O     O_2   0.119739 0.769876 0.726304 -0.528622

loop_
_geom_bond_atom_site_label_1
_geom_bond_atom_site_label_2
_ccdc_geom_bond_type
C15   C18   A    
C1    C21   A    
C8    C13   S    
C8    C28   S    
C26   H11   S    
C27   H15   S    
C7    C11   S    
Cu2   O6    S    
C34   O16   D    
C21   C33   S    
Cu1   N1    S    
C19   C21   A    
C15   H1    S    
C25   H14   S    
C28   H16   S    
C9    C13   S    
C30   O12   D    
C25   C26   S    
C24   H7    S    
C6    O6    A    
C32   H20   S    
C31   O13   D    
C2    C22   A    
Cu2   O8    S    
Cu1   Cu2   S    
C7    C14   S    
C23   H9    S    
C24   H6    S    
C29   H17   S    
C5    O8    A    
C17   N2    A    
C10   C30   S    
C26   H12   S    
C27   O9    D    
C16   H2    S    
C29   O11   D    
C34   H22   S    
C17   H3    S    
C18   H4    S    
C12   C25   S    
C10   C14   S    
C23   C24   S    
C33   O15   D    
C16   C17   A    
C3    O4    A    
Cu1   O3    S    
C16   N1    A    
Cu1   O7    S    
C25   H13   S    
Cu2   O4    S    
C9    C29   S    
Cu1   O1    S    
C11   C23   S    
Cu2   O2    S    
C30   H18   S    
C26   H10   S    
C8    C12   S    
C6    O7    A    
C18   N1    A    
C3    O1    A    
C5    C14   S    
C4    O2    A    
C8    C10   S    
C24   H5    S    
C12   C14   S    
Cu1   O5    S    
C7    C27   S    
C15   N2    A    
C7    C9    S    
C4    O3    A    
C1    C20   A    
C2    C19   A    
C20   C32   S    
C20   C22   A    
C23   H8    S    
C1    C4    S    
C2    C3    S    
C33   H21   S    
C6    C13   S    
C11   C13   S    
C5    O5    A    
C28   O10   D    
C19   C31   S    
C9    C12   S    
Cu2   N2    S    
C10   C11   S    
C32   O14   D    
C31   H19   S    
C22   C34   S    
