data_mof_unit_65662.cif
_audit_creation_date              2012-12-10T20:11:13-0500
_audit_creation_method            fapswitch 2.2
_symmetry_space_group_name_H-M    P1
_symmetry_Int_Tables_number       1
_space_group_crystal_system       triclinic
_cell_length_a                    41.568532
_cell_length_b                    35.54329
_cell_length_c                    21.686376
_cell_angle_alpha                 90.000069
_cell_angle_beta                  121.373385
_cell_angle_gamma                 90.0
_cell_volume                      27356.5763876

loop_
_atom_site_label
_atom_site_type_symbol
_atom_type_description
_atom_site_fract_x
_atom_site_fract_y
_atom_site_fract_z
_atom_type_partial_charge
C1    C     C_R   0.426572 0.500012 0.925337 0.924301
C2    C     C_R   0.573427 0.500012 0.074663 0.924299
C3    C     C_R   0.926572 0.000012 0.925337 0.924301
C4    C     C_R   0.073428 0.000012 0.074663 0.924299
C5    C     C_2   0.503674 0.497961 0.817469 0.192718
C6    C     C_2   0.496326 0.497961 0.182531 0.192717
C7    C     C_2   0.003674 0.997961 0.817469 0.192717
C8    C     C_2   0.996326 0.997961 0.182531 0.192716
C9    C     C_R   0.172928 0.483079 0.723687 0.521173
C10   C     C_R   0.827072 0.483079 0.276313 0.521173
C11   C     C_R   0.672928 0.983079 0.723687 0.521173
C12   C     C_R   0.327072 0.983079 0.276313 0.521173
C13   C     C_R   0.133670 0.484551 0.683980 -0.376454
C14   C     C_R   0.866330 0.484551 0.316020 -0.376454
C15   C     C_R   0.633670 0.984551 0.683980 -0.376455
C16   C     C_R   0.366330 0.984551 0.316020 -0.376456
C17   C     C_R   0.114513 0.500367 0.614590 -0.227866
C18   C     C_R   0.885487 0.500367 0.385410 -0.227865
C19   C     C_R   0.614513 0.000367 0.614590 -0.227866
C20   C     C_R   0.385487 0.000367 0.385410 -0.227865
C21   C     C_R   0.134958 0.516379 0.585788 0.485962
C22   C     C_R   0.865042 0.516380 0.414212 0.485962
C23   C     C_R   0.634958 0.016380 0.585788 0.485963
C24   C     C_R   0.365042 0.016380 0.414212 0.485962
C25   C     C_R   0.174189 0.514817 0.625569 -0.339142
C26   C     C_R   0.825811 0.514817 0.374431 -0.339142
C27   C     C_R   0.674189 0.014816 0.625569 -0.339142
C28   C     C_R   0.325811 0.014817 0.374431 -0.339142
C29   C     C_R   0.193002 0.498574 0.694207 -0.047406
C30   C     C_R   0.806998 0.498575 0.305793 -0.047406
C31   C     C_R   0.693002 0.998574 0.694207 -0.047406
C32   C     C_R   0.306998 0.998575 0.305793 -0.047406
C33   C     C_1   0.233007 0.498021 0.733702 0.022996
C34   C     C_1   0.766993 0.498021 0.266298 0.022997
C35   C     C_1   0.733007 0.998021 0.733702 0.022996
C36   C     C_1   0.266993 0.998021 0.266298 0.022997
C37   C     C_1   0.266608 0.497973 0.765395 0.088415
C38   C     C_1   0.733392 0.497973 0.234605 0.088416
C39   C     C_1   0.766608 0.997973 0.765395 0.088415
C40   C     C_1   0.233392 0.997973 0.234605 0.088416
C41   C     C_R   0.326710 0.466352 0.840297 0.527668
C42   C     C_R   0.673290 0.466353 0.159702 0.527668
C43   C     C_R   0.826710 0.966352 0.840297 0.527666
C44   C     C_R   0.173290 0.966353 0.159702 0.527668
C45   C     C_R   0.500244 0.499737 0.880882 0.805148
C46   C     C_R   0.499756 0.499737 0.119118 0.805148
C47   C     C_R   0.000244 0.999737 0.880882 0.805148
C48   C     C_R   0.999756 0.999737 0.119118 0.805147
C49   C     C_R   0.365966 0.467042 0.878373 -0.381465
C50   C     C_R   0.634033 0.467042 0.121626 -0.381466
C51   C     C_R   0.865966 0.967042 0.878373 -0.381464
C52   C     C_R   0.134033 0.967042 0.121626 -0.381466
C53   C     C_R   0.385322 0.499857 0.880957 -0.322756
C54   C     C_R   0.614677 0.499857 0.119043 -0.322755
C55   C     C_R   0.885323 0.999857 0.880957 -0.322756
C56   C     C_R   0.114677 0.999857 0.119043 -0.322757
C57   C     C_R   0.364999 0.531827 0.840656 0.389000
C58   C     C_R   0.635001 0.531827 0.159344 0.389001
C59   C     C_R   0.864999 0.031827 0.840656 0.389000
C60   C     C_R   0.135001 0.031827 0.159344 0.389000
C61   C     C_R   0.325539 0.531004 0.800850 0.351142
C62   C     C_R   0.674461 0.531004 0.199150 0.351142
C63   C     C_R   0.825539 0.031004 0.800850 0.351143
C64   C     C_R   0.174461 0.031004 0.199150 0.351144
C65   C     C_R   0.306644 0.498362 0.801913 -0.192443
C66   C     C_R   0.693356 0.498362 0.198087 -0.192444
C67   C     C_R   0.806644 0.998362 0.801913 -0.192444
C68   C     C_R   0.193356 0.998362 0.198087 -0.192444
C69   C     C_R   0.500000 0.694019 0.500000 -0.283085
C70   C     C_R   0.000000 0.194019 0.500000 -0.283083
C71   C     C_R   0.534107 0.635321 0.524753 0.337745
C72   C     C_R   0.465893 0.635321 0.475247 0.337745
C73   C     C_R   0.034108 0.135321 0.524755 0.337743
C74   C     C_R   0.965892 0.135321 0.475246 0.337745
C75   C     C_1   0.000000 0.267570 0.500000 0.126034
C76   C     C_1   0.500000 0.767570 0.500000 0.126039
C77   C     C_R   0.000000 0.307529 0.500000 -0.271310
C78   C     C_R   0.500000 0.807529 0.500000 -0.271308
C79   C     C_R   0.500000 0.426553 0.500000 0.941934
C80   C     C_R   1.000000 0.926553 0.500000 0.941934
C81   C     C_R   0.534105 0.674679 0.526223 0.362701
C82   C     C_R   0.465895 0.674679 0.473778 0.362700
C83   C     C_R   0.034105 0.174679 0.526225 0.362700
C84   C     C_R   0.965895 0.174679 0.473776 0.362698
C85   C     C_R   0.499962 0.504207 0.618754 0.866250
C86   C     C_R   0.500038 0.504207 0.381246 0.866252
C87   C     C_R   0.999962 0.004207 0.618754 0.866251
C88   C     C_R   0.000038 0.004207 0.381246 0.866253
C89   C     C_R   0.500000 0.573579 0.500000 0.897012
C90   C     C_R   0.000000 0.073579 0.500000 0.897012
C91   C     C_R   1.000000 0.426821 0.500000 0.998394
C92   C     C_R   0.500000 0.926821 0.500000 0.998397
C93   C     C_R   0.073390 0.500268 0.573351 0.908641
C94   C     C_R   0.926610 0.500268 0.426649 0.908642
C95   C     C_R   0.573390 0.000268 0.573351 0.908642
C96   C     C_R   0.426610 0.000268 0.426649 0.908643
C97   C     C_R   0.000000 0.573532 0.500000 0.848350
C98   C     C_R   0.500000 0.073532 0.500000 0.848350
C99   C     C_R   0.001793 0.673687 0.445921 -0.161461
C100  C     C_R   0.998207 0.673687 0.554079 -0.161461
C101  C     C_R   0.501793 0.173687 0.445921 -0.161461
C102  C     C_R   0.498207 0.173687 0.554079 -0.161462
C103  C     C_R   0.001765 0.634550 0.445815 -0.206431
C104  C     C_R   0.998235 0.634550 0.554185 -0.206432
C105  C     C_R   0.501765 0.134550 0.445815 -0.206432
C106  C     C_R   0.498235 0.134550 0.554185 -0.206432
C107  C     C_R   1.000000 0.614703 0.500000 -0.035126
C108  C     C_R   0.500000 0.114703 0.500000 -0.035126
C109  C     C_R   1.000000 0.693112 0.500000 0.149666
C110  C     C_R   0.500000 0.193112 0.500000 0.149666
C111  C     C_1   1.000000 0.733081 0.500000 -0.056491
C112  C     C_1   0.500000 0.233081 0.500000 -0.056491
C113  C     C_R   1.000000 0.385866 0.500000 -0.430674
C114  C     C_R   0.500000 0.885866 0.500000 -0.430672
C115  C     C_1   0.500000 0.266687 0.500000 0.077548
C116  C     C_1   1.000000 0.766687 0.500000 0.077548
C117  C     C_R   0.465653 0.326256 0.464525 0.441196
C118  C     C_R   0.534346 0.326256 0.535475 0.441196
C119  C     C_R   0.965653 0.826256 0.464525 0.441196
C120  C     C_R   0.034346 0.826256 0.535475 0.441197
C121  C     C_R   0.465803 0.365532 0.465860 -0.299491
C122  C     C_R   0.534197 0.365532 0.534140 -0.299492
C123  C     C_R   0.965803 0.865532 0.465860 -0.299491
C124  C     C_R   0.034197 0.865532 0.534140 -0.299492
C125  C     C_R   0.500000 0.385342 0.500000 -0.165820
C126  C     C_R   1.000000 0.885342 0.500000 -0.165820
C127  C     C_R   0.500000 0.306775 0.500000 -0.092842
C128  C     C_R   1.000000 0.806775 0.500000 -0.092842
C129  C     C_R   0.979437 0.326904 0.524622 0.389559
C130  C     C_R   0.020563 0.326904 0.475377 0.389560
C131  C     C_R   0.479436 0.826904 0.524620 0.389562
C132  C     C_R   0.520564 0.826904 0.475380 0.389565
C133  C     C_R   0.977936 0.366199 0.521319 0.360790
C134  C     C_R   0.022064 0.366199 0.478681 0.360789
C135  C     C_R   0.477935 0.866199 0.521317 0.360789
C136  C     C_R   0.522065 0.866199 0.478683 0.360787
C137  C     C_1   0.500000 0.734042 0.500000 0.099155
C138  C     C_1   0.000000 0.234042 0.500000 0.099162
C139  C     C_R   0.500000 0.615169 0.500000 -0.442143
C140  C     C_R   0.000000 0.115169 0.500000 -0.442144
C141  C     C_2   0.531035 0.520283 0.747980 0.361806
C142  C     C_2   0.468965 0.520283 0.252020 0.361810
C143  C     C_2   0.031035 0.020283 0.747980 0.361808
C144  C     C_2   0.968965 0.020283 0.252020 0.361809
C145  C     C_2   0.499107 0.516961 0.681851 0.257331
C146  C     C_2   0.500893 0.516961 0.318149 0.257329
C147  C     C_2   0.999107 0.016961 0.681851 0.257329
C148  C     C_2   0.000893 0.016961 0.318149 0.257328
C149  C     C_2   0.528446 0.520911 0.813318 0.378736
C150  C     C_2   0.471554 0.520911 0.186682 0.378736
C151  C     C_2   0.028446 0.020911 0.813318 0.378736
C152  C     C_2   0.971554 0.020911 0.186682 0.378736
H1    H     H_    0.381247 0.442009 0.907288 0.207764
H2    H     H_    0.618753 0.442009 0.092712 0.207763
H3    H     H_    0.881247 0.942009 0.907288 0.207764
H4    H     H_    0.118753 0.942009 0.092712 0.207764
H5    H     H_    0.003196 0.688774 0.403955 0.136326
H6    H     H_    0.996804 0.688774 0.596045 0.136326
H7    H     H_    0.503196 0.188774 0.403955 0.136326
H8    H     H_    0.496804 0.188774 0.596045 0.136327
H9    H     H_    0.003168 0.619896 0.403497 0.158031
H10   H     H_    0.996831 0.619896 0.596503 0.158032
H11   H     H_    0.503168 0.119896 0.403497 0.158032
H12   H     H_    0.496832 0.119896 0.596503 0.158032
H13   H     H_    0.439142 0.380363 0.439878 0.185573
H14   H     H_    0.560857 0.380363 0.560122 0.185573
H15   H     H_    0.939142 0.880363 0.439878 0.185573
H16   H     H_    0.060857 0.880363 0.560122 0.185573
H17   H     H_    0.118235 0.472757 0.707117 0.194153
H18   H     H_    0.881765 0.472757 0.292883 0.194152
H19   H     H_    0.618235 0.972756 0.707116 0.194152
H20   H     H_    0.381765 0.972757 0.292883 0.194153
H21   H     H_    0.189911 0.526712 0.603087 0.165984
H22   H     H_    0.810089 0.526712 0.396913 0.165983
H23   H     H_    0.689911 0.026712 0.603088 0.165984
H24   H     H_    0.310089 0.026712 0.396912 0.165984
O1    O     O_R   0.444560 0.531280 0.944560 -0.564371
O2    O     O_R   0.555440 0.531280 0.055440 -0.564370
O3    O     O_R   0.944560 0.031280 0.944560 -0.564371
O4    O     O_R   0.055440 0.031280 0.055440 -0.564369
O5    O     O_R   0.055440 0.500090 0.504360 -0.565595
O6    O     O_R   0.944560 0.500090 0.495640 -0.565594
O7    O     O_R   0.555440 0.000090 0.504360 -0.565594
O8    O     O_R   0.444560 0.000090 0.495640 -0.565593
O9    O     O_R   0.055430 0.500110 0.606490 -0.635141
O10   O     O_R   0.944570 0.500110 0.393510 -0.635142
O11   O     O_R   0.555430 0.000110 0.606490 -0.635141
O12   O     O_R   0.444570 0.000110 0.393510 -0.635142
O13   O     O_R   0.000010 0.555520 0.448910 -0.630878
O14   O     O_R   0.999990 0.555520 0.551090 -0.630878
O15   O     O_R   0.500010 0.055520 0.448910 -0.630878
O16   O     O_R   0.499990 0.055520 0.551090 -0.630878
O17   O     O_R   0.444540 0.468700 0.944530 -0.634766
O18   O     O_R   0.555460 0.468700 0.055470 -0.634766
O19   O     O_R   0.944540 0.968700 0.944530 -0.634766
O20   O     O_R   0.055460 0.968700 0.055470 -0.634766
O21   O     O_R   0.500010 0.531280 0.909540 -0.593739
O22   O     O_R   0.499990 0.531280 0.090460 -0.593739
O23   O     O_R   0.000010 0.031280 0.909540 -0.593738
O24   O     O_R   0.999990 0.031280 0.090460 -0.593739
O25   O     O_R   0.499990 0.468700 0.909520 -0.622640
O26   O     O_R   0.500010 0.468700 0.090480 -0.622640
O27   O     O_R   0.999990 0.968700 0.909520 -0.622640
O28   O     O_R   0.000010 0.968700 0.090480 -0.622640
O29   O     O_R   0.531280 0.444560 0.531260 -0.621592
O30   O     O_R   0.468720 0.444560 0.468740 -0.621593
O31   O     O_R   0.031280 0.944560 0.531260 -0.621592
O32   O     O_R   0.968720 0.944560 0.468740 -0.621593
O33   O     O_R   0.531280 0.499990 0.621740 -0.594007
O34   O     O_R   0.468720 0.499990 0.378260 -0.594006
O35   O     O_R   0.031280 0.999990 0.621740 -0.594006
O36   O     O_R   0.968720 0.999990 0.378260 -0.594007
O37   O     O_R   0.468680 0.499990 0.559140 -0.602510
O38   O     O_R   0.531320 0.499990 0.440860 -0.602511
O39   O     O_R   0.968680 0.999990 0.559140 -0.602510
O40   O     O_R   0.031320 0.999990 0.440860 -0.602510
O41   O     O_R   0.531300 0.555420 0.531300 -0.599726
O42   O     O_R   0.468700 0.555420 0.468700 -0.599727
O43   O     O_R   0.031300 0.055420 0.531300 -0.599724
O44   O     O_R   0.968700 0.055420 0.468700 -0.599725
O45   O     O_R   0.999980 0.444660 0.448930 -0.589012
O46   O     O_R   0.000020 0.444660 0.551070 -0.589012
O47   O     O_R   0.499980 0.944660 0.448930 -0.589014
O48   O     O_R   0.500020 0.944660 0.551070 -0.589013
Zn1   Zn    Zn3+2 0.500000 0.541780 0.000000 1.020398
Zn2   Zn    Zn3+2 0.000000 0.041780 0.000000 1.020399
Zn3   Zn    Zn3+2 0.500000 0.458200 0.000000 0.946257
Zn4   Zn    Zn3+2 0.000000 0.958200 0.000000 0.946256
Zn5   Zn    Zn3+2 0.541790 0.499990 0.541780 0.989852
Zn6   Zn    Zn3+2 0.458210 0.499990 0.458220 0.989852
Zn7   Zn    Zn3+2 0.041790 0.999990 0.541780 0.989852
Zn8   Zn    Zn3+2 0.958210 0.999990 0.458220 0.989852
Zn9   Zn    Zn3+2 1.000000 0.500080 0.431790 0.993028
Zn10  Zn    Zn3+2 0.000000 0.500080 0.568210 0.993029
Zn11  Zn    Zn3+2 0.500000 0.000080 0.431790 0.993028
Zn12  Zn    Zn3+2 0.500000 0.000080 0.568210 0.993029
O49   O     O_3   0.568172 0.693784 0.561332 -0.563893
C153  C     C_3   0.575848 0.709735 0.510563 0.110946
H25   H     H_    0.550308 0.720788 0.461283 0.136741
H26   H     H_    0.589310 0.688525 0.493725 0.138485
C154  C     C_3   0.603447 0.742085 0.546251 -0.740702
H27   H     H_    0.630345 0.731490 0.592680 0.239735
H28   H     H_    0.609220 0.755460 0.506705 0.215870
H29   H     H_    0.591430 0.763466 0.566001 0.273444
O50   O     O_3   0.431828 0.693783 0.438669 -0.563894
C155  C     C_3   0.424153 0.709736 0.489439 0.110948
H30   H     H_    0.449692 0.720789 0.538718 0.136742
H31   H     H_    0.410690 0.688526 0.506278 0.138483
C156  C     C_3   0.396553 0.742085 0.453751 -0.740701
H32   H     H_    0.369655 0.731489 0.407322 0.239735
H33   H     H_    0.390780 0.755460 0.493296 0.215870
H34   H     H_    0.408569 0.763465 0.434000 0.273444
O51   O     O_3   0.068172 0.193783 0.561336 -0.563895
C157  C     C_3   0.075849 0.209736 0.510569 0.110947
H35   H     H_    0.050310 0.220786 0.461286 0.136737
H36   H     H_    0.089315 0.188526 0.493736 0.138490
C158  C     C_3   0.103446 0.242088 0.546257 -0.740708
H37   H     H_    0.130344 0.231494 0.592689 0.239736
H38   H     H_    0.109220 0.255463 0.506712 0.215874
H39   H     H_    0.091426 0.263467 0.566002 0.273443
O52   O     O_3   0.931828 0.193783 0.438665 -0.563895
C159  C     C_3   0.924151 0.209736 0.489433 0.110949
H40   H     H_    0.949690 0.220786 0.538715 0.136738
H41   H     H_    0.910686 0.188526 0.506267 0.138488
C160  C     C_3   0.896554 0.242087 0.453745 -0.740705
H42   H     H_    0.869656 0.231493 0.407313 0.239735
H43   H     H_    0.890781 0.255462 0.493289 0.215873
H44   H     H_    0.908574 0.263467 0.433999 0.273442
O53   O     O_3   0.307797 0.433719 0.837297 -0.594292
C161  C     C_3   0.309120 0.429477 0.903214 -0.312061
H45   H     H_    0.295999 0.453970 0.913889 0.173751
H46   H     H_    0.338469 0.425219 0.949105 0.160415
H47   H     H_    0.292791 0.404028 0.899613 0.192631
O54   O     O_3   0.692203 0.433719 0.162703 -0.594292
C162  C     C_3   0.690879 0.429477 0.096786 -0.312059
H48   H     H_    0.704000 0.453970 0.086109 0.173750
H49   H     H_    0.661531 0.425218 0.050895 0.160414
H50   H     H_    0.707209 0.404028 0.100387 0.192631
O55   O     O_3   0.807797 0.933719 0.837296 -0.594291
C163  C     C_3   0.809120 0.929477 0.903214 -0.312062
H51   H     H_    0.795999 0.953970 0.913889 0.173752
H52   H     H_    0.838469 0.925219 0.949105 0.160415
H53   H     H_    0.792791 0.904028 0.899612 0.192632
O56   O     O_3   0.192203 0.933719 0.162703 -0.594291
C164  C     C_3   0.190879 0.929477 0.096786 -0.312062
H54   H     H_    0.204000 0.953969 0.086109 0.173751
H55   H     H_    0.161531 0.925218 0.050895 0.160415
H56   H     H_    0.207209 0.904027 0.100387 0.192631
O57   O     O_3   0.383246 0.564852 0.843098 -0.550138
C165  C     C_3   0.393601 0.563223 0.790573 0.148718
H57   H     H_    0.368346 0.561241 0.735301 0.121319
H58   H     H_    0.412363 0.538797 0.799691 0.100239
C166  C     C_3   0.414725 0.598994 0.794901 -0.778037
H59   H     H_    0.441216 0.600879 0.848436 0.261480
H60   H     H_    0.421733 0.598845 0.752058 0.181222
H61   H     H_    0.396936 0.623973 0.787123 0.253268
O58   O     O_3   0.616754 0.564852 0.156901 -0.550138
C167  C     C_3   0.606399 0.563223 0.209427 0.148719
H62   H     H_    0.631654 0.561241 0.264699 0.121318
H63   H     H_    0.587637 0.538797 0.200309 0.100238
C168  C     C_3   0.585275 0.598994 0.205099 -0.778037
H64   H     H_    0.558784 0.600879 0.151564 0.261479
H65   H     H_    0.578267 0.598845 0.247942 0.181222
H66   H     H_    0.603064 0.623973 0.212878 0.253268
O59   O     O_3   0.883246 0.064852 0.843099 -0.550138
C169  C     C_3   0.893601 0.063223 0.790573 0.148719
H67   H     H_    0.868346 0.061241 0.735301 0.121318
H68   H     H_    0.912363 0.038797 0.799691 0.100239
C170  C     C_3   0.914725 0.098994 0.794901 -0.778037
H69   H     H_    0.941216 0.100879 0.848436 0.261479
H70   H     H_    0.921732 0.098845 0.752058 0.181222
H71   H     H_    0.896935 0.123973 0.787123 0.253268
O60   O     O_3   0.116754 0.064852 0.156901 -0.550139
C171  C     C_3   0.106399 0.063223 0.209427 0.148718
H72   H     H_    0.131654 0.061241 0.264699 0.121318
H73   H     H_    0.087637 0.038797 0.200309 0.100239
C172  C     C_3   0.085275 0.098994 0.205099 -0.778037
H74   H     H_    0.058784 0.100879 0.151564 0.261479
H75   H     H_    0.078268 0.098846 0.247942 0.181222
H76   H     H_    0.103065 0.123973 0.212878 0.253269
O61   O     O_3   0.306084 0.563499 0.766104 -0.562809
C173  C     C_3   0.289360 0.559545 0.690504 0.113323
H77   H     H_    0.260404 0.548145 0.666451 0.144381
H78   H     H_    0.305538 0.540747 0.675033 0.095863
C174  C     C_3   0.286510 0.598089 0.657552 -0.804566
H79   H     H_    0.315049 0.610426 0.680340 0.255508
H80   H     H_    0.273084 0.595458 0.598102 0.199850
H81   H     H_    0.269184 0.617133 0.669329 0.261487
O62   O     O_3   0.693916 0.563499 0.233896 -0.562809
C175  C     C_3   0.710640 0.559546 0.309496 0.113324
H82   H     H_    0.739596 0.548146 0.333549 0.144381
H83   H     H_    0.694461 0.540747 0.324967 0.095863
C176  C     C_3   0.713490 0.598089 0.342448 -0.804565
H84   H     H_    0.684951 0.610426 0.319661 0.255507
H85   H     H_    0.726916 0.595459 0.401898 0.199850
H86   H     H_    0.730816 0.617133 0.330671 0.261486
O63   O     O_3   0.806084 0.063499 0.766104 -0.562809
C177  C     C_3   0.789360 0.059546 0.690504 0.113324
H87   H     H_    0.760404 0.048146 0.666451 0.144381
H88   H     H_    0.805538 0.040747 0.675033 0.095863
C178  C     C_3   0.786510 0.098088 0.657552 -0.804566
H89   H     H_    0.815049 0.110426 0.680340 0.255508
H90   H     H_    0.773084 0.095458 0.598102 0.199850
H91   H     H_    0.769184 0.117133 0.669329 0.261486
O64   O     O_3   0.193916 0.063499 0.233896 -0.562810
C179  C     C_3   0.210640 0.059546 0.309496 0.113323
H92   H     H_    0.239596 0.048146 0.333549 0.144381
H93   H     H_    0.194462 0.040747 0.324967 0.095863
C180  C     C_3   0.213490 0.098089 0.342448 -0.804564
H94   H     H_    0.184951 0.110426 0.319660 0.255507
H95   H     H_    0.226916 0.095459 0.401898 0.199850
H96   H     H_    0.230816 0.117133 0.330671 0.261486
O65   O     O_3   0.568304 0.617063 0.551925 -0.546632
C181  C     C_3   0.574374 0.609071 0.494782 0.146096
H97   H     H_    0.563139 0.631138 0.452007 0.070921
H98   H     H_    0.560773 0.582044 0.468803 0.173470
C182  C     C_3   0.616442 0.605082 0.525188 -0.804959
H99   H     H_    0.628035 0.581833 0.565237 0.257933
H100  H     H_    0.621559 0.598700 0.480872 0.193537
H101  H     H_    0.631145 0.631651 0.551965 0.255889
O66   O     O_3   0.431696 0.617062 0.448076 -0.546632
C183  C     C_3   0.425625 0.609071 0.505219 0.146096
H102  H     H_    0.436861 0.631138 0.547994 0.070921
H103  H     H_    0.439227 0.582044 0.531197 0.173471
C184  C     C_3   0.383558 0.605083 0.474812 -0.804959
H104  H     H_    0.371964 0.581834 0.434762 0.257933
H105  H     H_    0.378441 0.598701 0.519128 0.193537
H106  H     H_    0.368855 0.631652 0.448036 0.255890
O67   O     O_3   0.068304 0.117063 0.551926 -0.546632
C185  C     C_3   0.074375 0.109071 0.494784 0.146093
H107  H     H_    0.063142 0.131140 0.452012 0.070924
H108  H     H_    0.060772 0.082046 0.468801 0.173465
C186  C     C_3   0.116442 0.105080 0.525191 -0.804954
H109  H     H_    0.128033 0.081830 0.565238 0.257933
H110  H     H_    0.121560 0.098698 0.480875 0.193537
H111  H     H_    0.131147 0.131648 0.551971 0.255887
O68   O     O_3   0.931696 0.117063 0.448074 -0.546633
C187  C     C_3   0.925625 0.109071 0.505217 0.146096
H112  H     H_    0.936858 0.131140 0.547989 0.070923
H113  H     H_    0.939228 0.082045 0.531199 0.173465
C188  C     C_3   0.883557 0.105081 0.474809 -0.804956
H114  H     H_    0.871966 0.081830 0.434762 0.257933
H115  H     H_    0.878440 0.098699 0.519125 0.193538
H116  H     H_    0.868853 0.131648 0.448030 0.255888
O69   O     O_3   0.431913 0.306837 0.432334 -0.598275
C189  C     C_3   0.417096 0.305475 0.357193 0.098403
H117  H     H_    0.437698 0.292758 0.344973 0.135894
H118  H     H_    0.409296 0.334168 0.333166 0.142675
C190  C     C_3   0.381806 0.281214 0.321921 -0.797909
H119  H     H_    0.360413 0.293354 0.332221 0.259210
H120  H     H_    0.369840 0.279958 0.262711 0.203658
H121  H     H_    0.388815 0.252225 0.344239 0.257224
O70   O     O_3   0.568087 0.306837 0.567666 -0.598275
C191  C     C_3   0.582904 0.305476 0.642808 0.098404
H122  H     H_    0.562302 0.292760 0.655029 0.135894
H123  H     H_    0.590704 0.334169 0.666833 0.142675
C192  C     C_3   0.618194 0.281215 0.678079 -0.797910
H124  H     H_    0.639586 0.293354 0.667777 0.259210
H125  H     H_    0.630161 0.279959 0.737290 0.203658
H126  H     H_    0.611184 0.252225 0.655762 0.257224
O71   O     O_3   0.931913 0.806837 0.432334 -0.598275
C193  C     C_3   0.917096 0.805475 0.357193 0.098404
H127  H     H_    0.937698 0.792758 0.344973 0.135894
H128  H     H_    0.909296 0.834167 0.333166 0.142674
C194  C     C_3   0.881806 0.781214 0.321921 -0.797908
H129  H     H_    0.860414 0.793354 0.332222 0.259210
H130  H     H_    0.869840 0.779958 0.262711 0.203658
H131  H     H_    0.888815 0.752225 0.344239 0.257224
O72   O     O_3   0.068087 0.806837 0.567666 -0.598275
C195  C     C_3   0.082904 0.805476 0.642808 0.098403
H132  H     H_    0.062302 0.792760 0.655029 0.135894
H133  H     H_    0.090704 0.834169 0.666833 0.142675
C196  C     C_3   0.118194 0.781215 0.678079 -0.797910
H134  H     H_    0.139586 0.793354 0.667777 0.259211
H135  H     H_    0.130161 0.779959 0.737290 0.203658
H136  H     H_    0.111184 0.752225 0.655762 0.257224
O73   O     O_3   0.958336 0.307461 0.546651 -0.594570
C197  C     C_3   0.980428 0.302553 0.622088 -0.272638
H137  H     H_    0.988032 0.330076 0.650771 0.193337
H138  H     H_    0.006285 0.285892 0.637920 0.146582
H139  H     H_    0.963673 0.286606 0.639737 0.177095
O74   O     O_3   0.041664 0.307461 0.453349 -0.594571
C198  C     C_3   0.019572 0.302553 0.377912 -0.272638
H140  H     H_    0.011968 0.330075 0.349229 0.193336
H141  H     H_    0.993715 0.285892 0.362080 0.146582
H142  H     H_    0.036327 0.286605 0.360263 0.177095
O75   O     O_3   0.458334 0.807461 0.546646 -0.594570
C199  C     C_3   0.480424 0.802553 0.622084 -0.272645
H143  H     H_    0.488028 0.830076 0.650766 0.193339
H144  H     H_    0.506281 0.785892 0.637918 0.146582
H145  H     H_    0.463669 0.786606 0.639730 0.177095
O76   O     O_3   0.541666 0.807461 0.453354 -0.594571
C200  C     C_3   0.519575 0.802553 0.377916 -0.272645
H146  H     H_    0.511972 0.830075 0.349233 0.193338
H147  H     H_    0.493718 0.785892 0.362082 0.146582
H148  H     H_    0.536331 0.786605 0.360270 0.177095
O77   O     O_3   0.566459 0.518700 0.756700 -0.617674
C201  C     C_3   0.576599 0.555377 0.748228 -0.259033
H149  H     H_    0.578793 0.574689 0.790629 0.185903
H150  H     H_    0.556433 0.566972 0.693653 0.154263
H151  H     H_    0.604710 0.554171 0.754024 0.197884
O78   O     O_3   0.433540 0.518700 0.243300 -0.617675
C202  C     C_3   0.423401 0.555377 0.251773 -0.259030
H152  H     H_    0.421207 0.574689 0.209372 0.185902
H153  H     H_    0.443567 0.566972 0.306348 0.154263
H154  H     H_    0.395290 0.554171 0.245976 0.197883
O79   O     O_3   0.066459 0.018700 0.756700 -0.617676
C203  C     C_3   0.076599 0.055377 0.748228 -0.259029
H155  H     H_    0.078793 0.074689 0.790628 0.185902
H156  H     H_    0.056433 0.066973 0.693652 0.154263
H157  H     H_    0.104710 0.054171 0.754024 0.197883
O80   O     O_3   0.933541 0.018700 0.243300 -0.617675
C204  C     C_3   0.923401 0.055377 0.251773 -0.259028
H158  H     H_    0.921207 0.074689 0.209372 0.185902
H159  H     H_    0.943567 0.066973 0.306348 0.154262
H160  H     H_    0.895290 0.054171 0.245976 0.197883
O81   O     O_3   0.955940 0.385278 0.541744 -0.558814
C205  C     C_3   0.919869 0.390697 0.479931 -0.221623
H161  H     H_    0.905700 0.363343 0.456438 0.167465
H162  H     H_    0.921231 0.407879 0.438415 0.116798
H163  H     H_    0.902274 0.406328 0.496001 0.188636
O82   O     O_3   0.044060 0.385278 0.458256 -0.558814
C206  C     C_3   0.080130 0.390698 0.520068 -0.221621
H164  H     H_    0.094299 0.363343 0.543562 0.167465
H165  H     H_    0.078769 0.407879 0.561585 0.116798
H166  H     H_    0.097726 0.406328 0.503998 0.188635
O83   O     O_3   0.455938 0.885278 0.541740 -0.558815
C207  C     C_3   0.419868 0.890698 0.479926 -0.221626
H167  H     H_    0.405699 0.863344 0.456431 0.167466
H168  H     H_    0.421231 0.907879 0.438410 0.116798
H169  H     H_    0.402272 0.906328 0.495994 0.188635
O84   O     O_3   0.544062 0.885278 0.458260 -0.558814
C208  C     C_3   0.580132 0.890698 0.520074 -0.221625
H170  H     H_    0.594301 0.863344 0.543569 0.167465
H171  H     H_    0.578769 0.907879 0.561589 0.116798
H172  H     H_    0.597727 0.906328 0.504005 0.188635
O85   O     O_3   0.463843 0.525408 0.670979 -0.608647
C209  C     C_3   0.461295 0.564411 0.680456 -0.417133
H173  H     H_    0.475847 0.581951 0.659643 0.129405
H174  H     H_    0.472784 0.570987 0.738259 0.191857
H175  H     H_    0.431123 0.572527 0.650296 0.198211
O86   O     O_3   0.536157 0.525408 0.329021 -0.608646
C210  C     C_3   0.538705 0.564411 0.319545 -0.417138
H176  H     H_    0.524153 0.581951 0.340357 0.129406
H177  H     H_    0.527216 0.570987 0.261741 0.191858
H178  H     H_    0.568876 0.572527 0.349704 0.198213
O87   O     O_3   0.963843 0.025408 0.670979 -0.608646
C211  C     C_3   0.961295 0.064411 0.680456 -0.417134
H179  H     H_    0.975847 0.081951 0.659644 0.129405
H180  H     H_    0.972783 0.070987 0.738259 0.191857
H181  H     H_    0.931123 0.072527 0.650296 0.198212
O88   O     O_3   0.036157 0.025408 0.329021 -0.608647
C212  C     C_3   0.038705 0.064411 0.319544 -0.417132
H182  H     H_    0.024153 0.081951 0.340356 0.129405
H183  H     H_    0.027217 0.070987 0.261741 0.191857
H184  H     H_    0.068877 0.072527 0.349704 0.198211
O89   O     O_3   0.550086 0.546620 0.867519 -0.628157
C213  C     C_3   0.583897 0.528984 0.919683 -0.247728
H185  H     H_    0.601965 0.522340 0.897316 0.193581
H186  H     H_    0.578611 0.503018 0.941758 0.132581
H187  H     H_    0.599803 0.548686 0.965497 0.202383
O90   O     O_3   0.449914 0.546620 0.132481 -0.628157
C214  C     C_3   0.416103 0.528984 0.080317 -0.247726
H188  H     H_    0.398035 0.522340 0.102683 0.193581
H189  H     H_    0.421389 0.503018 0.058242 0.132580
H190  H     H_    0.400197 0.548686 0.034503 0.202383
O91   O     O_3   0.050085 0.046620 0.867519 -0.628156
C215  C     C_3   0.083897 0.028984 0.919683 -0.247728
H191  H     H_    0.101965 0.022340 0.897316 0.193581
H192  H     H_    0.078611 0.003019 0.941758 0.132581
H193  H     H_    0.099803 0.048686 0.965497 0.202384
O92   O     O_3   0.949914 0.046620 0.132481 -0.628157
C216  C     C_3   0.916103 0.028984 0.080317 -0.247727
H194  H     H_    0.898035 0.022340 0.102683 0.193581
H195  H     H_    0.921389 0.003019 0.058242 0.132581
H196  H     H_    0.900197 0.048686 0.034503 0.202383
O93   O     O_3   0.488003 0.467821 0.769386 -0.621105
C217  C     C_3   0.450072 0.461528 0.748961 0.154658
H197  H     H_    0.434309 0.488386 0.739798 0.130227
H198  H     H_    0.448776 0.444734 0.790811 0.153311
C218  C     C_3   0.430437 0.439140 0.678948 -0.768480
H199  H     H_    0.444941 0.411768 0.686566 0.248919
H200  H     H_    0.400709 0.433766 0.662604 0.192705
H201  H     H_    0.430835 0.455095 0.635328 0.283365
O94   O     O_3   0.511997 0.467821 0.230614 -0.621104
C219  C     C_3   0.549929 0.461528 0.251039 0.154657
H202  H     H_    0.565691 0.488386 0.260202 0.130227
H203  H     H_    0.551224 0.444734 0.209189 0.153311
C220  C     C_3   0.569563 0.439140 0.321051 -0.768478
H204  H     H_    0.555059 0.411768 0.313433 0.248918
H205  H     H_    0.599291 0.433766 0.337396 0.192704
H206  H     H_    0.569165 0.455095 0.364672 0.283365
O95   O     O_3   0.988003 0.967821 0.769386 -0.621105
C221  C     C_3   0.950072 0.961528 0.748961 0.154659
H207  H     H_    0.934309 0.988386 0.739799 0.130227
H208  H     H_    0.948776 0.944733 0.790811 0.153311
C222  C     C_3   0.930437 0.939140 0.678948 -0.768482
H209  H     H_    0.944941 0.911768 0.686566 0.248919
H210  H     H_    0.900709 0.933766 0.662604 0.192705
H211  H     H_    0.930835 0.955095 0.635328 0.283365
O96   O     O_3   0.011997 0.967821 0.230614 -0.621104
C223  C     C_3   0.049928 0.961528 0.251039 0.154658
H212  H     H_    0.065691 0.988386 0.260202 0.130226
H213  H     H_    0.051224 0.944734 0.209189 0.153311
C224  C     C_3   0.069563 0.939140 0.321051 -0.768479
H214  H     H_    0.055059 0.911768 0.313433 0.248919
H215  H     H_    0.099291 0.933766 0.337396 0.192704
H216  H     H_    0.069165 0.955095 0.364672 0.283365
O97   O     O_3   0.191447 0.468631 0.792974 -0.599025
C225  C     C_3   0.195212 0.429366 0.789155 0.090787
H217  H     H_    0.216185 0.423108 0.773295 0.167707
H218  H     H_    0.167830 0.415739 0.749968 0.123977
C226  C     C_3   0.209031 0.412241 0.863101 -0.809086
H219  H     H_    0.187606 0.416425 0.878413 0.257312
H220  H     H_    0.213923 0.381615 0.861791 0.203978
H221  H     H_    0.235770 0.425799 0.904297 0.252569
O98   O     O_3   0.808553 0.468632 0.207026 -0.599025
C227  C     C_3   0.804788 0.429366 0.210845 0.090788
H222  H     H_    0.783816 0.423108 0.226705 0.167705
H223  H     H_    0.832170 0.415739 0.250031 0.123977
C228  C     C_3   0.790968 0.412241 0.136898 -0.809088
H224  H     H_    0.812393 0.416426 0.121585 0.257312
H225  H     H_    0.786077 0.381615 0.138207 0.203978
H226  H     H_    0.764230 0.425800 0.095702 0.252570
O99   O     O_3   0.691446 0.968631 0.792973 -0.599025
C229  C     C_3   0.695212 0.929365 0.789154 0.090787
H227  H     H_    0.716184 0.923108 0.773294 0.167707
H228  H     H_    0.667830 0.915739 0.749967 0.123976
C230  C     C_3   0.709031 0.912240 0.863100 -0.809087
H229  H     H_    0.687606 0.916424 0.878412 0.257311
H230  H     H_    0.713923 0.881614 0.861790 0.203979
H231  H     H_    0.735770 0.925798 0.904297 0.252569
O100  O     O_3   0.308553 0.968631 0.207026 -0.599025
C231  C     C_3   0.304788 0.929366 0.210845 0.090790
H232  H     H_    0.283816 0.923108 0.226706 0.167706
H233  H     H_    0.332170 0.915739 0.250032 0.123976
C232  C     C_3   0.290969 0.912241 0.136899 -0.809088
H234  H     H_    0.312394 0.916425 0.121586 0.257312
H235  H     H_    0.286077 0.881614 0.138208 0.203978
H236  H     H_    0.264230 0.925799 0.095703 0.252569
O101  O     O_3   0.116836 0.532930 0.518240 -0.589028
C233  C     C_3   0.111421 0.571442 0.526224 0.118335
H237  H     H_    0.139012 0.586294 0.556505 0.136255
H238  H     H_    0.095827 0.575383 0.554848 0.122777
C234  C     C_3   0.088235 0.589311 0.451912 -0.796406
H239  H     H_    0.060480 0.575047 0.420574 0.263200
H240  H     H_    0.083558 0.619561 0.457540 0.202054
H241  H     H_    0.103311 0.586789 0.422272 0.252993
O102  O     O_3   0.883164 0.532930 0.481761 -0.589028
C235  C     C_3   0.888579 0.571442 0.473776 0.118334
H242  H     H_    0.860988 0.586295 0.443496 0.136255
H243  H     H_    0.904173 0.575383 0.445152 0.122777
C236  C     C_3   0.911765 0.589311 0.548089 -0.796406
H244  H     H_    0.939520 0.575047 0.579426 0.263201
H245  H     H_    0.916442 0.619561 0.542461 0.202054
H246  H     H_    0.896689 0.586789 0.577729 0.252993
O103  O     O_3   0.616836 0.032931 0.518240 -0.589028
C237  C     C_3   0.611421 0.071443 0.526225 0.118335
H247  H     H_    0.639012 0.086295 0.556506 0.136255
H248  H     H_    0.595827 0.075383 0.554849 0.122777
C238  C     C_3   0.588236 0.089311 0.451913 -0.796407
H249  H     H_    0.560480 0.075048 0.420575 0.263201
H250  H     H_    0.583558 0.119562 0.457541 0.202054
H251  H     H_    0.603311 0.086790 0.422272 0.252993
O104  O     O_3   0.383164 0.032931 0.481760 -0.589028
C239  C     C_3   0.388579 0.071443 0.473776 0.118335
H252  H     H_    0.360988 0.086295 0.443495 0.136255
H253  H     H_    0.404173 0.075383 0.445152 0.122777
C240  C     C_3   0.411764 0.089311 0.548088 -0.796406
H254  H     H_    0.439520 0.075048 0.579426 0.263200
H255  H     H_    0.416442 0.119562 0.542460 0.202054
H256  H     H_    0.396689 0.086790 0.577729 0.252993

loop_
_geom_bond_atom_site_label_1
_geom_bond_atom_site_label_2
_ccdc_geom_bond_type
C173  H78   S    
O75   C199  S    
O20   Zn4   S    
C182  H99   S    
C55   C59   A    
C165  C166  S    
C226  H219  S    
C142  C146  D    
C99   C103  A    
C14   H18   S    
O63   C177  S    
C129  O73   S    
O77   C201  S    
C208  H172  S    
C227  C228  S    
C49   H1    S    
O56   C164  S    
C192  H125  S    
C104  H10   S    
C223  H212  S    
O36   Zn8   S    
C190  H120  S    
C46   O22   A    
C173  C174  S    
C29   C33   S    
C100  C104  A    
C224  H216  S    
C5    C149  D    
O25   Zn3   S    
O54   C162  S    
C234  H239  S    
C150  O90   S    
C9    C13   A    
C157  H36   S    
C124  H16   S    
C93   O5    A    
C72   C139  A    
C12   C16   A    
C228  H225  S    
C233  H237  S    
C144  O80   S    
C119  O71   S    
C70   C84   A    
C141  C145  D    
O10   Zn9   S    
C119  C128  A    
O97   C225  S    
C143  C151  S    
C100  C109  A    
C196  H135  S    
C113  C133  A    
O50   C155  S    
C4    C56   S    
C101  C105  A    
C167  H63   S    
C130  C134  A    
C41   C49   A    
C198  H142  S    
C229  H228  S    
C214  H189  S    
C25   C29   A    
C153  H26   S    
C103  H9    S    
C175  H82   S    
C27   C31   A    
C206  H164  S    
C92   O48   A    
C186  H111  S    
C102  H8    S    
C62   C66   A    
C237  H247  S    
C123  C126  A    
C239  C240  S    
C171  H72   S    
O98   C227  S    
C237  C238  S    
C17   C21   A    
C21   O101  S    
C222  H211  S    
O18   Zn3   S    
C204  H160  S    
C189  H118  S    
C200  H146  S    
C231  H232  S    
C10   C30   A    
C240  H254  S    
C16   C20   A    
C200  H148  S    
O92   C216  S    
C233  C234  S    
C213  H185  S    
C88   C148  S    
C77   C129  A    
C72   O66   S    
C239  H253  S    
C175  H83   S    
O32   Zn8   S    
C129  C133  A    
O76   C200  S    
C70   C138  S    
C182  H101  S    
C212  H183  S    
C190  H119  S    
C234  H241  S    
C161  H46   S    
C134  O82   S    
C189  C190  S    
C167  H62   S    
C73   O67   S    
C154  H29   S    
C168  H66   S    
C4    O20   A    
C227  H222  S    
O46   Zn10  S    
O73   C197  S    
C75   C138  T    
C85   O33   A    
C90   C140  S    
C57   C61   A    
C217  H197  S    
C119  C123  A    
C118  O70   S    
O70   C191  S    
C59   C63   A    
C60   C64   A    
C203  H155  S    
O3    Zn2   S    
C222  H209  S    
C163  H51   S    
C164  H55   S    
C79   O29   A    
C194  H129  S    
C6    O94   S    
C5    O93   S    
C225  H217  S    
C95   O7    A    
C80   C126  S    
C49   C53   A    
C211  H179  S    
C51   C55   A    
O101  C233  S    
C202  H153  S    
C191  H122  S    
O6    Zn10  S    
C42   O54   S    
C61   C65   A    
C210  H178  S    
C43   O55   S    
O61   C173  S    
C88   O36   A    
C158  H38   S    
C114  C136  A    
C221  H207  S    
C103  C107  A    
C146  O86   S    
C216  H195  S    
C187  H112  S    
C184  H104  S    
O38   Zn5   S    
O15   Zn11  S    
C73   C83   A    
C104  C107  A    
C148  O88   S    
C99   C109  A    
C155  H31   S    
O104  C239  S    
O29   Zn5   S    
C220  H206  S    
C217  C218  S    
O71   C193  S    
C98   C108  S    
O99   C229  S    
C51   H3    S    
C156  H32   S    
O96   C223  S    
C64   C68   A    
C8    C152  D    
C85   C145  S    
C109  C111  S    
O52   C159  S    
C235  H243  S    
C183  H102  S    
C45   O21   A    
C172  H75   S    
C154  H27   S    
C118  C122  A    
C174  H80   S    
C78   C132  A    
C69   C82   A    
C3    C55   S    
O42   Zn6   S    
C216  H194  S    
C221  C222  S    
C37   C65   S    
C190  H121  S    
C213  H186  S    
C41   O53   S    
O13   Zn9   S    
C90   O44   A    
O95   C221  S    
C44   C52   A    
C13   H17   S    
C20   C96   S    
O94   C219  S    
C98   O15   A    
C47   O23   A    
C239  H252  S    
C11   C15   A    
C120  O72   S    
C236  H245  S    
O28   Zn4   S    
O57   C165  S    
C197  H138  S    
C178  H90   S    
C205  H161  S    
C30   C34   S    
O39   Zn8   S    
C203  H157  S    
C162  H50   S    
C42   C66   A    
O84   C208  S    
O17   Zn3   S    
C225  C226  S    
C149  O89   S    
C10   C14   A    
C184  H106  S    
C165  H58   S    
C157  C158  S    
C232  H235  S    
C7    O95   S    
C74   C140  A    
C211  H181  S    
C3    O3    A    
C238  H251  S    
C97   C107  S    
C86   O38   A    
C121  C125  A    
C166  H59   S    
C25   H21   S    
C197  H139  S    
C160  H43   S    
C179  H93   S    
C210  H176  S    
C132  C136  A    
C220  H204  S    
O68   C187  S    
C228  H224  S    
O24   Zn2   S    
C91   O46   A    
C218  H200  S    
C131  O75   S    
C195  H132  S    
O12   Zn11  S    
C42   C50   A    
C170  H71   S    
C80   O32   A    
C63   O63   S    
C26   C30   A    
C180  H96   S    
C177  H88   S    
C99   H5    S    
C22   C26   A    
O74   C198  S    
C172  H76   S    
C219  H203  S    
C17   C93   S    
C118  C127  A    
C59   O59   S    
C240  H256  S    
C19   C95   S    
C199  H143  S    
C179  C180  S    
C124  C126  A    
C193  H127  S    
O81   C205  S    
C21   C25   A    
C155  H30   S    
C156  H34   S    
C223  C224  S    
O45   Zn9   S    
C18   C22   A    
C87   O35   A    
C94   O10   A    
O43   Zn7   S    
O80   C204  S    
C151  O91   S    
C214  H188  S    
C159  H40   S    
C208  H171  S    
C177  C178  S    
C121  H13   S    
C48   O28   A    
C13   C17   A    
C158  H39   S    
C122  C125  A    
C238  H249  S    
C144  C152  S    
C192  H124  S    
C223  H213  S    
C12   O100  S    
C106  C108  A    
O4    Zn2   S    
C224  H215  S    
C81   O49   S    
O9    Zn10  S    
C133  O81   S    
C209  H173  S    
C142  O78   S    
O23   Zn2   S    
C110  C112  S    
O1    Zn1   S    
C207  H167  S    
C43   C67   A    
C181  H97   S    
C75   C77   S    
O87   C211  S    
C233  H238  S    
C2    O2    A    
O78   C202  S    
C212  H182  S    
C93   O9    A    
C215  H191  S    
C71   C81   A    
C229  C230  S    
C58   C62   A    
C196  H134  S    
C234  H240  S    
C162  H48   S    
C163  H53   S    
C236  H246  S    
C159  C160  S    
O65   C181  S    
C95   O11   A    
C198  H141  S    
C15   C19   A    
C153  C154  S    
C50   C54   A    
O35   Zn7   S    
C48   O24   A    
C176  H84   S    
C8    O96   S    
O67   C185  S    
C166  H61   S    
C186  H110  S    
C54   C58   A    
O93   C217  S    
C237  H248  S    
C230  H230  S    
C26   H22   S    
C171  H73   S    
C44   O56   S    
O40   Zn7   S    
O88   C212  S    
C165  H57   S    
O62   C175  S    
C204  H159  S    
C14   C18   A    
C201  H149  S    
O8    Zn12  S    
O2    Zn1   S    
C231  H233  S    
C89   O42   A    
C229  H227  S    
C200  H147  S    
C175  C176  S    
C206  H166  S    
C169  H68   S    
O55   C163  S    
C105  H11   S    
O16   Zn12  S    
C111  C116  T    
C106  H12   S    
C6    C46   S    
O11   Zn12  S    
C11   O99   S    
C199  H145  S    
C171  C172  S    
C168  H65   S    
C173  H77   S    
C182  H100  S    
O53   C161  S    
C226  H220  S    
C161  H47   S    
C147  O87   S    
C204  H158  S    
C4    O4    A    
C86   C146  S    
O27   Zn4   S    
C185  H107  S    
C141  O77   S    
C176  H85   S    
C180  H94   S    
C227  H223  S    
C169  C170  S    
O79   C203  S    
C213  H187  S    
C24   C28   A    
C194  H131  S    
C2    C54   S    
C192  H126  S    
C74   C84   A    
C53   C57   A    
O82   C206  S    
C28   H24   S    
C217  H198  S    
O103  C237  S    
C5    C45   S    
C33   C37   T    
C56   C60   A    
C23   O103  S    
C2    O18   A    
C201  H151  S    
C7    C47   S    
C35   C39   T    
C8    C48   S    
C164  H54   S    
C61   O61   S    
C207  H169  S    
C28   C32   A    
C228  H226  S    
C10   O98   S    
C211  H180  S    
O34   Zn6   S    
C15   H19   S    
C70   C83   A    
C117  C127  A    
C191  H123  S    
C215  H193  S    
C7    C151  D    
C210  H177  S    
C196  H136  S    
C113  C134  A    
C31   C35   S    
C84   O52   S    
C102  C110  A    
C222  H210  S    
C27   H23   S    
C181  C182  S    
C32   C36   S    
C57   O57   S    
C19   C23   A    
O69   C189  S    
C214  H190  S    
C153  H25   S    
C92   O47   A    
C168  H64   S    
C86   O34   A    
C76   C78   S    
C230  H231  S    
C191  C192  S    
C185  H108  S    
C120  C128  A    
C71   C139  A    
C60   O60   S    
C117  O69   S    
C142  C150  S    
C187  C188  S    
C194  H130  S    
C189  H117  S    
O48   Zn12  S    
C24   O104  S    
C220  H205  S    
C225  H218  S    
C235  C236  S    
C43   C51   A    
O60   C171  S    
O51   C157  S    
C183  H103  S    
C64   O64   S    
C77   C130  A    
C71   O65   S    
C41   C65   A    
C174  H79   S    
C3    O19   A    
C185  C186  S    
C69   C81   A    
C6    C150  D    
O5    Zn9   S    
C46   O26   A    
C101  H7    S    
O59   C169  S    
C40   C68   S    
C212  H184  S    
C188  H115  S    
C87   O39   A    
C161  H45   S    
C94   O6    A    
C136  O84   S    
C167  C168  S    
O37   Zn6   S    
C203  H156  S    
C183  C184  S    
O21   Zn1   S    
C122  H14   S    
O30   Zn6   S    
O58   C167  S    
C96   O12   A    
C1    O17   A    
O85   C209  S    
C144  C148  D    
C236  H244  S    
C179  H92   S    
C141  C149  S    
O91   C215  S    
C170  H69   S    
C143  C147  D    
C218  H201  S    
C157  H35   S    
C205  H162  S    
O19   Zn4   S    
C83   O51   S    
C162  H49   S    
C163  H52   S    
C158  H37   S    
C164  H56   S    
C131  C135  A    
C184  H105  S    
C160  H42   S    
C115  C127  S    
O89   C213  S    
C100  H6    S    
C117  C121  A    
C202  H154  S    
C1    C53   S    
O41   Zn5   S    
C1    O1    A    
O72   C195  S    
C38   C66   S    
C89   C139  S    
C205  H163  S    
C114  C135  A    
O14   Zn10  S    
C23   C27   A    
C238  H250  S    
C218  H199  S    
C195  H133  S    
O22   Zn1   S    
O90   C214  S    
C123  H15   S    
C232  H236  S    
C135  O83   S    
C11   C31   A    
C180  H95   S    
C12   C32   A    
C219  C220  S    
O100  C231  S    
C96   O8    A    
C9    O97   S    
C240  H255  S    
C199  H144  S    
C176  H86   S    
C169  H67   S    
C193  H128  S    
C69   C137  S    
C105  C108  A    
C63   C67   A    
C156  H33   S    
O44   Zn8   S    
C47   O27   A    
C20   C24   A    
C36   C40   T    
C74   O68   S    
C195  C196  S    
C98   O16   A    
C198  H140  S    
C143  O79   S    
C235  H242  S    
C159  H41   S    
C209  H175  S    
C208  H170  S    
O86   C210  S    
O102  C235  S    
C91   C113  S    
C154  H28   S    
C174  H81   S    
C78   C131  A    
C85   O37   A    
C188  H116  S    
C193  C194  S    
C16   H20   S    
O83   C207  S    
C224  H214  S    
O33   Zn5   S    
C209  H174  S    
C101  C110  A    
C90   O43   A    
O47   Zn11  S    
C97   O14   A    
C207  H168  S    
C177  H87   S    
C181  H98   S    
C116  C128  S    
C18   C94   S    
C152  O92   S    
C44   C68   A    
C91   O45   A    
C58   O58   S    
C215  H192  S    
C197  H137  S    
C132  O76   S    
C178  H91   S    
C88   O40   A    
C82   O50   S    
C34   C38   T    
C39   C67   S    
C76   C137  T    
C22   O102  S    
C130  O74   S    
C62   O62   S    
O26   Zn3   S    
C73   C140  A    
C9    C29   A    
C52   H4    S    
C79   O30   A    
O66   C183  S    
C216  H196  S    
C202  H152  S    
C166  H60   S    
C186  H109  S    
O31   Zn7   S    
C230  H229  S    
C188  H114  S    
C170  H70   S    
C92   C114  S    
C50   H2    S    
C97   O13   A    
C226  H221  S    
C102  C106  A    
C221  H208  S    
C231  C232  S    
C79   C125  S    
C172  H74   S    
C160  H44   S    
C201  H150  S    
C89   O41   A    
C120  C124  A    
C80   O31   A    
C145  O85   S    
C45   O25   A    
C232  H234  S    
C87   C147  S    
O7    Zn11  S    
C206  H165  S    
C178  H89   S    
C219  H202  S    
O64   C179  S    
O49   C153  S    
C187  H113  S    
C155  C156  S    
C112  C115  T    
C72   C82   A    
C52   C56   A    
