data_mof_unit_26166.cif
_audit_creation_date              2013-03-05T16:12:13-0500
_audit_creation_method            fapswitch 2.2
_symmetry_space_group_name_H-M    P1
_symmetry_Int_Tables_number       1
_space_group_crystal_system       triclinic
_cell_length_a                    10.756705
_cell_length_b                    9.405351
_cell_length_c                    27.765545
_cell_angle_alpha                 90.320806
_cell_angle_beta                  90.125752
_cell_angle_gamma                 90.354134
_cell_volume                      2808.95179349

loop_
_atom_site_label
_atom_site_type_symbol
_atom_site_description
_atom_site_fract_x
_atom_site_fract_y
_atom_site_fract_z
_atom_type_partial_charge
O1    O     O_R   0.317570 0.620260 0.500030 -0.565574
O2    O     O_R   0.317570 0.379740 0.500030 -0.563743
C1    C     C_R   0.259608 0.499668 0.499225 0.825384
O3    O     O_R   0.499900 0.620250 0.430280 -0.585555
O4    O     O_R   0.499900 0.379750 0.430280 -0.597798
C2    C     C_R   0.499707 0.499826 0.407414 0.790377
Cu1   Cu    Cu3+1 0.499860 0.642410 0.500020 0.917530
Cu2   Cu    Cu3+1 0.499860 0.357590 0.500020 0.919131
O5    O     O_R   0.682190 0.620260 0.500010 -0.597209
O6    O     O_R   0.682190 0.379740 0.500010 -0.601839
O7    O     O_R   0.499860 0.620280 0.569750 -0.599500
O8    O     O_R   0.499860 0.379720 0.569750 -0.582961
C3    C     C_R   0.739847 0.500630 0.499786 0.832798
C4    C     C_R   0.500311 0.500478 0.592626 0.820754
C5    C     C_R   0.415313 0.572939 0.178429 0.542305
O9    O     O_2   0.312111 0.604636 0.203787 -0.521709
N1    N     N_R   0.521551 0.534138 0.202023 -0.467152
C6    C     C_R   0.628110 0.502902 0.177428 0.541154
C7    C     C_R   0.581138 0.621417 0.282394 -0.089929
C8    C     C_R   0.574144 0.612052 0.332393 -0.221948
C9    C     C_R   0.444274 0.400349 0.324889 -0.051525
C10   C     C_R   0.451863 0.410997 0.274767 -0.122895
C11   C     C_R   0.519435 0.521406 0.253466 0.332068
C12   C     C_R   0.521589 0.547947 0.101880 -0.047664
C13   C     C_R   0.413040 0.579569 0.127961 -0.026144
C14   C     C_R   0.304653 0.616123 0.103188 -0.136593
C15   C     C_R   0.630195 0.509265 0.126897 -0.018643
C16   C     C_R   0.505910 0.502014 0.354336 -0.082809
H1    H     H_    0.403439 0.334726 0.251949 0.149125
H2    H     H_    0.220557 0.643653 0.122420 0.191424
C17   C     C_R   0.502460 0.502544 0.645688 -0.050236
C18   C     C_R   0.405026 0.565322 0.975028 0.060279
C19   C     C_R   0.633772 0.544339 0.974129 -0.075756
C20   C     C_R   0.518245 0.549683 0.949315 0.034147
C21   C     C_R   0.292037 0.563422 0.948886 -0.194663
C22   C     C_R   0.290645 0.549859 0.899029 -0.127919
C23   C     C_R   0.401684 0.538281 0.873328 -0.007560
C24   C     C_R   0.515835 0.539196 0.898325 -0.048049
C25   C     C_R   0.627483 0.529195 0.872228 -0.112236
C26   C     C_R   0.622903 0.517101 0.821804 0.571844
N2    N     N_R   0.510972 0.515434 0.798380 -0.467939
C27   C     C_R   0.401388 0.525906 0.822928 0.551291
C28   C     C_R   0.501635 0.377846 0.722294 0.023529
C29   C     C_R   0.498746 0.375080 0.671893 -0.239923
C30   C     C_R   0.509193 0.632838 0.670608 -0.219500
C31   C     C_R   0.512254 0.635803 0.720723 -0.109042
C32   C     C_R   0.508541 0.509029 0.746774 0.314578
O10   O     O_2   0.292666 0.524939 0.798570 -0.523363
C33   C     C_R   0.408196 0.579055 0.025943 0.043018
C34   C     C_R   0.520985 0.552845 0.050795 0.085179
C35   C     C_R   0.632612 0.528425 0.025037 0.036723
C36   C     C_R   0.301870 0.615289 0.053122 -0.206770
H3    H     H_    0.493518 0.273640 0.653235 0.149269
H4    H     H_    0.201626 0.548079 0.880689 0.197351
H5    H     H_    0.202441 0.567438 0.966137 0.162528
H6    H     H_    0.215409 0.646221 0.036626 0.150809
O11   O     O_2   0.731116 0.464179 0.201761 -0.525791
C37   C     C_R   0.736744 0.473015 0.100921 -0.149414
H7    H     H_    0.622496 0.691141 0.354044 0.150254
H8    H     H_    0.633187 0.707448 0.266097 0.148925
H9    H     H_    0.819935 0.437118 0.119120 0.192758
C38   C     C_R   0.745486 0.553330 0.946564 0.374379
C39   C     C_R   0.741046 0.538135 0.896644 -0.117932
O12   O     O_2   0.729268 0.507844 0.796322 -0.526717
C40   C     C_R   0.737350 0.480292 0.050895 -0.214823
H10   H     H_    0.512474 0.732750 0.651432 0.151145
H11   H     H_    0.827701 0.540711 0.876814 0.208689
H12   H     H_    0.517472 0.736961 0.739484 0.152174
H13   H     H_    0.819728 0.442471 0.032878 0.197952
C41   C     C_3   0.071410 0.655878 0.494932 0.163835
C42   C     C_3   0.070586 0.437977 0.546736 0.185314
H14   H     H_    0.105701 0.715893 0.527070 0.137898
H15   H     H_    0.096246 0.514610 0.575878 0.133468
C43   C     C_3   0.928159 0.656613 0.497349 -0.474318
C44   C     C_3   0.926643 0.429045 0.545301 -0.453641
H16   H     H_    0.898515 0.715942 0.530170 0.166402
H17   H     H_    0.888126 0.482480 0.577848 0.160923
H18   H     H_    0.887847 0.713527 0.465996 0.192164
H19   H     H_    0.893488 0.316800 0.546232 0.190006
H20   H     H_    0.890728 0.475512 0.421248 0.162355
H21   H     H_    0.881657 0.311832 0.452960 0.177227
C45   C     C_3   0.067881 0.409310 0.453988 0.723931
C46   C     C_3   0.121222 0.499022 0.497981 -0.093351
C47   C     C_3   0.877240 0.501853 0.499240 -0.071394
C48   C     C_3   0.923961 0.420207 0.454196 -0.299532
C49   C     C_3   0.623604 0.084758 0.514598 -0.189022
C50   C     C_3   0.623332 0.917254 0.514971 -0.191946
H22   H     H_    0.651927 0.126116 0.550633 0.143944
H23   H     H_    0.650274 0.878648 0.551312 0.143043
H24   H     H_    0.695459 0.121266 0.488643 0.150879
H25   H     H_    0.695888 0.879572 0.489559 0.147579
H26   H     H_    0.429861 0.122405 0.572831 0.152394
H27   H     H_    0.427395 0.877431 0.572486 0.142260
C51   C     C_3   0.408657 0.083811 0.535795 -0.173507
C52   C     C_3   0.407907 0.916050 0.535493 -0.197819
C53   C     C_3   0.468024 0.082475 0.453136 -0.184986
C54   C     C_3   0.469334 0.915346 0.452939 -0.164684
N3    N     N_3   0.500250 0.143650 0.501060 -0.134798
N4    N     N_3   0.500250 0.856350 0.501060 -0.127815
H28   H     H_    0.374446 0.119519 0.442367 0.166842
H29   H     H_    0.377305 0.873825 0.440802 0.194058
H30   H     H_    0.534757 0.121208 0.425570 0.157582
H31   H     H_    0.538678 0.879054 0.425957 0.141799
H32   H     H_    0.313807 0.122125 0.527060 0.190990
H33   H     H_    0.312975 0.877619 0.526094 0.171747
C55   C     C_1   0.366342 0.289382 0.344209 0.248145
N5    N     N_1   0.302670 0.199939 0.358741 -0.287824
O13   O     O_3   0.859172 0.590203 0.966085 -0.749166
H34   H     H_    0.844008 0.657404 0.993047 0.329352
O14   O     O_3   0.117076 0.729404 0.454388 -0.700194
H35   H     H_    0.064428 0.706386 0.426044 0.371845
O15   O     O_3   0.125475 0.307873 0.559799 -0.709883
H36   H     H_    0.082066 0.228760 0.543003 0.365382
O16   O     O_3   0.110915 0.461276 0.409310 -0.732265
H37   H     H_    0.203065 0.460012 0.409427 0.308589
O17   O     O_3   0.098146 0.264080 0.458177 -0.747419
H38   H     H_    0.180466 0.247617 0.443374 0.343769
C56   C     C_1   0.497397 0.245882 0.748462 0.268236
N6    N     N_1   0.493952 0.140002 0.769487 -0.268444

loop_
_geom_bond_atom_site_label_1
_geom_bond_atom_site_label_2
_geom_bond_distance
_ccdc_geom_bond_type
C10   H1    1.084493 S    
C53   H30   1.111789 S    
N2    C27   1.366737 A    
C21   C22   1.389494 A    
C12   C15   1.408605 A    
C4    C17   1.473441 S    
O16   H37   0.991376 S    
Cu1   Cu2   2.678831 S    
C30   C31   1.391907 A    
O13   H34   0.991475 S    
Cu1   O7    1.948406 S    
C3    C47   1.477989 S    
N1    C11   1.434255 S    
C43   H16   1.114124 S    
C22   C23   1.397204 A    
C23   C24   1.409087 A    
C50   H25   1.111572 S    
O4    C2    1.298683 A    
O7    C4    1.296602 A    
C49   H22   1.112663 S    
C44   C47   1.548642 S    
C5    C13   1.403187 A    
C38   O13   1.378131 S    
C55   N5    1.156491 T    
C51   N3    1.490303 S    
C5    O9    1.349856 S    
O17   H38   0.989732 S    
C5    N1    1.368508 A    
C35   C40   1.412845 A    
C23   C27   1.403569 A    
Cu2   N3    2.012580 S    
C56   N6    1.157591 T    
O5    C3    1.288109 A    
C41   O14   1.411974 S    
O14   H35   0.990755 S    
C29   H3    1.084191 S    
C2    C16   1.475643 S    
C7    C8    1.393686 A    
C19   C38   1.428449 A    
C53   N3    1.486181 S    
C41   C43   1.542579 S    
C52   H33   1.111184 S    
C42   C46   1.570662 S    
C9    C55   1.441248 S    
C37   H9    1.083390 S    
C51   H32   1.110895 S    
H27   C52   1.111320 S    
O1    Cu1   1.970597 S    
C9    C10   1.398364 A    
C42   O15   1.410844 S    
O3    Cu1   1.946394 S    
O15   H36   0.989975 S    
C54   N4    1.487366 S    
N1    C6    1.368151 A    
C50   N4    1.488647 S    
C12   C34   1.419408 A    
C39   H11   1.083851 S    
C17   C29   1.406241 A    
C21   H5    1.077939 S    
C18   C21   1.414235 A    
C12   C13   1.407756 A    
C45   O16   1.413690 S    
O3    C2    1.295313 A    
C49   H24   1.112025 S    
C25   C26   1.404773 A    
C42   H15   1.113747 S    
C49   C50   1.575512 S    
C8    C16   1.407372 A    
C34   C35   1.418226 A    
C13   C14   1.398098 A    
O6    C3    1.291848 A    
O1    C1    1.290959 A    
C18   C20   1.421041 A    
C7    C11   1.397122 A    
C28   C29   1.399783 A    
C31   H12   1.083219 S    
H20   C48   1.114201 S    
C14   C36   1.390355 A    
C37   C40   1.391101 A    
Cu2   O8    1.946088 S    
C33   C36   1.414007 A    
C53   C54   1.572040 S    
C38   C39   1.393265 A    
H26   C51   1.111292 S    
C19   C20   1.420877 A    
N2    C32   1.433950 S    
C27   O10   1.349642 S    
C47   C48   1.550221 S    
C8    H7    1.083543 S    
C41   C46   1.575347 S    
C44   H17   1.113557 S    
C54   H31   1.112160 S    
Cu1   N4    2.012205 S    
C6    O11   1.349534 S    
C26   N2    1.367147 A    
C9    C16   1.415420 A    
O8    C4    1.298189 A    
C14   H2    1.083479 S    
C50   H23   1.112693 S    
C1    C46   1.488876 S    
Cu1   O5    1.973584 S    
C31   C32   1.398462 A    
C20   C24   1.418831 A    
O2    Cu2   1.973157 S    
C6    C15   1.404845 A    
C43   C47   1.553242 S    
C15   C37   1.398467 A    
O4    Cu2   1.948714 S    
C7    H8    1.082847 S    
C19   C35   1.422303 A    
C45   C48   1.552148 S    
C25   C39   1.397622 A    
C43   H18   1.113044 S    
C26   O12   1.349555 S    
O2    C1    1.292455 A    
C45   O17   1.411526 S    
C42   C44   1.550520 S    
C24   C25   1.407354 A    
C44   H19   1.112684 S    
C40   H13   1.079743 S    
C53   H28   1.108243 S    
C52   N4    1.490318 S    
C51   C52   1.577799 S    
C49   N3    1.489280 S    
H21   C48   1.114023 S    
C18   C33   1.419183 A    
C22   H4    1.083542 S    
C28   C56   1.442229 S    
Cu2   O6    1.971023 S    
C33   C34   1.418020 A    
C17   C30   1.405318 A    
C30   H10   1.083086 S    
C10   C11   1.398511 A    
C41   H14   1.114119 S    
C45   C46   1.585110 S    
C28   C32   1.406803 A    
C54   H29   1.112795 S    
C36   H6    1.078127 S    
