data_mof_unit_58678.cif
_audit_creation_date              2012-12-11T16:08:46-0500
_audit_creation_method            fapswitch 2.2
_symmetry_space_group_name_H-M    P1
_symmetry_Int_Tables_number       1
_space_group_crystal_system       triclinic
_cell_length_a                    12.951128
_cell_length_b                    13.268087
_cell_length_c                    27.715323
_cell_angle_alpha                 94.750925
_cell_angle_beta                  90.335339
_cell_angle_gamma                 119.285272
_cell_volume                      4133.67118912

loop_
_atom_site_label
_atom_site_type_symbol
_atom_type_description
_atom_site_fract_x
_atom_site_fract_y
_atom_site_fract_z
_atom_type_partial_charge
C1    C     C_R   0.627905 0.895412 0.427417 0.544578
C2    C     C_R   0.653241 0.418101 0.236982 -0.103139
C3    C     C_R   0.645345 0.402571 0.286369 -0.102176
C4    C     C_R   0.671523 0.321642 0.304371 0.033992
C5    C     C_R   0.686771 0.352435 0.205262 0.034225
C6    C     C_1   0.695749 0.371163 0.154669 -0.062921
C7    C     C_1   0.654047 0.298257 0.354355 -0.056727
C8    C     C_1   0.704230 0.396140 0.113479 -0.019136
C9    C     C_R   0.183844 0.751074 0.349855 -0.124434
C10   C     C_R   0.170762 0.744786 0.299934 0.014251
C11   C     C_R   0.160679 0.739660 0.199364 0.001930
C12   C     C_R   0.601036 0.222064 0.440553 0.543998
C13   C     C_R   0.163862 0.649546 0.221092 -0.120827
C14   C     C_R   0.166894 0.651153 0.271181 -0.116754
C15   C     C_R   0.148984 0.733122 0.149495 -0.162589
C16   C     C_R   0.127108 0.812417 0.127382 0.016098
C17   C     C_R   0.198389 0.941488 0.357756 -0.133676
C18   C     C_R   0.179129 0.933760 0.307633 0.014441
C19   C     C_R   0.169779 0.837059 0.278471 0.063457
C20   C     C_R   0.177128 0.024334 0.285950 -0.131818
C21   C     C_R   0.165652 0.019258 0.235627 -0.128386
C22   C     C_R   0.156716 0.923435 0.205882 0.022544
C23   C     C_R   0.268159 0.875772 0.425881 0.545947
C24   C     C_R   0.162291 0.833524 0.227852 0.036134
C25   C     C_R   0.138874 0.912730 0.154941 0.127818
C26   C     C_R   0.207438 0.852990 0.378454 -0.007869
C27   C     C_R   0.751996 0.938275 0.357335 -0.132210
C28   C     C_R   0.757121 0.928169 0.307445 0.011035
C29   C     C_R   0.759715 0.916395 0.206783 0.019198
C30   C     C_R   0.850127 0.011920 0.234885 -0.135399
C31   C     C_R   0.849759 0.016952 0.285063 -0.130150
C32   C     C_R   0.764197 0.908079 0.156871 -0.128013
C33   C     C_R   0.684905 0.805050 0.128845 -0.002563
C34   C     C_R   0.627599 0.898513 0.564923 0.547059
C35   C     C_R   0.563316 0.758865 0.352374 -0.105752
C36   C     C_R   0.569491 0.743852 0.302032 0.052611
C37   C     C_R   0.664856 0.831817 0.279471 0.015626
C38   C     C_R   0.479673 0.646420 0.273668 0.234624
C39   C     C_R   0.486254 0.638121 0.222887 -0.132956
C40   C     C_R   0.579178 0.726815 0.200481 -0.022131
C41   C     C_R   0.667485 0.825050 0.228911 0.048185
C42   C     C_R   0.589077 0.716648 0.150293 -0.135213
C43   C     C_R   0.651345 0.858966 0.379505 -0.028111
C44   C     C_R   0.747746 0.298915 0.650778 0.128493
C45   C     C_R   0.604796 0.228788 0.578086 0.559327
C46   C     C_R   0.758867 0.318364 0.701801 0.012055
C47   C     C_R   0.766221 0.339458 0.804290 0.060696
C48   C     C_R   0.847937 0.317370 0.779094 -0.118068
C49   C     C_R   0.846104 0.309709 0.728748 -0.163776
C50   C     C_R   0.770371 0.352994 0.855495 0.137845
C51   C     C_R   0.688515 0.379595 0.878842 0.004103
C52   C     C_R   0.577743 0.331094 0.650528 -0.165225
C53   C     C_R   0.589228 0.352562 0.700592 0.009976
C54   C     C_R   0.676537 0.341284 0.726611 0.032825
C55   C     C_R   0.508476 0.376508 0.725121 -0.126244
C56   C     C_R   0.271233 0.879135 0.563250 0.543752
C57   C     C_R   0.509960 0.383525 0.775333 -0.125021
C58   C     C_R   0.594280 0.369717 0.801504 0.009725
C59   C     C_R   0.679672 0.350900 0.777525 0.037808
C60   C     C_R   0.596867 0.379577 0.851506 -0.152098
C61   C     C_R   0.649127 0.294219 0.625986 0.017974
C62   C     C_1   0.218263 0.861186 0.609294 -0.011246
C63   C     C_R   0.080360 0.742005 0.717310 -0.146602
C64   C     C_R   0.065935 0.731186 0.767190 0.226628
C65   C     C_R   0.212640 0.936748 0.784550 0.115062
C66   C     C_R   0.225098 0.947150 0.734245 0.188485
C67   C     C_1   0.633690 0.270095 0.394980 -0.012282
C68   C     C_R   0.160482 0.848159 0.700892 0.003080
C69   C     C_R   0.134386 0.827892 0.800824 0.051677
C70   C     C_1   0.119102 0.814322 0.851994 -0.003808
C71   C     C_1   0.186329 0.852451 0.650256 -0.029288
C72   C     C_1   0.097701 0.796736 0.893741 -0.011148
C73   C     C_1   0.650336 0.858392 0.608321 -0.023542
C74   C     C_R   0.798028 0.866103 0.719974 0.165693
C75   C     C_R   0.808047 0.849082 0.768815 -0.057246
C76   C     C_R   0.598969 0.707686 0.766439 -0.113808
C77   C     C_R   0.587956 0.723316 0.717760 -0.131656
C78   C     C_R   0.705973 0.256527 0.272734 -0.104672
C79   C     C_R   0.686217 0.803498 0.694416 0.040503
C80   C     C_R   0.708440 0.772193 0.792345 0.012785
C81   C     C_1   0.718411 0.763305 0.843521 -0.053388
C82   C     C_1   0.667551 0.830525 0.646701 -0.062650
C83   C     C_1   0.729972 0.758422 0.886399 -0.011356
C84   C     C_R   0.065733 0.773324 0.079170 0.562559
C85   C     C_R   0.717007 0.441168 0.067284 0.545973
C86   C     C_R   0.720489 0.782673 0.081032 0.556020
C87   C     C_R   0.056037 0.766130 0.941060 0.534793
C88   C     C_R   0.709863 0.433481 0.928987 0.538737
C89   C     C_R   0.713888 0.272083 0.223275 -0.106927
C90   C     C_R   0.749818 0.753690 0.937073 0.568628
Cr1   Cr    Cr6+3 0.416430 0.829200 0.492370 1.025817
Cr2   Cr    Cr6+3 0.674630 0.087020 0.504170 1.033682
Cr3   Cr    Cr6+3 0.408920 0.083740 0.503490 1.017117
Cr4   Cr    Cr6+3 0.914010 0.832750 0.013970 1.028111
Cr5   Cr    Cr6+3 0.922310 0.578600 0.003000 0.997387
Cr6   Cr    Cr6+3 0.656280 0.574630 0.003870 1.012102
H1    H     H_    0.725135 0.192693 0.286188 0.119086
H2    H     H_    0.165063 0.091594 0.220602 0.108279
H3    H     H_    0.185409 0.099674 0.307905 0.111067
H4    H     H_    0.215290 0.019798 0.379946 0.127737
H5    H     H_    0.837279 0.977875 0.140486 0.127691
H6    H     H_    0.821305 0.014736 0.378256 0.135480
H7    H     H_    0.922149 0.081627 0.218070 0.094487
H8    H     H_    0.920470 0.091437 0.306345 0.104842
H9    H     H_    0.527051 0.637439 0.128582 0.124339
H10   H     H_    0.418747 0.562640 0.200890 0.088314
H11   H     H_    0.740444 0.221270 0.199174 0.110583
H12   H     H_    0.486556 0.697138 0.370033 0.182243
H13   H     H_    0.914413 0.306147 0.797864 0.140099
H14   H     H_    0.912858 0.295118 0.711504 0.105834
H15   H     H_    0.532010 0.397385 0.868999 0.137480
H16   H     H_    0.445210 0.399900 0.793719 0.097041
H17   H     H_    0.441726 0.386068 0.705422 0.097542
H18   H     H_    0.505467 0.332458 0.631163 0.126821
H19   H     H_    0.031253 0.666751 0.691284 0.102913
H20   H     H_    0.632641 0.480961 0.223474 0.119485
H21   H     H_    0.893328 0.897609 0.788674 0.120312
H22   H     H_    0.521474 0.647461 0.784182 0.113219
H23   H     H_    0.501618 0.675578 0.698743 0.113181
H24   H     H_    0.617376 0.452439 0.310322 0.127672
H25   H     H_    0.144137 0.658282 0.128307 0.137390
H26   H     H_    0.188380 0.681267 0.365785 0.142226
H27   H     H_    0.161780 0.576763 0.199322 0.103493
H28   H     H_    0.168977 0.580594 0.287440 0.132680
O1    O     O_R   0.296680 0.802170 0.437540 -0.519264
O2    O     O_R   0.662610 0.183990 0.557860 -0.459434
O3    O     O_R   0.500730 0.201280 0.562180 -0.530636
O4    O     O_R   0.312500 0.978850 0.548170 -0.495633
O5    O     O_3   0.499990 0.999990 0.500010 -0.243825
O6    O     O_R   0.820790 0.857990 0.068830 -0.511623
O7    O     O_R   0.016700 0.827330 0.062850 -0.457191
O8    O     O_R   0.041970 0.673520 0.060040 -0.530298
O9    O     O_R   0.817980 0.483660 0.048840 -0.493650
O10   O     O_R   0.637200 0.461990 0.052510 -0.512024
O11   O     O_R   0.664790 0.681920 0.057970 -0.496989
O12   O     O_R   0.525380 0.838530 0.443500 -0.502302
O13   O     O_R   0.815840 0.852920 0.961840 -0.508185
O14   O     O_R   0.012100 0.822630 0.963670 -0.515286
O15   O     O_R   0.037010 0.668460 0.953040 -0.522235
O16   O     O_R   0.813390 0.478970 0.949660 -0.493822
O17   O     O_R   0.632250 0.456930 0.945520 -0.534292
O18   O     O_R   0.660200 0.677230 0.958780 -0.495272
O19   O     O_3   0.830870 0.661990 0.006950 -0.263961
O20   O     O_R   0.702130 0.995190 0.446810 -0.519655
O21   O     O_R   0.661770 0.181390 0.458760 -0.497225
O22   O     O_R   0.499820 0.198480 0.455280 -0.509548
O23   O     O_R   0.311660 0.976250 0.449080 -0.501521
O24   O     O_R   0.297580 0.804960 0.544440 -0.510940
O25   O     O_R   0.526220 0.841130 0.542590 -0.493815
O26   O     O_R   0.703030 0.997990 0.553710 -0.505882
O27   O     O_3   0.387104 0.560667 0.296100 -0.733458
H29   H     H_    0.332033 0.499485 0.271066 0.313283
N1    N     N_2   0.853025 0.335839 0.883092 -0.530119
H30   H     H_    0.823617 0.298691 0.915030 0.254032
C91   C     C_3   0.975828 0.427452 0.885853 -0.267063
H31   H     H_    0.005408 0.463073 0.924139 0.170188
H32   H     H_    0.989191 0.499449 0.864184 0.202308
H33   H     H_    0.032306 0.391018 0.872206 0.118391
N2    N     N_2   0.829713 0.276499 0.624392 -0.485237
H34   H     H_    0.847710 0.215712 0.637238 0.246895
C92   C     C_3   0.933164 0.379367 0.611283 -0.301633
H35   H     H_    0.988030 0.353692 0.588310 0.138420
H36   H     H_    0.987283 0.433381 0.644308 0.128111
H37   H     H_    0.906138 0.431251 0.590273 0.154761
O28   O     O_3   0.986685 0.626722 0.783933 -0.711810
H38   H     H_    0.944460 0.568690 0.755811 0.327093
N3    N     N_2   0.279929 0.035888 0.818327 -0.524131
H39   H     H_    0.310940 0.018736 0.849212 0.252429
C93   C     C_3   0.224784 0.106646 0.828969 -0.311104
H40   H     H_    0.141960 0.057592 0.848084 0.140650
H41   H     H_    0.203691 0.133674 0.795124 0.159406
H42   H     H_    0.286631 0.186041 0.852561 0.139185
N4    N     N_2   0.308040 0.055170 0.717285 -0.496058
H43   H     H_    0.378541 0.111571 0.740831 0.287198
C94   C     C_3   0.258907 0.111464 0.689694 -0.298758
H44   H     H_    0.257981 0.183235 0.712944 0.117477
H45   H     H_    0.166878 0.050242 0.675210 0.163269
H46   H     H_    0.314840 0.147909 0.658686 0.160955
N5    N     N_2   0.900414 0.947399 0.697513 -0.523348
H47   H     H_    0.898152 0.932351 0.660321 0.254508
C95   C     C_3   0.939655 0.067674 0.713734 -0.322608
H48   H     H_    0.019938 0.124747 0.694786 0.124449
H49   H     H_    0.962593 0.085083 0.753343 0.146183
H50   H     H_    0.868936 0.088989 0.705357 0.148766
N6    N     N_2   0.125499 0.997510 0.131410 -0.492650
H51   H     H_    0.073483 0.027339 0.148248 0.239387
C96   C     C_3   0.234223 0.087820 0.114491 -0.299821
H52   H     H_    0.214553 0.145620 0.094129 0.135579
H53   H     H_    0.275687 0.049195 0.089789 0.156033
H54   H     H_    0.297254 0.140384 0.145685 0.137644

loop_
_geom_bond_atom_site_label_1
_geom_bond_atom_site_label_2
_ccdc_geom_bond_type
C39   H10   S    
C66   C68   A    
Cr5   O19   S    
O28   H38   S    
C91   H32   S    
C93   H40   S    
C73   C82   T    
C35   C36   A    
C75   H21   S    
C42   H9    S    
C16   C84   S    
C90   O13   A    
C92   H35   S    
C34   O26   A    
N3    C93   S    
C53   C54   A    
C46   C49   A    
Cr5   O16   S    
C29   C30   A    
C33   C42   A    
C36   C37   A    
C1    O20   A    
C18   C19   A    
C29   C32   A    
C52   C61   A    
C5    C6    S    
C13   H27   S    
N6    C96   S    
C57   H16   S    
C50   N1    S    
C58   C60   A    
C15   C16   A    
C11   C24   A    
Cr5   O9    S    
C7    C67   T    
C8    C85   S    
C23   C26   S    
C12   O22   A    
C88   O16   A    
C96   H54   S    
C35   H12   S    
C92   H36   S    
Cr6   O17   S    
C2    H20   S    
C1    C43   S    
N6    H51   S    
Cr1   O12   S    
N2    H34   S    
C22   C25   A    
C30   H7    S    
O27   H29   S    
N2    C92   S    
C66   N4    S    
C47   C50   A    
C1    O12   A    
C35   C43   A    
C75   C80   A    
C45   O2    A    
C18   C20   A    
C85   O10   A    
C23   O1    A    
C63   H19   S    
C40   C42   A    
C48   H13   S    
N4    H43   S    
C21   C22   A    
C91   H33   S    
C37   C41   A    
C93   H41   S    
C46   C54   A    
C11   C15   A    
C4    C7    S    
Cr3   O5    S    
Cr1   O24   S    
C81   C83   T    
C34   O25   A    
C44   C46   A    
C9    C26   A    
C50   C51   A    
Cr6   O11   S    
C54   C59   A    
C53   C55   A    
C78   C89   A    
C38   C39   A    
C12   C67   S    
C14   H28   S    
C74   C75   A    
C74   N5    S    
C76   C77   A    
C94   H45   S    
C10   C14   A    
C95   H49   S    
N3    H39   S    
Cr1   O25   S    
C94   H46   S    
C86   O6    A    
Cr6   O10   S    
C55   H17   S    
C58   C59   A    
C95   H48   S    
C47   C59   A    
C84   O8    A    
C76   H22   S    
N5    H47   S    
C12   O21   A    
C56   O24   A    
C33   C86   S    
Cr3   O3    S    
C4    C78   A    
C64   O28   S    
C47   C48   A    
C10   C19   A    
C89   H11   S    
C78   H1    S    
C17   C18   A    
C77   C79   A    
Cr3   O22   S    
Cr4   O6    S    
C64   C69   A    
C90   O18   A    
N4    C94   S    
C25   N6    S    
C48   C49   A    
C27   H6    S    
C74   C79   A    
C55   C57   A    
Cr2   O26   S    
Cr5   O8    S    
Cr4   O14   S    
C93   H42   S    
C22   C24   A    
C2    C5    A    
N1    C91   S    
Cr4   O19   S    
C87   O14   A    
C9    H26   S    
C3    C4    A    
C38   O27   S    
C39   C40   A    
C72   C87   S    
C52   C53   A    
C92   H37   S    
C9    C10   A    
C95   H50   S    
C16   C25   A    
Cr4   O13   S    
C83   C90   S    
C63   C68   A    
C40   C41   A    
Cr1   O1    S    
C29   C41   A    
Cr2   O21   S    
C19   C24   A    
C28   C31   A    
C76   C80   A    
C87   O15   A    
C80   C81   S    
C77   H23   S    
Cr2   O2    S    
C51   C88   S    
C79   C82   S    
C6    C8    T    
Cr2   O5    S    
Cr1   O5    S    
C52   H18   S    
C44   C61   A    
C65   N3    S    
C84   O7    A    
Cr5   O15   S    
Cr4   O7    S    
C32   C33   A    
C36   C38   A    
C2    C3    A    
N1    H30   S    
Cr3   O4    S    
C96   H52   S    
C94   H44   S    
C31   H8    S    
Cr6   O19   S    
C21   H2    S    
C11   C13   A    
C57   C58   A    
C30   C31   A    
C20   H3    S    
C23   O23   A    
C28   C37   A    
C45   O3    A    
C68   C71   S    
C65   C69   A    
C45   C61   S    
C17   C26   A    
C62   C71   T    
Cr3   O23   S    
C56   C62   S    
C56   O4    A    
C15   H25   S    
C69   C70   S    
Cr2   O20   S    
C17   H4    S    
C96   H53   S    
C3    H24   S    
C34   C73   S    
Cr6   O18   S    
C63   C64   A    
C27   C43   A    
C86   O11   A    
C20   C21   A    
C65   C66   A    
C91   H31   S    
C60   H15   S    
C44   N2    S    
C32   H5    S    
C70   C72   T    
C51   C60   A    
N5    C95   S    
C88   O17   A    
C13   C14   A    
C5    C89   A    
C85   O9    A    
C49   H14   S    
C27   C28   A    
