data_mof_unit_42604.cif
_audit_creation_date              2012-12-10T18:59:17-0500
_audit_creation_method            fapswitch 2.2
_symmetry_space_group_name_H-M    P1
_symmetry_Int_Tables_number       1
_space_group_crystal_system       triclinic
_cell_length_a                    10.797651
_cell_length_b                    10.819804
_cell_length_c                    9.561636
_cell_angle_alpha                 89.935443
_cell_angle_beta                  90.097914
_cell_angle_gamma                 89.663715
_cell_volume                      1117.04968696

loop_
_atom_site_label
_atom_site_type_symbol
_atom_type_description
_atom_site_fract_x
_atom_site_fract_y
_atom_site_fract_z
_atom_type_partial_charge
C1    C     C_R   0.503114 0.262549 0.500147 0.801488
C2    C     C_R   0.064202 0.601476 0.581845 0.100702
C3    C     C_R   0.128586 0.512267 0.500789 -0.110693
C4    C     C_R   0.064360 0.428820 0.416760 -0.188801
C5    C     C_R   0.936513 0.428281 0.416747 -0.210617
C6    C     C_R   0.870891 0.512580 0.498927 -0.098007
C7    C     C_R   0.485878 0.064504 0.623265 0.141752
C8    C     C_R   0.514882 0.129579 0.501951 -0.097683
C9    C     C_R   0.558151 0.064612 0.384602 -0.224728
C10   C     C_R   0.557431 0.935608 0.384901 -0.221904
C11   C     C_R   0.511604 0.871221 0.501443 -0.090918
C12   C     C_R   0.262525 0.504274 0.500170 0.791077
C13   C     C_R   0.482763 0.937137 0.622618 0.123506
C14   C     C_3   0.366210 0.935556 0.706829 -0.502867
C15   C     C_3   0.372326 0.075179 0.710933 -0.473558
C16   C     C_R   0.586945 0.564798 0.073673 0.180586
C17   C     C_R   0.422770 0.424245 0.075130 0.574506
C18   C     C_R   0.421620 0.426790 0.925023 -0.187554
C19   C     C_R   0.587823 0.563934 0.926534 0.258019
C20   C     C_3   0.610065 0.699692 0.920798 -0.492655
C21   C     C_3   0.606897 0.700619 0.078996 -0.496131
C22   C     C_R   0.501516 0.737768 0.500047 0.770393
C23   C     C_R   0.737338 0.503452 0.499841 0.779591
C24   C     C_R   0.126319 0.691166 0.662986 -0.192172
C25   C     C_R   0.060221 0.780985 0.736685 -0.141693
C26   C     C_R   0.931863 0.785783 0.727749 -0.141851
C27   C     C_R   0.868621 0.698746 0.648145 -0.186965
C28   C     C_R   0.933287 0.603483 0.577702 0.104624
Cu1   Cu    Cu3+1 0.499990 0.499980 0.640670 0.936157
Cu2   Cu    Cu3+1 0.500010 0.500020 0.359330 0.980788
H1    H     H_    0.113606 0.361323 0.353829 0.176583
H2    H     H_    0.378097 0.892371 0.811356 0.192083
H3    H     H_    0.294026 0.121467 0.655689 0.194311
H4    H     H_    0.393383 0.112185 0.816581 0.188560
H5    H     H_    0.355422 0.372184 0.867371 0.159488
H6    H     H_    0.702811 0.722113 0.878779 0.194677
H7    H     H_    0.532127 0.751845 0.873127 0.213732
H8    H     H_    0.697205 0.724742 0.127481 0.198531
H9    H     H_    0.524960 0.751189 0.120267 0.210175
H10   H     H_    0.225968 0.694518 0.669054 0.153533
H11   H     H_    0.108858 0.848725 0.798903 0.137239
H12   H     H_    0.881127 0.857802 0.781867 0.130925
H13   H     H_    0.769231 0.708595 0.640106 0.141053
H14   H     H_    0.888383 0.360065 0.354340 0.150195
H15   H     H_    0.588349 0.113025 0.291609 0.158189
H16   H     H_    0.589060 0.887077 0.292997 0.155458
H17   H     H_    0.286216 0.902049 0.644894 0.196974
N1    N     N_R   0.500790 0.500930 0.147930 -0.230183
N2    N     N_R   0.500790 0.500890 0.852020 -0.210075
O1    O     O_R   0.500000 0.319640 0.618810 -0.581065
O2    O     O_R   0.500010 0.319680 0.381230 -0.551370
O3    O     O_R   0.319640 0.499980 0.618820 -0.591660
O4    O     O_R   0.319650 0.500020 0.381230 -0.522430
O5    O     O_R   0.499990 0.680320 0.618770 -0.591979
O6    O     O_R   0.500000 0.680360 0.381190 -0.585485
O7    O     O_R   0.680350 0.499980 0.618770 -0.577995
O8    O     O_R   0.680360 0.500020 0.381180 -0.581740
O9    O     O_3   0.338556 0.354198 0.149893 -0.543988
C29   C     C_3   0.339693 0.230140 0.104398 -0.364186
H18   H     H_    0.301484 0.171691 0.189216 0.197690
H19   H     H_    0.434984 0.195223 0.082103 0.144302
H20   H     H_    0.278701 0.218838 0.011758 0.154066

loop_
_geom_bond_atom_site_label_1
_geom_bond_atom_site_label_2
_ccdc_geom_bond_type
C10   H16   S    
Cu2   O2    S    
C9    H15   S    
C16   C21   S    
Cu1   O7    S    
C1    C8    S    
C11   C13   A    
C9    C10   A    
C19   N2    A    
C11   C22   S    
C12   O4    A    
C21   H9    S    
C17   N1    A    
C7    C13   A    
C17   O9    S    
Cu1   O5    S    
C16   N1    A    
C7    C15   S    
C17   C18   A    
O9    C29   S    
C22   O6    A    
C29   H18   S    
C22   O5    A    
Cu1   N2    S    
C13   C14   S    
C20   C21   S    
C20   H7    S    
C1    O2    A    
C26   C27   A    
C14   H17   S    
C16   C19   A    
C6    C23   S    
Cu2   N1    S    
C12   O3    A    
C5    H14   S    
C1    O1    A    
C2    C3    A    
Cu1   O1    S    
C2    C24   A    
C5    C6    A    
Cu2   O4    S    
C29   H19   S    
C4    H1    S    
C7    C8    A    
C10   C11   A    
Cu1   Cu2   S    
C3    C4    A    
C20   H6    S    
Cu2   O8    S    
C27   H13   S    
C23   O7    A    
C24   C25   A    
C26   H12   S    
C18   H5    S    
C25   H11   S    
C27   C28   A    
C23   O8    A    
C14   C15   S    
C4    C5    A    
C29   H20   S    
C2    C28   A    
C3    C12   S    
C15   H4    S    
C24   H10   S    
C25   C26   A    
Cu2   O6    S    
C15   H3    S    
C6    C28   A    
C21   H8    S    
C19   C20   S    
C18   N2    A    
C14   H2    S    
C8    C9    A    
Cu1   O3    S    
