data_mof_unit_67373.cif
_audit_creation_date              2013-03-05T16:08:41-0500
_audit_creation_method            fapswitch 2.2
_symmetry_space_group_name_H-M    P1
_symmetry_Int_Tables_number       1
_space_group_crystal_system       triclinic
_cell_length_a                    8.550218
_cell_length_b                    15.116092
_cell_length_c                    16.501505
_cell_angle_alpha                 111.19578
_cell_angle_beta                  97.658866
_cell_angle_gamma                 80.985978
_cell_volume                      1957.10264123

loop_
_atom_site_label
_atom_site_type_symbol
_atom_site_description
_atom_site_fract_x
_atom_site_fract_y
_atom_site_fract_z
_atom_type_partial_charge
P1    P     P_3+3 0.592580 0.619750 0.703570 0.586368
O1    O     O_2   0.428380 0.595300 0.716110 -0.309144
O2    O     O_3   0.649320 0.571650 0.606870 -0.381321
O3    O     O_3   0.202060 0.415880 0.655570 -0.396244
O4    O     O_2   0.331469 0.512612 0.810052 -0.277846
O5    O     O_3   0.583342 0.744366 0.739829 -0.566559
O6    O     O_3   0.291214 0.335904 0.782935 -0.481432
H1    H     H_    0.297656 0.250394 0.652747 0.118838
C1    C     C_3   0.289185 0.166093 0.731833 -0.713776
H2    H     H_    0.417102 0.159617 0.753304 0.282760
H3    H     H_    0.220368 0.164774 0.783582 0.308275
P2    P     P_3+3 0.156510 0.273300 0.422380 0.635547
P3    P     P_3+3 0.661265 0.240860 0.602234 0.615613
O7    O     O_2   0.338790 0.265210 0.448200 -0.337933
O8    O     O_3   0.612600 0.359140 0.609510 -0.272786
O9    O     O_2   0.532807 0.187317 0.536465 -0.328667
O10   O     O_3   0.142996 0.216040 0.306816 -0.434610
O11   O     O_3   0.620374 0.232038 0.700225 -0.676578
C2    C     C_3   0.688263 0.302884 0.771605 1.343370
C3    C     C_3   0.675588 0.284295 0.856022 0.688220
H4    H     H_    0.549015 0.285078 0.864215 0.071548
C4    C     C_3   0.716705 0.189715 0.257305 1.019331
C5    C     C_3   0.686671 0.112249 0.166765 0.693695
H5    H     H_    0.571644 0.087239 0.166383 0.041700
Ba1   Ba    Ba6+2 0.364200 0.465260 0.540900 1.805543
C6    C     C_3   0.493751 0.779940 0.679258 1.025518
H6    H     H_    0.545592 0.749077 0.615144 -0.101930
C7    C     C_3   0.491896 0.888887 0.712452 -0.094235
H7    H     H_    0.417810 0.918160 0.665319 0.042330
H8    H     H_    0.615035 0.905713 0.716120 0.206736
C8    C     C_3   0.185306 0.269658 0.260324 0.108483
H9    H     H_    0.306379 0.288449 0.283656 0.078466
H10   H     H_    0.104644 0.337676 0.273759 0.091266
C9    C     C_3   0.174948 0.212399 0.158121 0.473726
P4    P     P_3+3 0.597130 0.380170 0.296420 0.700048
O12   O     O_2   0.761310 0.404660 0.283830 -0.254559
O13   O     O_3   0.540390 0.428270 0.393120 -0.344227
O14   O     O_3   0.987650 0.584040 0.344420 -0.368338
O15   O     O_3   0.580608 0.257210 0.268137 -0.634289
P5    P     P_3+3 0.526618 0.764468 0.406761 0.561885
O16   O     O_3   0.122130 0.620580 0.549200 -0.373932
O17   O     O_3   0.577110 0.640790 0.390470 -0.350143
O18   O     O_2   0.677375 0.807686 0.457726 -0.327877
O19   O     O_3   0.524037 0.795528 0.311974 -0.564203
Ba2   Ba    Ba6+2 0.825630 0.534670 0.459090 1.795579
P6    P     P_3+3 0.206067 0.442223 0.767364 0.575325
C10   C     C_3   0.240307 0.257813 0.711794 0.368312
H11   H     H_    0.109190 0.266110 0.698195 0.095423
H12   H     H_    0.268090 0.103187 0.672898 0.169637
O20   O     O_3   0.067580 0.379340 0.450790 -0.342089
C11   C     C_3   0.003163 0.734690 0.737303 0.102701
H13   H     H_    0.889441 0.705953 0.706886 0.053384
H14   H     H_    0.100127 0.675230 0.732914 0.083241
C12   C     C_3   0.984625 0.797466 0.832884 0.796548
H15   H     H_    0.083603 0.842629 0.857519 0.125311
P7    P     P_3+3 0.033561 0.740463 0.583536 0.613999
O21   O     O_2   0.850900 0.734750 0.551740 -0.342049
O22   O     O_3   0.044041 0.793678 0.697176 -0.451955
C13   C     C_3   0.458106 0.731312 0.232968 0.373042
H16   H     H_    0.364698 0.697070 0.245408 0.080736
C14   C     C_3   0.378119 0.786867 0.170995 0.264198
H17   H     H_    0.301182 0.849038 0.211143 0.182311
P8    P     P_3+3 0.991598 0.553002 0.231662 0.616972
C15   C     C_3   0.929600 0.738735 0.277179 0.383132
O23   O     O_2   0.877808 0.476798 0.183930 -0.219709
O24   O     O_3   0.920821 0.654405 0.203087 -0.560069
H18   H     H_    0.868733 0.734574 0.330864 0.062882
C16   C     C_3   0.841115 0.823119 0.253987 1.350915
H19   H     H_    0.720999 0.807778 0.229583 -0.043557
C17   C     C_2   0.302621 0.484111 0.253405 -0.567488
C18   C     C_R   0.896107 0.534598 0.756601 -0.396371
C19   C     C_2   0.501037 0.428716 0.146914 0.809715
C20   C     C_2   0.460969 0.435824 0.225912 0.039584
C21   C     C_2   0.189811 0.506127 0.196015 0.230100
C22   C     C_3   0.224335 0.479606 0.101586 -0.061441
C23   C     C_3   0.398785 0.482140 0.094106 0.143299
C24   C     C_2   0.111431 0.519427 0.040081 -0.134187
C25   C     C_2   0.079639 0.465209 0.955091 0.400592
C26   C     C_R   0.814564 0.546891 0.917892 0.354894
C27   C     C_R   0.967789 0.503690 0.893584 -0.202474
C28   C     C_R   0.702176 0.579945 0.861465 -0.066500
C29   C     C_R   0.740053 0.571921 0.778651 0.237983
C30   C     C_R   0.007636 0.495475 0.809785 0.265459
H20   H     H_    0.586075 0.612529 0.883059 0.205265
H21   H     H_    0.275832 0.497143 0.319495 0.198843
H22   H     H_    0.934150 0.540286 0.699280 0.166563
H23   H     H_    0.061398 0.593654 0.063629 0.197798
C31   C     C_R   0.356465 0.830897 0.475467 0.264122
C32   C     C_R   0.293378 0.926739 0.484891 -0.093603
C33   C     C_R   0.150129 0.109064 0.480938 -0.221327
C34   C     C_R   0.288324 0.061939 0.438997 0.301949
C35   C     C_R   0.373748 0.984860 0.459713 0.235456
C36   C     C_R   0.077485 0.201076 0.479675 0.132732
C37   C     C_R   0.935558 0.239333 0.521422 0.027452
C38   C     C_R   0.126817 0.817076 0.542622 0.333367
C39   C     C_R   0.068461 0.914010 0.555839 -0.287510
C40   C     C_R   0.146271 0.966322 0.520519 -0.005414
C41   C     C_R   0.939485 0.962692 0.605637 0.859641
C42   C     C_R   0.881969 0.055782 0.612558 -0.165266
C43   C     C_R   0.940762 0.102751 0.566429 -0.120263
C44   C     C_R   0.080005 0.060322 0.523666 0.047514
C45   C     C_R   0.864138 0.190701 0.562559 0.188570
C46   C     C_R   0.271385 0.778390 0.505090 -0.367998
H24   H     H_    0.786249 0.088970 0.652929 0.230186
H25   H     H_    0.316381 0.704645 0.495949 0.162726
F1    F     F_    0.672287 0.151276 0.101868 -0.524281
N1    N     N_R   0.805248 0.028287 0.145884 0.258884
O25   O     O_R   0.953571 0.035801 0.173214 -0.213322
O26   O     O_R   0.768719 0.950600 0.083493 -0.156703
F2    F     F_    0.341871 0.758179 0.671052 -0.713301
N2    N     N_R   0.430761 0.936134 0.798598 0.313744
O27   O     O_R   0.434904 0.027533 0.837389 -0.240774
O28   O     O_R   0.371739 0.889144 0.837355 -0.248659
N3    N     N_R   0.270662 0.118046 0.134839 0.239239
O29   O     O_R   0.262883 0.062074 0.177191 -0.233612
O30   O     O_R   0.319719 0.078373 0.056832 -0.203615
N4    N     N_R   0.234040 0.267263 0.113908 0.166742
O31   O     O_R   0.137182 0.299395 0.060512 -0.285459
O32   O     O_R   0.385132 0.256438 0.104857 -0.337340
N5    N     N_R   0.009713 0.198467 0.123727 0.286339
O33   O     O_R   0.980711 0.121379 0.058230 -0.177166
O34   O     O_R   0.904385 0.273034 0.136063 -0.198158
F3    F     F_    0.843371 0.857726 0.838779 -0.587781
N6    N     N_R   0.989358 0.740349 0.887863 0.172003
O35   O     O_R   0.875690 0.755224 0.938034 -0.259119
O36   O     O_R   0.120568 0.688288 0.899435 -0.393859
N7    N     N_R   0.760290 0.191870 0.854754 0.233726
O37   O     O_R   0.870565 0.187490 0.916006 -0.133414
O38   O     O_R   0.707719 0.113143 0.802016 -0.368182
N8    N     N_R   0.580436 0.654729 0.193099 0.192356
O39   O     O_R   0.638749 0.597290 0.234350 -0.384262
O40   O     O_R   0.625421 0.637992 0.116145 -0.336459
N9    N     N_R   0.490324 0.825511 0.136064 0.263519
O41   O     O_R   0.530955 0.782797 0.056609 -0.226181
O42   O     O_R   0.519805 0.913287 0.176178 -0.294244
N10   N     N_R   0.275543 0.729006 0.099455 0.219195
O43   O     O_R   0.130145 0.764142 0.085427 -0.224627
O44   O     O_R   0.334984 0.652221 0.040085 -0.341550
N11   N     N_R   0.094186 0.755653 0.307649 0.179401
O45   O     O_R   0.186847 0.695331 0.336643 -0.510399
O46   O     O_R   0.144296 0.835674 0.316267 -0.415556
F4    F     F_    0.910020 0.837821 0.189789 -0.579245
F5    F     F_    0.836699 0.904896 0.326966 -0.620244
F6    F     F_    0.605676 0.391006 0.778596 -0.680752
F7    F     F_    0.635473 0.375193 0.113751 -0.527179
N12   N     N_R   0.144300 0.366283 0.924523 0.286211
O47   O     O_R   0.292647 0.339370 0.942994 -0.315680
O48   O     O_R   0.051616 0.301405 0.882680 -0.278587
N13   N     N_R   0.291779 0.055798 0.351713 0.266812
O49   O     O_R   0.174473 0.019584 0.297509 -0.220402
O50   O     O_R   0.426730 0.051088 0.321845 -0.268782
N14   N     N_R   0.538565 0.987521 0.486479 0.251973
O51   O     O_R   0.587570 0.984658 0.563570 -0.426340
O52   O     O_R   0.634851 0.005160 0.441143 -0.237492
F8    F     F_    0.845458 0.304118 0.761400 -0.762237
F9    F     F_    0.866589 0.923576 0.650070 -0.634675
N15   N     N_R   0.857542 0.327942 0.518817 0.249475
O53   O     O_R   0.775235 0.332237 0.448559 -0.307217
O54   O     O_R   0.887552 0.405962 0.581480 -0.407305
F10   F     F_    0.734114 0.357212 0.926966 -0.606608
F11   F     F_    0.852201 0.229685 0.263254 -0.659492
N16   N     N_R   0.731032 0.147134 0.325030 0.180980
O55   O     O_R   0.852916 0.086631 0.332484 -0.298715
O56   O     O_R   0.628810 0.175624 0.383340 -0.308451

loop_
_geom_bond_atom_site_label_1
_geom_bond_atom_site_label_2
_geom_bond_distance
_ccdc_geom_bond_type
P7    C38   1.852302 S    
C12   F3    1.385781 S    
P8    O23   1.544247 D    
C13   N8    1.456106 S    
N15   O53   1.290824 A    
C2    F8    1.380448 S    
N8    O40   1.300714 A    
C38   C39   1.418565 A    
C19   C23   1.503476 S    
C28   H20   1.081279 S    
N7    O38   1.300028 A    
O3    Ba1   2.846829 S    
C14   N9    1.469822 S    
C33   C44   1.423469 A    
O3    P6    1.737573 S    
C24   C25   1.359968 D    
Ba2   O21   2.881729 S    
C6    H6    1.112082 S    
C2    F6    1.379190 S    
P3    O11   1.753831 S    
C15   C16   1.522917 S    
C7    H7    1.109816 S    
P4    O13   1.602221 S    
O11   C2    1.404137 S    
N4    O32   1.298278 A    
C4    N16   1.461915 S    
C25   C27   1.508960 S    
O8    Ba1   2.823225 S    
O19   C13   1.421337 S    
C19   F7    1.353297 S    
P7    O21   1.585249 D    
C16   F5    1.378686 S    
P1    O1    1.563910 D    
C11   O22   1.393546 S    
Ba1   O20   2.993400 S    
O14   Ba2   2.846107 S    
Ba1   O13   2.873687 S    
O14   P8    1.750398 S    
C18   C30   1.415907 A    
N2    O28   1.301949 A    
C2    C3    1.537535 S    
N5    O34   1.299169 A    
C16   H19   1.080543 S    
C39   C41   1.408151 A    
P2    O10   1.782738 S    
C35   N14   1.421834 S    
N1    O25   1.296253 A    
C8    H10   1.111598 S    
C16   F4    1.377093 S    
C1    H2    1.104343 S    
C6    F2    1.366632 S    
N12   O48   1.294047 A    
C18   C29   1.405746 A    
C9    N4    1.463704 S    
P5    O17   1.779997 S    
C42   H24   1.067850 S    
P8    O24   1.758990 S    
C13   H16   1.094518 S    
N15   O54   1.291593 A    
P1    Ba1   3.459902 S    
N1    O26   1.300580 A    
C27   C30   1.425426 A    
C38   C46   1.403254 A    
C28   C29   1.404592 A    
N16   O56   1.296835 A    
P5    O18   1.540526 D    
C7    N2    1.466627 S    
C9    N5    1.468174 S    
C41   F9    1.351470 S    
C13   C14   1.572686 S    
C21   C22   1.519767 S    
N12   O47   1.300836 A    
C11   H13   1.109360 S    
O6    P6    1.749570 S    
O2    Ba1   2.994929 S    
C1    H12   1.104889 S    
C3    N7    1.463794 S    
N10   O44   1.300342 A    
Ba1   O16   2.852238 S    
C34   C35   1.400956 A    
C34   N13   1.413440 S    
C4    F11   1.364916 S    
C19   C20   1.354433 D    
P1    C29   1.895591 S    
C5    F1    1.381661 S    
O2    Ba2   2.874342 S    
P6    C30   1.870209 S    
C32   C40   1.411600 A    
C11   H14   1.111702 S    
P4    O12   1.564282 D    
C15   O24   1.415614 S    
P4    O15   1.769151 S    
C22   C23   1.520494 S    
C15   H18   1.110427 S    
O16   P7    1.766443 S    
C17   C21   1.349742 D    
C18   H22   1.075862 S    
C1    H3    1.107135 S    
P2    O20   1.592790 S    
C10   H11   1.110019 S    
C5    H5    1.106068 S    
C5    N1    1.459832 S    
C39   C40   1.417414 A    
C17   C20   1.478601 S    
C43   C45   1.406441 A    
C8    C9    1.590577 S    
O12   Ba2   2.886774 S    
C46   H25   1.082993 S    
C36   C37   1.412957 A    
C31   C32   1.424287 A    
C32   C35   1.394977 A    
C22   C24   1.524083 S    
C37   C45   1.409303 A    
P2    O7    1.557713 D    
C1    C10   1.522953 S    
C37   N15   1.412400 S    
P3    O8    1.734716 S    
N9    O41   1.302148 A    
O10   C8    1.411322 S    
P2    C36   1.920979 S    
O13   Ba2   2.995882 S    
N7    O37   1.299932 A    
P4    Ba2   3.460556 S    
Ba1   Ba2   4.714862 S    
C31   C46   1.397999 A    
N5    O33   1.302252 A    
C33   C36   1.437875 A    
N6    O36   1.299727 A    
N16   O55   1.298513 A    
C12   N6    1.454592 S    
C12   H15   1.111831 S    
P4    C20   1.859205 S    
N2    O27   1.299848 A    
C6    C7    1.534357 S    
C8    H9    1.098806 S    
N14   O52   1.298342 A    
N10   O43   1.298649 A    
N3    O30   1.303625 A    
N11   O45   1.294640 A    
N3    O29   1.290859 A    
P8    C21   1.818893 S    
C9    N3    1.474222 S    
O4    P6    1.546646 D    
C26   C28   1.409804 A    
C42   C43   1.393144 A    
P2    Ba1   3.461714 S    
C11   C12   1.533120 S    
P5    C31   1.889158 S    
N13   O50   1.296093 A    
N8    O39   1.291145 A    
H1    C10   1.110631 S    
N4    O31   1.298874 A    
N11   O46   1.299503 A    
C33   C34   1.407239 A    
O5    C6    1.389404 S    
Ba2   O20   2.851724 S    
C4    O15   1.406608 S    
C7    H8    1.110259 S    
C43   C44   1.408585 A    
P7    O22   1.748887 S    
O1    Ba1   2.886133 S    
O7    Ba1   2.881654 S    
C14   H17   1.107733 S    
C25   N12   1.437380 S    
C26   C27   1.409365 A    
P5    O19   1.784936 S    
C3    H4    1.106099 S    
C24   H23   1.082393 S    
C41   C42   1.384515 A    
C3    F10   1.385428 S    
P3    O9    1.537831 D    
P1    O5    1.750309 S    
N9    O42   1.299007 A    
O16   Ba2   2.992470 S    
C4    C5    1.547962 S    
N14   O51   1.299144 A    
P1    O2    1.602221 S    
P3    C45   1.882559 S    
N13   O49   1.297901 A    
C17   H21   1.085233 S    
O17   Ba2   2.823934 S    
C40   C44   1.430013 A    
C14   N10   1.464779 S    
O6    C10   1.408449 S    
N6    O35   1.300733 A    
C15   N11   1.459354 S    
