data_mof_unit_44202.cif
_audit_creation_date              2012-12-10T17:37:18-0500
_audit_creation_method            fapswitch 2.2
_symmetry_space_group_name_H-M    P1
_symmetry_Int_Tables_number       1
_space_group_crystal_system       triclinic
_cell_length_a                    12.396822
_cell_length_b                    13.201035
_cell_length_c                    15.815138
_cell_angle_alpha                 76.486906
_cell_angle_beta                  101.28303
_cell_angle_gamma                 116.870026
_cell_volume                      2232.68426365

loop_
_atom_site_label
_atom_site_type_symbol
_atom_type_description
_atom_site_fract_x
_atom_site_fract_y
_atom_site_fract_z
_atom_type_partial_charge
C1    C     C_R   0.854982 0.286600 0.507424 0.806917
C2    C     C_3   0.015245 0.506291 0.917752 0.029714
C3    C     C_3   0.117213 0.588878 0.031446 -0.351372
C4    C     C_3   0.007636 0.506098 0.083315 0.042238
C5    C     C_3   0.025940 0.608470 0.955021 0.472878
C6    C     C_3   0.918211 0.526634 0.007063 0.496771
C7    C     C_1   0.011468 0.507634 0.825272 -0.024679
C8    C     C_1   0.003547 0.504447 0.174591 -0.001390
C9    C     C_R   0.277522 0.026251 0.386659 -0.190172
C10   C     C_R   0.228178 0.835709 0.470623 -0.040618
C11   C     C_R   0.813640 0.083095 0.564023 -0.187316
C12   C     C_R   0.002126 0.502621 0.659601 0.857794
C13   C     C_R   0.733989 0.967767 0.581853 -0.145747
C14   C     C_R   0.611215 0.931305 0.552187 -0.170583
C15   C     C_R   0.565770 0.009773 0.500445 0.083968
C16   C     C_R   0.649990 0.124846 0.473986 0.089274
C17   C     C_R   0.439807 0.977559 0.473115 0.074322
C18   C     C_R   0.401426 0.057034 0.414163 0.164954
C19   C     C_R   0.487219 0.165089 0.381219 -0.241596
C20   C     C_R   0.609673 0.197701 0.409236 -0.196702
C21   C     C_R   0.350412 0.868631 0.502783 -0.234118
C22   C     C_R   0.191221 0.915646 0.414225 -0.196283
C23   C     C_R   0.144977 0.713574 0.487542 0.785994
C24   C     C_R   0.772616 0.163236 0.512278 -0.099566
C25   C     C_R   0.310195 0.288488 0.597984 -0.281404
C26   C     C_R   0.767797 0.654416 0.388089 -0.007920
C27   C     C_R   0.673154 0.687042 0.358764 -0.321118
C28   C     C_R   0.561512 0.624483 0.393494 0.526898
C29   C     C_R   0.546303 0.530555 0.463224 -0.188491
C30   C     C_R   0.645309 0.497124 0.489906 0.108830
C31   C     C_R   0.436488 0.466275 0.506659 -0.029311
C32   C     C_R   0.415410 0.356034 0.555675 0.081470
C33   C     C_R   0.504245 0.317304 0.569363 -0.333916
C34   C     C_R   0.000423 0.500796 0.340085 0.804725
C35   C     C_R   0.623143 0.395383 0.554904 0.530261
C36   C     C_R   0.347052 0.505621 0.505913 0.063210
C37   C     C_R   0.226853 0.332022 0.594784 0.073805
C38   C     C_3   0.997071 0.402313 0.047997 -0.222705
C39   C     C_3   0.906266 0.423072 0.970568 -0.321056
C40   C     C_1   0.006909 0.506633 0.749207 -0.207232
C41   C     C_1   0.001520 0.502694 0.250210 -0.176597
C42   C     C_3   0.105178 0.485084 0.994175 0.026210
Cu1   Cu    Cu3+1 0.098270 0.475420 0.519690 0.941210
Cu2   Cu    Cu3+1 0.901730 0.524580 0.480310 0.975222
H1    H     H_    0.821024 0.355075 0.944886 0.149652
H2    H     H_    0.373312 0.806353 0.550200 0.144448
H3    H     H_    0.907122 0.109986 0.592803 0.147099
H4    H     H_    0.555145 0.840635 0.569398 0.127878
H5    H     H_    0.766931 0.906565 0.621376 0.143458
H6    H     H_    0.672085 0.279787 0.377406 0.169129
H7    H     H_    0.144250 0.279589 0.626003 0.123055
H8    H     H_    0.487384 0.232522 0.607112 0.166477
H9    H     H_    0.294061 0.203698 0.635252 0.138440
H10   H     H_    0.355914 0.589338 0.472233 0.189532
H11   H     H_    0.852363 0.702653 0.358714 0.149219
H12   H     H_    0.985779 0.317584 0.087961 0.155506
H13   H     H_    0.685208 0.759675 0.306530 0.164649
H14   H     H_    0.203089 0.655586 0.057776 0.152284
H15   H     H_    0.096776 0.891298 0.388624 0.146558
H16   H     H_    0.459655 0.224687 0.333142 0.140758
H17   H     H_    0.247862 0.086611 0.341600 0.133283
N1    N     N_R   0.246280 0.438200 0.549540 -0.200038
N2    N     N_R   0.754330 0.561180 0.450980 -0.187254
O1    O     O_R   0.972510 0.318130 0.524770 -0.598067
O2    O     O_R   0.806530 0.359650 0.491510 -0.533816
O3    O     O_R   0.082970 0.479240 0.637550 -0.587998
O4    O     O_R   0.916990 0.520750 0.604290 -0.511943
O5    O     O_R   0.193470 0.640350 0.508490 -0.591831
O6    O     O_R   0.027490 0.681870 0.475230 -0.595029
O7    O     O_R   0.083010 0.479250 0.395710 -0.571495
O8    O     O_R   0.917030 0.520760 0.362450 -0.585676
O9    O     O_3   0.467644 0.654614 0.355479 -0.596290
C43   C     C_3   0.401923 0.589105 0.288387 -0.340313
H18   H     H_    0.362309 0.495100 0.314357 0.162574
H19   H     H_    0.459780 0.608860 0.235720 0.167009
H20   H     H_    0.325304 0.611915 0.258705 0.195312
O10   O     O_3   0.713404 0.370287 0.607540 -0.530333
C44   C     C_3   0.706391 0.367220 0.696717 -0.325432
H21   H     H_    0.619555 0.300113 0.721010 0.141023
H22   H     H_    0.722133 0.453075 0.708226 0.164556
H23   H     H_    0.777746 0.343543 0.737191 0.177566
O11   O     O_3   0.822968 0.550294 0.019993 -0.581488
C45   C     C_3   0.745675 0.549078 0.941648 -0.344202
H24   H     H_    0.694371 0.460330 0.926264 0.149987
H25   H     H_    0.796287 0.608689 0.885854 0.193213
H26   H     H_    0.678413 0.578640 0.950305 0.193464
O12   O     O_3   0.038786 0.713766 0.900672 -0.581741
C46   C     C_3   0.063790 0.796554 0.952738 -0.317072
H27   H     H_    0.155284 0.819842 0.989930 0.160187
H28   H     H_    0.993058 0.767030 0.997906 0.191501
H29   H     H_    0.064057 0.875805 0.909166 0.185924
C47   C     C_R   0.212928 0.459769 0.996845 0.144366
C48   C     C_R   0.278182 0.442983 0.078074 -0.168633
C49   C     C_R   0.378332 0.418903 0.083321 -0.134742
C50   C     C_R   0.414231 0.411293 0.007530 -0.108213
C51   C     C_R   0.350303 0.428245 0.926405 -0.156896
C52   C     C_R   0.250019 0.452405 0.920888 -0.139468
H30   H     H_    0.251225 0.448349 0.137441 0.123029
H31   H     H_    0.427936 0.405959 0.146180 0.126808
H32   H     H_    0.491455 0.392146 0.011690 0.134972
H33   H     H_    0.378395 0.422522 0.867703 0.127593
H34   H     H_    0.202512 0.464988 0.857399 0.140689

loop_
_geom_bond_atom_site_label_1
_geom_bond_atom_site_label_2
_ccdc_geom_bond_type
O12   C46   S    
C3    C42   S    
C48   C49   A    
C6    O11   S    
C43   H18   S    
C23   O6    A    
C11   H3    S    
C50   C51   A    
C4    C8    S    
C26   H11   S    
C37   N1    A    
O10   C44   S    
C10   C22   A    
C33   H8    S    
C26   C27   A    
C30   C35   A    
C9    H17   S    
C28   C29   A    
C25   H9    S    
C38   C42   S    
C5    C6    S    
C37   H7    S    
C44   H22   S    
C9    C22   A    
C15   C16   A    
C11   C24   A    
Cu2   O8    S    
C18   C19   A    
C20   H6    S    
C2    C7    S    
C25   C37   A    
C2    C39   S    
C19   C20   A    
Cu1   O5    S    
Cu1   O1    S    
C1    O2    A    
C7    C40   T    
C34   O7    A    
C52   H34   S    
C39   H1    S    
C25   C32   A    
C16   C24   A    
C51   H33   S    
C43   H19   S    
Cu2   O2    S    
C28   O9    S    
C34   C41   S    
C36   N1    A    
C47   C52   A    
C10   C21   A    
C12   O4    A    
C8    C41   T    
C4    C6    S    
C27   H13   S    
C22   H15   S    
C44   H21   S    
C14   H4    S    
C12   O3    A    
C35   O10   S    
C17   C21   A    
C23   O5    A    
C12   C40   S    
C26   N2    A    
Cu2   N2    S    
C29   C30   A    
C45   H24   S    
C14   C15   A    
C46   H29   S    
C16   C20   A    
C6    C39   S    
C51   C52   A    
C17   C18   A    
Cu2   O6    S    
C13   H5    S    
C45   H25   S    
C4    C38   S    
Cu1   O7    S    
Cu1   Cu2   S    
C19   H16   S    
C43   H20   S    
C2    C5    S    
C3    C4    S    
C1    O1    A    
C21   H2    S    
C15   C17   A    
C50   H32   S    
C31   C32   A    
C46   H28   S    
O9    C43   S    
C3    C5    S    
C10   C23   S    
C32   C33   A    
C29   C31   A    
C11   C13   A    
C44   H23   S    
C38   C39   S    
C49   H31   S    
C2    C42   S    
Cu1   O3    S    
C34   O8    A    
C30   N2    A    
C47   C48   A    
C33   C35   A    
C42   C47   S    
C49   C50   A    
C36   H10   S    
C5    O12   S    
C3    H14   S    
C9    C18   A    
C45   H26   S    
C38   H12   S    
C46   H27   S    
C1    C24   S    
O11   C45   S    
C27   C28   A    
C31   C36   A    
Cu2   O4    S    
C13   C14   A    
C48   H30   S    
Cu1   N1    S    
