data_mof_unit_5009.cif
_audit_creation_date              2012-12-11T16:47:58-0500
_audit_creation_method            fapswitch 2.2
_symmetry_space_group_name_H-M    P1
_symmetry_Int_Tables_number       1
_space_group_crystal_system       triclinic
_cell_length_a                    26.200568
_cell_length_b                    7.143888
_cell_length_c                    23.963229
_cell_angle_alpha                 90.024346
_cell_angle_beta                  101.663725
_cell_angle_gamma                 89.97161
_cell_volume                      4392.67403285

loop_
_atom_site_label
_atom_site_type_symbol
_atom_type_description
_atom_site_fract_x
_atom_site_fract_y
_atom_site_fract_z
_atom_type_partial_charge
O1    O     O_R   0.797620 0.601060 0.203310 -0.515163
O2    O     O_R   0.202380 0.398940 0.796690 -0.511978
O3    O     O_R   0.702380 0.101060 0.296690 -0.515182
O4    O     O_R   0.297620 0.898940 0.703310 -0.514016
O5    O     O_R   0.692070 0.267810 0.186600 -0.529053
O6    O     O_R   0.307930 0.732190 0.813400 -0.526282
O7    O     O_R   0.807930 0.767810 0.313400 -0.529079
O8    O     O_R   0.192070 0.232190 0.686600 -0.526407
C1    C     C_R   0.673792 0.439894 0.171392 0.706889
C2    C     C_R   0.326208 0.560107 0.828606 0.716044
C3    C     C_R   0.826207 0.939882 0.328608 0.706862
C4    C     C_R   0.173789 0.060120 0.671398 0.706638
O9    O     O_R   0.796590 0.271120 0.196480 -0.512146
O10   O     O_R   0.203410 0.728880 0.803520 -0.542711
O11   O     O_R   0.703410 0.771120 0.303520 -0.512081
O12   O     O_R   0.296590 0.228880 0.696480 -0.513706
O13   O     O_R   0.807640 0.104280 0.306650 -0.542983
O14   O     O_R   0.192360 0.895720 0.693350 -0.543192
O15   O     O_R   0.692360 0.604280 0.193350 -0.543014
O16   O     O_R   0.307640 0.395720 0.806650 -0.542080
C5    C     C_R   0.812549 0.439926 0.184284 0.779493
C6    C     C_R   0.187289 0.560203 0.815436 0.769548
C7    C     C_R   0.687468 0.940044 0.315734 0.779434
C8    C     C_R   0.312554 0.059964 0.684393 0.786503
O17   O     O_3   0.753500 0.435660 0.286130 -0.369332
O18   O     O_3   0.246500 0.564340 0.713870 -0.365962
O19   O     O_3   0.746500 0.935660 0.213870 -0.369343
O20   O     O_3   0.253500 0.064340 0.786130 -0.377951
V1    V     V_3+5 0.749350 0.159470 0.243300 1.548828
V2    V     V_3+5 0.250650 0.840530 0.756700 1.511724
V3    V     V_3+5 0.750650 0.659470 0.256700 1.548728
V4    V     V_3+5 0.249350 0.340530 0.743300 1.540908
C9    C     C_R   0.386806 0.898978 0.650697 0.313130
C10   C     C_R   0.615722 0.106960 0.352850 0.314623
C11   C     C_R   0.112682 0.399224 0.848469 0.327276
C12   C     C_R   0.884426 0.606185 0.147330 0.314568
C13   C     C_R   0.423393 0.891709 0.615066 -0.296184
C14   C     C_R   0.579626 0.114528 0.389055 -0.313866
C15   C     C_R   0.076402 0.390405 0.884552 -0.284247
C16   C     C_R   0.920629 0.613275 0.111246 -0.313978
H1    H     H_    0.451332 0.777992 0.619565 0.162093
H2    H     H_    0.553534 0.233334 0.386769 0.169624
H3    H     H_    0.048501 0.276654 0.879969 0.161068
H4    H     H_    0.946755 0.731907 0.113580 0.169595
C17   C     C_R   0.425129 0.030531 0.574402 -0.069335
C18   C     C_R   0.575925 0.970020 0.427377 -0.016371
C19   C     C_R   0.074941 0.528186 0.925726 -0.100103
C20   C     C_R   0.924368 0.468566 0.072959 -0.016173
C21   C     C_R   0.388432 0.177243 0.567671 0.329636
C22   C     C_R   0.610176 0.816074 0.430929 0.392746
C23   C     C_R   0.111572 0.674740 0.932359 0.398433
C24   C     C_R   0.890062 0.314884 0.069329 0.392696
C25   C     C_R   0.352285 0.190683 0.604462 0.197090
C26   C     C_R   0.645974 0.803189 0.393728 0.183198
C27   C     C_R   0.146798 0.689620 0.895320 0.171218
C28   C     C_R   0.854160 0.302465 0.106417 0.183151
C29   C     C_R   0.350959 0.049657 0.645834 -0.167157
C30   C     C_R   0.649294 0.950243 0.354745 -0.170074
C31   C     C_R   0.148454 0.550194 0.853476 -0.204919
C32   C     C_R   0.850793 0.449742 0.145355 -0.170052
C33   C     C_R   0.465349 0.857724 0.503977 -0.329557
C34   C     C_R   0.536211 0.145148 0.498367 -0.285062
C35   C     C_R   0.034898 0.355617 0.996257 -0.322439
C36   C     C_R   0.964076 0.643375 0.002004 -0.283668
H5    H     H_    0.437196 0.747548 0.505373 0.167697
H6    H     H_    0.564015 0.256383 0.496923 0.186655
H7    H     H_    0.063008 0.245272 0.994761 0.170461
H8    H     H_    0.936275 0.754709 0.003474 0.186648
C37   C     C_R   0.500869 0.839834 0.467245 0.447412
C38   C     C_R   0.501497 0.162785 0.535497 0.424248
C39   C     C_R   0.999415 0.337940 0.033042 0.445300
C40   C     C_R   0.998730 0.660764 0.964818 0.420554
C41   C     C_R   0.536879 0.984521 0.464706 0.027855
C42   C     C_R   0.464884 0.017857 0.537960 0.016064
C43   C     C_R   0.963428 0.482816 0.035648 0.028021
C44   C     C_R   0.035332 0.515705 0.962303 0.012163
C45   C     C_3   0.959674 0.935437 0.523156 -0.375775
C46   C     C_3   0.040308 0.064556 0.476878 -0.374242
C47   C     C_3   0.540324 0.435226 0.976855 -0.375602
C48   C     C_3   0.459685 0.564763 0.023125 -0.373724
C49   C     C_3   0.990759 0.120318 0.539040 0.440065
C50   C     C_3   0.009226 0.879674 0.460994 0.441160
C51   C     C_3   0.509231 0.620147 0.960957 0.440102
C52   C     C_3   0.490777 0.379840 0.039022 0.440674
H9    H     H_    0.927320 0.880230 0.541933 0.142334
H10   H     H_    0.072664 0.119759 0.458102 0.142876
H11   H     H_    0.572682 0.379850 0.958082 0.142382
H12   H     H_    0.427328 0.620140 0.041899 0.143732
C53   C     C_1   0.128222 0.049440 0.625438 -0.159528
C54   C     C_1   0.871769 0.950563 0.374579 -0.161251
C55   C     C_1   0.371774 0.549405 0.874567 -0.160540
C56   C     C_1   0.628230 0.450597 0.125424 -0.161286
C57   C     C_3   0.012296 0.835409 0.524273 0.332098
C58   C     C_3   0.987687 0.164584 0.475761 0.332917
C59   C     C_3   0.487708 0.335356 0.975746 0.332057
C60   C     C_3   0.512301 0.664630 0.024233 0.332668
C61   C     C_3   0.043004 0.018411 0.541028 -0.087689
C62   C     C_3   0.956979 0.981579 0.459005 -0.087282
C63   C     C_3   0.456991 0.518397 0.958978 -0.087773
C64   C     C_3   0.543017 0.481590 0.041002 -0.087239
C65   C     C_1   0.089914 0.036681 0.587319 0.052550
C66   C     C_1   0.910072 0.963317 0.412707 0.053372
C67   C     C_1   0.410081 0.536651 0.912687 0.054306
C68   C     C_1   0.589926 0.463346 0.087299 0.053416
O21   O     O_3   0.386658 0.763050 0.691718 -0.625027
H13   H     H_    0.413625 0.667767 0.689122 0.294649
O22   O     O_3   0.617607 0.249290 0.314236 -0.621124
H14   H     H_    0.592258 0.348351 0.318888 0.304447
O23   O     O_3   0.112617 0.264622 0.806989 -0.635952
H15   H     H_    0.085706 0.169153 0.809507 0.282780
O24   O     O_3   0.882490 0.748719 0.185902 -0.621164
H16   H     H_    0.907897 0.847545 0.181317 0.304426
O25   O     O_3   0.389088 0.311126 0.526130 -0.551411
C69   C     C_3   0.355096 0.253209 0.475621 0.091362
H17   H     H_    0.314076 0.249174 0.481714 0.121586
H18   H     H_    0.366050 0.112430 0.461709 0.124808
C70   C     C_3   0.358315 0.391925 0.428377 -0.709092
H19   H     H_    0.398204 0.390982 0.419290 0.222082
H20   H     H_    0.330158 0.352192 0.389018 0.176855
H21   H     H_    0.348917 0.535144 0.441323 0.216955
O26   O     O_3   0.607690 0.674689 0.469735 -0.538793
C71   C     C_3   0.640948 0.720813 0.521938 0.065352
H22   H     H_    0.629632 0.856711 0.538811 0.119607
H23   H     H_    0.682241 0.728818 0.516897 0.117494
C72   C     C_3   0.636855 0.569495 0.565412 -0.676732
H24   H     H_    0.648705 0.432182 0.550340 0.209719
H25   H     H_    0.662806 0.603928 0.606779 0.168563
H26   H     H_    0.596084 0.559862 0.571708 0.256415
O27   O     O_3   0.111007 0.811163 0.973162 -0.534631
C73   C     C_3   0.146296 0.758703 0.023343 0.143275
H27   H     H_    0.187054 0.760904 0.016390 0.145721
H28   H     H_    0.137274 0.616505 0.037939 0.102881
C74   C     C_3   0.142190 0.897195 0.070415 -0.715210
H29   H     H_    0.102618 0.890506 0.080264 0.218508
H30   H     H_    0.171282 0.861877 0.109493 0.174551
H31   H     H_    0.149685 0.041574 0.056868 0.223900
O28   O     O_3   0.892575 0.173352 0.030541 -0.538772
C75   C     C_3   0.859373 0.219472 0.978303 0.065340
H32   H     H_    0.870706 0.355308 0.961462 0.119577
H33   H     H_    0.818061 0.227602 0.983280 0.117601
C76   C     C_3   0.863531 0.068063 0.934836 -0.676645
H34   H     H_    0.851674 0.930803 0.949879 0.209792
H35   H     H_    0.837618 0.102477 0.893447 0.168483
H36   H     H_    0.904320 0.058334 0.928598 0.256481
O29   O     O_3   0.317074 0.337028 0.599883 -0.633880
H37   H     H_    0.325574 0.433176 0.573468 0.322640
O30   O     O_3   0.679032 0.651097 0.395736 -0.630932
H38   H     H_    0.669615 0.553004 0.421001 0.324194
O31   O     O_3   0.180710 0.838273 0.902344 -0.626986
H39   H     H_    0.166892 0.925867 0.870802 0.318969
O32   O     O_3   0.821045 0.150625 0.104334 -0.630931
H40   H     H_    0.830519 0.052287 0.079149 0.324212
O33   O     O_3   0.500118 0.685102 0.432512 -0.621179
H41   H     H_    0.473982 0.594715 0.440868 0.297540
O34   O     O_3   0.505674 0.321612 0.569004 -0.638359
H42   H     H_    0.486547 0.303156 0.600165 0.296623
O35   O     O_3   0.000165 0.183214 0.067738 -0.621068
H43   H     H_    0.026285 0.092708 0.059343 0.297423
O36   O     O_3   0.994478 0.819448 0.931277 -0.638656
H44   H     H_    0.013429 0.800608 0.899978 0.294241
O37   O     O_3   0.984797 0.254277 0.580569 -0.517598
C77   C     C_3   0.931412 0.284706 0.579282 0.156599
H45   H     H_    0.913919 0.159354 0.595574 0.096932
H46   H     H_    0.909706 0.317844 0.535495 0.097772
C78   C     C_3   0.925508 0.449392 0.617715 -0.653856
H47   H     H_    0.942191 0.577686 0.602375 0.250427
H48   H     H_    0.883590 0.473835 0.617386 0.150543
H49   H     H_    0.946084 0.419687 0.662068 0.220698
O38   O     O_3   0.015204 0.745719 0.419470 -0.517311
C79   C     C_3   0.068595 0.715229 0.420803 0.155018
H50   H     H_    0.090273 0.682103 0.464603 0.097878
H51   H     H_    0.086112 0.840550 0.404523 0.098507
C80   C     C_3   0.074518 0.550505 0.382392 -0.647061
H52   H     H_    0.053979 0.580205 0.338025 0.223142
H53   H     H_    0.116442 0.526006 0.382765 0.150767
H54   H     H_    0.057807 0.422247 0.397718 0.250000
O39   O     O_3   0.515188 0.753941 0.919419 -0.517502
C81   C     C_3   0.568572 0.784207 0.920709 0.156534
H55   H     H_    0.586071 0.658752 0.904418 0.097092
H56   H     H_    0.590277 0.817398 0.964496 0.097680
C82   C     C_3   0.574472 0.948768 0.882276 -0.653035
H57   H     H_    0.557786 0.077159 0.897616 0.250428
H58   H     H_    0.616390 0.973074 0.882606 0.150452
H59   H     H_    0.553897 0.919007 0.837923 0.220976
O40   O     O_3   0.484806 0.246068 0.080561 -0.517540
C83   C     C_3   0.431417 0.215616 0.079196 0.155303
H60   H     H_    0.409774 0.182256 0.035398 0.099367
H61   H     H_    0.413852 0.341042 0.095422 0.099076
C84   C     C_3   0.425512 0.051117 0.117649 -0.645975
H62   H     H_    0.446014 0.081058 0.162017 0.222735
H63   H     H_    0.383588 0.026647 0.117249 0.152281
H64   H     H_    0.442271 0.922757 0.102381 0.249925
O41   O     O_3   0.975161 0.340003 0.450800 -0.591979
H65   H     H_    0.936993 0.353859 0.446968 0.292478
O42   O     O_3   0.024819 0.659987 0.549234 -0.592231
H66   H     H_    0.062995 0.646204 0.553125 0.292746
O43   O     O_3   0.524819 0.840098 0.049180 -0.591972
H67   H     H_    0.562986 0.853841 0.053016 0.292507
O44   O     O_3   0.475196 0.159881 0.950800 -0.592121
H68   H     H_    0.437013 0.146286 0.946850 0.293062

loop_
_geom_bond_atom_site_label_1
_geom_bond_atom_site_label_2
_ccdc_geom_bond_type
O17   V3    S    
C7    C30   S    
C21   O25   S    
O1    C5    A    
C78   H47   S    
C27   C31   A    
O19   V1    S    
C58   O41   S    
O13   V1    S    
O38   C79   S    
O3    C7    A    
O24   H16   S    
C64   C68   S    
C48   C52   S    
O15   V3    S    
C47   H11   S    
O37   C77   S    
C23   O27   S    
O4    V2    S    
C16   H4    S    
C80   H52   S    
O7    C3    A    
O5    C1    A    
O35   H43   S    
C40   O36   S    
C79   H51   S    
C10   O22   S    
C36   H8    S    
O2    V4    S    
C46   C58   S    
C19   C44   S    
C77   H45   S    
C76   H35   S    
O29   H37   S    
C11   C15   A    
O4    C8    A    
C59   C63   S    
C81   H56   S    
C82   H59   S    
C35   C44   A    
C58   C62   S    
C33   C37   A    
O1    V3    S    
C34   C38   A    
C11   C31   A    
C45   C57   S    
C84   H63   S    
C46   C50   S    
C54   C66   T    
C76   H34   S    
C1    O15   A    
O30   H38   S    
C27   O31   S    
C2    O16   A    
C8    C29   S    
C38   C42   A    
C72   H26   S    
C9    C29   A    
O32   H40   S    
C34   C41   A    
C37   C41   A    
O14   V2    S    
C45   C49   S    
C48   C60   S    
C12   O24   S    
C77   H46   S    
C11   O23   S    
C40   C44   A    
O28   C75   S    
C46   H10   S    
O11   C7    A    
C50   O38   S    
C45   H9    S    
O44   H68   S    
O12   C8    A    
C50   C57   S    
C51   C63   S    
C74   H30   S    
C50   C62   S    
C20   C43   S    
C52   O40   S    
C57   O42   S    
C22   O26   S    
O10   V2    S    
C1    C56   S    
O16   V4    S    
C69   H17   S    
O5    V1    S    
C80   H53   S    
C60   O43   S    
C39   O35   S    
C35   H7    S    
C39   C43   A    
O7    V3    S    
C51   O39   S    
C38   O34   S    
O8    V4    S    
C81   H55   S    
C4    C53   S    
C12   C16   A    
C9    O21   S    
C5    C32   S    
C63   C67   S    
O23   H15   S    
C76   H36   S    
C6    C31   S    
C34   H6    S    
O18   V4    S    
C78   H48   S    
C15   H3    S    
C82   H57   S    
C9    C13   A    
C28   C32   A    
C17   C42   S    
C52   C59   S    
C52   C64   S    
C84   H64   S    
C73   H28   S    
C47   C59   S    
C74   H31   S    
C77   C78   S    
C47   C64   S    
C69   H18   S    
O36   H44   S    
C17   C21   A    
O8    C4    A    
C46   C61   S    
C25   O29   S    
C24   O28   S    
O9    C5    A    
C45   C62   S    
C22   C26   A    
C28   O32   S    
C10   C30   A    
O26   C71   S    
C75   H33   S    
C83   H60   S    
O6    V2    S    
C35   C39   A    
C2    C55   S    
O39   C81   S    
C78   H49   S    
C48   C63   S    
C72   H24   S    
C70   H21   S    
C73   C74   S    
O22   H14   S    
C13   C17   A    
C57   C61   S    
C71   H23   S    
C15   C19   A    
O25   C69   S    
C26   C30   A    
C80   H54   S    
O9    V1    S    
C84   H62   S    
C16   C20   A    
C3    O13   A    
C25   C29   A    
C53   C65   T    
C10   C14   A    
C49   O37   S    
C55   C67   T    
C12   C32   A    
C75   C76   S    
O6    C2    A    
C19   C23   A    
O11   V3    S    
C33   C42   A    
O12   V4    S    
O21   H13   S    
C18   C22   A    
O10   C6    A    
C71   C72   S    
C70   H20   S    
C73   H27   S    
O27   C73   S    
C48   H12   S    
C62   C66   S    
O31   H39   S    
C47   C51   S    
C49   C58   S    
C3    C54   S    
O3    V1    S    
O40   C83   S    
C74   H29   S    
C49   C61   S    
C83   C84   S    
C21   C25   A    
C51   C60   S    
C60   C64   S    
O20   V2    S    
O2    C6    A    
C36   C43   A    
C23   C27   A    
C36   C40   A    
C13   H1    S    
O43   H67   S    
C37   O33   S    
C14   C18   A    
C81   C82   S    
C75   H32   S    
C56   C68   T    
O42   H66   S    
C14   H2    S    
C33   H5    S    
C20   C24   A    
C59   O44   S    
O41   H65   S    
C79   H50   S    
C4    O14   A    
O34   H42   S    
C72   H25   S    
C69   C70   S    
C71   H22   S    
C70   H19   S    
C83   H61   S    
C18   C41   S    
C61   C65   S    
C24   C28   A    
C82   H58   S    
C26   O30   S    
O33   H41   S    
C79   C80   S    
