data_mof_unit_22312.cif
_audit_creation_date              2012-12-10T18:04:44-0500
_audit_creation_method            fapswitch 2.2
_symmetry_space_group_name_H-M    P1
_symmetry_Int_Tables_number       1
_space_group_crystal_system       triclinic
_cell_length_a                    19.437632
_cell_length_b                    17.765499
_cell_length_c                    12.614059
_cell_angle_alpha                 90.55055
_cell_angle_beta                  99.382971
_cell_angle_gamma                 90.051597
_cell_volume                      4297.38656906

loop_
_atom_site_label
_atom_site_type_symbol
_atom_type_description
_atom_site_fract_x
_atom_site_fract_y
_atom_site_fract_z
_atom_type_partial_charge
Br1   Br    Br    0.607346 0.174868 0.809114 -0.534963
Br2   Br    Br    0.606968 0.823764 0.805607 -0.505234
Br3   Br    Br    0.107345 0.674868 0.809114 -0.534960
Br4   Br    Br    0.106968 0.323764 0.805608 -0.505234
Br5   Br    Br    0.309043 0.006692 0.636167 -0.410963
Br6   Br    Br    0.809043 0.506691 0.636166 -0.410961
Br7   Br    Br    0.693524 0.998337 0.354915 -0.512617
Br8   Br    Br    0.193524 0.498336 0.354916 -0.512617
C1    C     C_R   0.413478 0.104993 0.445739 0.890346
C2    C     C_R   0.774994 0.773982 0.652168 0.103273
C3    C     C_R   0.274446 0.729695 0.656835 0.105346
C4    C     C_R   0.274994 0.273982 0.652168 0.103273
C5    C     C_R   0.338868 0.764385 0.688224 -0.163820
C6    C     C_R   0.340301 0.241655 0.682616 -0.162966
C7    C     C_R   0.838869 0.264384 0.688222 -0.163822
C8    C     C_R   0.840301 0.741654 0.682616 -0.162967
C9    C     C_R   0.376310 0.789430 0.610695 -0.154249
C10   C     C_R   0.376626 0.214616 0.604408 -0.145823
C11   C     C_R   0.876310 0.289430 0.610692 -0.154251
C12   C     C_R   0.414785 0.893591 0.446491 0.885970
C13   C     C_R   0.876626 0.714615 0.604408 -0.145823
C14   C     C_R   0.686934 0.177680 0.517970 -0.241173
C15   C     C_R   0.685458 0.821561 0.514430 -0.234424
C16   C     C_R   0.186933 0.677682 0.517971 -0.241169
C17   C     C_R   0.185458 0.321561 0.514430 -0.234424
C18   C     C_R   0.667046 0.179445 0.702484 0.249152
C19   C     C_R   0.667239 0.821949 0.699645 0.260295
C20   C     C_R   0.167046 0.679446 0.702484 0.249152
C21   C     C_R   0.167240 0.321949 0.699646 0.260295
C22   C     C_R   0.375150 0.823414 0.419888 -0.139147
C23   C     C_R   0.913478 0.604993 0.445739 0.890345
C24   C     C_R   0.371072 0.171933 0.415763 -0.135761
C25   C     C_R   0.875150 0.323414 0.419887 -0.139147
C26   C     C_R   0.871072 0.671933 0.415763 -0.135761
C27   C     C_R   0.643807 0.995052 0.132356 -0.228114
C28   C     C_R   0.143807 0.495052 0.132356 -0.228114
C29   C     C_R   0.377650 0.995683 0.764073 0.320715
C30   C     C_R   0.877650 0.495683 0.764072 0.320716
C31   C     C_R   0.353122 0.975815 0.858414 -0.205837
C32   C     C_R   0.853122 0.475814 0.858414 -0.205836
C33   C     C_R   0.589739 0.897595 0.556524 0.882622
C34   C     C_R   0.914785 0.393591 0.446491 0.885969
C35   C     C_R   0.589990 0.102375 0.557319 0.883221
C36   C     C_R   0.089739 0.397595 0.556524 0.882623
C37   C     C_R   0.089990 0.602376 0.557319 0.883220
C38   C     C_R   0.401396 0.964452 0.952072 -0.149042
C39   C     C_R   0.901396 0.464453 0.952072 -0.149040
C40   C     C_R   0.472479 0.983731 0.952758 -0.038457
C41   C     C_R   0.972479 0.483733 0.952758 -0.038459
C42   C     C_R   0.495342 0.994843 0.853268 0.182338
C43   C     C_R   0.995342 0.494843 0.853268 0.182339
C44   C     C_R   0.522183 0.990765 0.047405 0.034750
C45   C     C_R   0.751593 0.212087 0.547003 0.089905
C46   C     C_R   0.022183 0.490766 0.047405 0.034749
C47   C     C_R   0.594138 0.993034 0.040042 0.118309
C48   C     C_R   0.094138 0.493034 0.040042 0.118309
C49   C     C_R   0.615724 0.995453 0.940632 -0.167574
C50   C     C_R   0.115724 0.495453 0.940632 -0.167573
C51   C     C_R   0.566598 0.998739 0.848539 -0.046598
C52   C     C_R   0.066598 0.498739 0.848539 -0.046597
C53   C     C_R   0.503149 0.000408 0.149166 -0.058500
C54   C     C_R   0.003149 0.500410 0.149166 -0.058501
C55   C     C_R   0.622011 0.997098 0.231235 0.412635
C56   C     C_R   0.750433 0.788287 0.542171 0.095202
C57   C     C_R   0.122011 0.497098 0.231235 0.412637
C58   C     C_R   0.731661 0.214375 0.733192 -0.179640
C59   C     C_R   0.732699 0.789341 0.729520 -0.182434
C60   C     C_R   0.231660 0.714376 0.733193 -0.179637
C61   C     C_R   0.232700 0.289342 0.729520 -0.182434
C62   C     C_R   0.646902 0.155755 0.594552 -0.123442
C63   C     C_R   0.646307 0.844323 0.592104 -0.126196
C64   C     C_R   0.146901 0.655756 0.594552 -0.123443
C65   C     C_R   0.146307 0.344323 0.592104 -0.126196
C66   C     C_R   0.358980 0.799788 0.312251 -0.242808
C67   C     C_R   0.251593 0.712087 0.547004 0.089903
C68   C     C_R   0.350146 0.187760 0.306263 -0.216339
C69   C     C_R   0.858978 0.299791 0.312249 -0.242808
C70   C     C_R   0.850146 0.687760 0.306263 -0.216338
C71   C     C_R   0.311575 0.741147 0.281872 0.000561
C72   C     C_R   0.302437 0.245186 0.274123 0.004326
C73   C     C_R   0.811572 0.241151 0.281869 0.000558
C74   C     C_R   0.802437 0.745186 0.274123 0.004326
C75   C     C_R   0.276916 0.709844 0.359733 -0.215979
C76   C     C_R   0.271157 0.282066 0.352326 -0.217266
C77   C     C_R   0.776913 0.209848 0.359730 -0.215978
C78   C     C_R   0.250434 0.288288 0.542172 0.095202
C79   C     C_R   0.771157 0.782066 0.352326 -0.217265
C80   C     C_R   0.291948 0.733678 0.468537 0.083428
C81   C     C_R   0.289197 0.263953 0.462602 0.086548
C82   C     C_R   0.791948 0.233679 0.468535 0.083431
C83   C     C_R   0.789196 0.763953 0.462601 0.086548
C84   C     C_R   0.348743 0.782464 0.500080 0.097515
C85   C     C_R   0.346769 0.216895 0.494499 0.087104
C86   C     C_R   0.848742 0.282464 0.500078 0.097514
C87   C     C_R   0.846769 0.716894 0.494499 0.087105
C88   C     C_2   0.378880 0.921653 0.040802 0.953232
C89   C     C_R   0.774447 0.229694 0.656834 0.105346
C90   C     C_2   0.878880 0.421656 0.040804 0.953237
C91   C     C_2   0.277844 0.960433 0.855811 1.052408
C92   C     C_2   0.777844 0.460431 0.855810 1.052402
C93   C     C_2   0.295552 0.714573 0.168392 0.950593
C94   C     C_2   0.282636 0.264351 0.158724 0.954190
C95   C     C_2   0.795546 0.214580 0.168387 0.950592
C96   C     C_2   0.782636 0.764351 0.158724 0.954191
H1    H     H_    0.670628 0.997722 0.934080 0.161772
H2    H     H_    0.361975 0.234376 0.766655 0.175088
H3    H     H_    0.859182 0.274582 0.772394 0.190130
H4    H     H_    0.861975 0.734375 0.766655 0.175088
H5    H     H_    0.747738 0.231145 0.816411 0.211348
H6    H     H_    0.749579 0.773756 0.812579 0.191585
H7    H     H_    0.247737 0.731146 0.816412 0.211347
H8    H     H_    0.249579 0.273757 0.812580 0.191585
H9    H     H_    0.665901 0.168560 0.434529 0.189740
H10   H     H_    0.663448 0.829327 0.431362 0.190921
H11   H     H_    0.165900 0.668565 0.434528 0.189736
H12   H     H_    0.170628 0.497722 0.934080 0.161771
H13   H     H_    0.163448 0.329328 0.431362 0.190921
H14   H     H_    0.382926 0.827641 0.252064 0.227040
H15   H     H_    0.370372 0.154695 0.245645 0.202809
H16   H     H_    0.882925 0.327643 0.252063 0.227042
H17   H     H_    0.870373 0.654695 0.245645 0.202809
H18   H     H_    0.740100 0.165292 0.334329 0.204271
H19   H     H_    0.733870 0.825493 0.325529 0.201995
H20   H     H_    0.240104 0.665286 0.334335 0.204274
H21   H     H_    0.233870 0.325494 0.325529 0.201996
H22   H     H_    0.426910 0.814165 0.638703 0.193230
H23   H     H_    0.699045 0.995356 0.127835 0.198690
H24   H     H_    0.427639 0.190978 0.631293 0.188101
H25   H     H_    0.926910 0.314165 0.638701 0.193229
H26   H     H_    0.927638 0.690978 0.631293 0.188101
H27   H     H_    0.308672 0.909467 0.141337 0.346411
H28   H     H_    0.808671 0.409475 0.141341 0.346412
H29   H     H_    0.202897 0.883452 0.865838 0.365044
H30   H     H_    0.702900 0.383448 0.865841 0.365044
H31   H     H_    0.237699 0.646718 0.058953 0.357786
H32   H     H_    0.224413 0.328628 0.047062 0.364199
H33   H     H_    0.737693 0.146725 0.058949 0.357788
H34   H     H_    0.199045 0.495355 0.127835 0.198691
H35   H     H_    0.724411 0.828626 0.047061 0.364200
H36   H     H_    0.450137 0.009839 0.160796 0.147681
H37   H     H_    0.950137 0.509841 0.160796 0.147681
H38   H     H_    0.585911 0.003510 0.774431 0.215266
H39   H     H_    0.085911 0.503510 0.774431 0.215266
H40   H     H_    0.359180 0.774583 0.772396 0.190129
N1    N     N_R   0.552340 0.000000 0.237260 -0.135484
N2    N     N_R   0.052340 0.500000 0.237260 -0.135484
N3    N     N_R   0.448170 0.000000 0.762060 -0.157633
N4    N     N_R   0.948170 0.500000 0.762060 -0.157633
O1    O     O_R   0.448200 0.076800 0.373930 -0.620275
O2    O     O_R   0.585240 0.076800 0.457600 -0.583862
O3    O     O_R   0.085240 0.423200 0.457600 -0.580995
O4    O     O_R   0.085240 0.576800 0.457600 -0.583859
O5    O     O_R   0.551780 0.923190 0.626070 -0.618390
O6    O     O_R   0.551780 0.076810 0.626070 -0.616170
O7    O     O_R   0.051780 0.423190 0.626070 -0.618390
O8    O     O_R   0.051780 0.576810 0.626070 -0.616170
O9    O     O_2   0.412879 0.867292 0.077411 -0.579461
O10   O     O_R   0.319485 0.943701 0.082477 -0.779690
O11   O     O_2   0.912878 0.367294 0.077412 -0.579461
O12   O     O_R   0.448200 0.923200 0.373930 -0.604704
O13   O     O_R   0.819485 0.443708 0.082480 -0.779690
O14   O     O_2   0.235824 0.011981 0.841391 -0.548084
O15   O     O_R   0.255296 0.886966 0.869572 -0.791060
O16   O     O_2   0.735822 0.511977 0.841387 -0.548083
O17   O     O_R   0.755298 0.386964 0.869575 -0.791058
O18   O     O_2   0.327489 0.739943 0.100825 -0.571872
O19   O     O_R   0.243823 0.660100 0.138279 -0.805876
O20   O     O_2   0.309377 0.231163 0.090421 -0.613551
O21   O     O_R   0.233367 0.320662 0.127633 -0.798215
O22   O     O_2   0.827479 0.239955 0.100818 -0.571870
O23   O     O_R   0.948200 0.576800 0.373930 -0.620275
O24   O     O_R   0.743821 0.160104 0.138276 -0.805877
O25   O     O_2   0.809379 0.731166 0.090422 -0.613552
O26   O     O_R   0.733365 0.820659 0.127632 -0.798213
O27   O     O_R   0.948200 0.423200 0.373930 -0.604704
O28   O     O_R   0.414750 0.076790 0.542400 -0.573066
O29   O     O_R   0.414750 0.923210 0.542400 -0.583986
O30   O     O_R   0.914750 0.576790 0.542400 -0.573067
O31   O     O_R   0.914750 0.423210 0.542400 -0.583986
O32   O     O_R   0.585240 0.923200 0.457600 -0.580995
Zn1   Zn    Zn3+2 0.522330 0.000000 0.387520 1.001780
Zn2   Zn    Zn3+2 0.022330 0.500000 0.387520 1.001780
Zn3   Zn    Zn3+2 0.477660 0.000000 0.612480 0.992859
Zn4   Zn    Zn3+2 0.977660 0.500000 0.612480 0.992859

loop_
_geom_bond_atom_site_label_1
_geom_bond_atom_site_label_2
_ccdc_geom_bond_type
C42   N3    A    
C11   H25   S    
C32   C39   A    
C88   O10   S    
C4    C61   A    
C8    C13   A    
C79   C83   A    
O28   Zn3   S    
C6    C10   A    
O23   Zn2   S    
C49   H1    S    
C72   C76   A    
C69   H16   S    
C25   C86   A    
O8    Zn4   S    
C39   C41   A    
C12   C22   S    
C2    C59   A    
C3    C60   A    
C7    C11   A    
C79   H19   S    
C1    O1    A    
C39   C90   S    
C42   C51   A    
C58   C89   A    
Br3   C20   S    
C20   C60   A    
Br5   C29   S    
C44   C53   A    
C52   H39   S    
C22   C66   A    
C61   H8    S    
C9    H22   S    
C49   C51   A    
C21   C65   A    
C50   C52   A    
C41   C46   A    
N1    Zn1   S    
C1    O28   A    
C5    H40   S    
C7    H3    S    
C93   O19   S    
C70   H17   S    
C53   N1    A    
H28   O13   S    
H33   O24   S    
C33   O32   A    
C1    C24   S    
C10   H24   S    
C14   H9    S    
C80   C84   A    
C51   H38   S    
C41   C43   A    
C95   O22   D    
Br6   C30   S    
Br2   C19   S    
C75   H20   S    
C14   C45   A    
C35   O6    A    
C21   C61   A    
Br4   C21   S    
C44   C47   A    
C33   C63   S    
C88   O9    D    
C94   O21   S    
C40   C42   A    
C75   C80   A    
Br8   C57   S    
C37   C64   S    
C50   H12   S    
C20   C64   A    
C9    C84   A    
C7    C89   A    
H31   O19   S    
H29   O15   S    
C14   C62   A    
C82   C86   A    
O2    Zn1   S    
C33   O5    A    
C66   H14   S    
C46   C48   A    
C23   C26   S    
C36   O3    A    
N2    Zn2   S    
C23   O30   A    
C27   C47   A    
C18   C58   A    
O5    Zn3   S    
C26   C87   A    
C22   C84   A    
C68   H15   S    
O7    Zn4   S    
C96   O26   S    
C13   C87   A    
C45   C89   A    
O29   Zn3   S    
O1    Zn1   S    
C72   C94   S    
C92   O17   S    
C60   H7    S    
H27   O10   S    
C24   C68   A    
C28   C48   A    
C15   C63   A    
C91   O14   D    
C70   C74   A    
C59   H6    S    
C31   C91   S    
C69   C73   A    
C34   O31   A    
N4    Zn4   S    
Br7   C55   S    
O6    Zn3   S    
H30   O17   S    
C77   H18   S    
C92   O16   D    
C37   O8    A    
C29   N3    A    
C27   H23   S    
C11   C86   A    
C30   N4    A    
C12   O29   A    
C35   O2    A    
C31   C38   A    
C91   O15   S    
C15   C56   A    
C4    C6    A    
C35   C62   S    
C66   C71   A    
C47   C49   A    
C54   N2    A    
Br1   C18   S    
C18   C62   A    
C90   O11   D    
C76   C81   A    
C25   C34   S    
C54   H37   S    
O4    Zn2   S    
O12   Zn1   S    
C90   O13   S    
C19   C63   A    
O32   Zn1   S    
C16   C64   A    
O3    Zn2   S    
O31   Zn4   S    
C73   C95   S    
N3    Zn3   S    
C76   H21   S    
C94   O20   D    
C28   C57   A    
C36   O7    A    
O27   Zn2   S    
C2    C56   A    
C68   C72   A    
C78   C81   A    
C17   H13   S    
C32   C92   S    
C27   C55   A    
C77   C82   A    
C53   H36   S    
C96   O25   D    
C4    C78   A    
C46   C54   A    
C5    C9    A    
C34   O27   A    
C37   O4    A    
C29   C31   A    
C3    C67   A    
C26   C70   A    
C15   H10   S    
C30   C32   A    
C3    C5    A    
C25   C69   A    
C95   O24   S    
C23   O23   A    
C43   N4    A    
C17   C78   A    
C48   C50   A    
C24   C85   A    
C17   C65   A    
C58   H5    S    
C81   C85   A    
C93   O18   D    
C16   C67   A    
O30   Zn4   S    
C13   H26   S    
C19   C59   A    
C8    H4    S    
C83   C87   A    
C71   C75   A    
C38   C40   A    
C67   C80   A    
C40   C44   A    
C38   C88   S    
H32   O21   S    
C16   H11   S    
C12   O12   A    
C6    H2    S    
C45   C82   A    
C10   C85   A    
C74   C96   S    
C71   C93   S    
H35   O26   S    
C2    C8    A    
C43   C52   A    
C56   C83   A    
C57   N2    A    
C28   H34   S    
C55   N1    A    
C73   C77   A    
C74   C79   A    
C36   C65   S    
