data_mof_unit_62578.cif
_audit_creation_date              2012-12-10T17:53:02-0500
_audit_creation_method            fapswitch 2.2
_symmetry_space_group_name_H-M    P1
_symmetry_Int_Tables_number       1
_space_group_crystal_system       triclinic
_cell_length_a                    19.624418
_cell_length_b                    19.624418
_cell_length_c                    43.052997
_cell_angle_alpha                 90.000172
_cell_angle_beta                  90.000172
_cell_angle_gamma                 89.965624
_cell_volume                      16580.4717218

loop_
_atom_site_label
_atom_site_type_symbol
_atom_type_description
_atom_site_fract_x
_atom_site_fract_y
_atom_site_fract_z
_atom_type_partial_charge
C1    C     C_R   0.000000 0.500000 0.531198 0.324751
C2    C     C_R   0.500000 1.000000 0.334428 0.864059
C3    C     C_R   0.523613 0.942394 0.582637 0.470301
C4    C     C_R   0.057608 0.476392 0.417363 0.470301
C5    C     C_R   0.030511 0.554149 0.581954 0.417636
C6    C     C_R   0.554147 0.030514 0.418046 0.417637
C7    C     C_R   0.476386 0.057606 0.582637 0.470300
C8    C     C_R   0.500000 0.000000 0.933805 -0.218131
C9    C     C_R   0.500000 1.000000 0.065570 -0.175746
C10   C     C_R   0.000000 0.500000 0.934430 -0.175741
C11   C     C_R   1.000000 0.500000 0.066195 -0.218129
C12   C     C_R   0.000000 0.500000 0.433805 -0.218134
C13   C     C_R   0.000000 0.500000 0.665572 0.864058
C14   C     C_R   0.000000 0.500000 0.565569 -0.175748
C15   C     C_R   0.500000 1.000000 0.434430 -0.175749
C16   C     C_R   0.500000 1.000000 0.566195 -0.218133
C17   C     C_3   0.379164 0.117659 0.931168 0.125531
C18   C     C_3   0.416168 0.152658 0.958093 -0.387318
C19   C     C_3   0.405897 0.229730 0.957159 -0.952272
C20   C     C_3   0.484322 0.833547 0.068533 0.082835
C21   C     C_3   0.539887 0.833268 0.043539 -0.360667
C22   C     C_3   0.582976 0.768613 0.045256 -0.958295
C23   C     C_3   0.833548 0.484324 0.931466 0.082834
C24   C     C_R   0.000000 0.500000 0.334247 0.832338
C25   C     C_3   0.833269 0.539887 0.956461 -0.360666
C26   C     C_3   0.768617 0.582978 0.954743 -0.958297
C27   C     C_3   0.117655 0.379161 0.068832 0.125528
C28   C     C_3   0.152654 0.416167 0.041907 -0.387323
C29   C     C_3   0.229726 0.405894 0.042842 -0.952277
C30   C     C_3   0.620837 0.882341 0.931168 0.125531
C31   C     C_3   0.583832 0.847342 0.958093 -0.387318
C32   C     C_3   0.594103 0.770270 0.957158 -0.952272
C33   C     C_3   0.515678 0.166453 0.068534 0.082835
C34   C     C_3   0.460113 0.166732 0.043539 -0.360666
C35   C     C_R   1.000000 0.500000 0.165753 0.832339
C36   C     C_3   0.417023 0.231385 0.045256 -0.958294
C37   C     C_3   0.166452 0.515677 0.931467 0.082833
C38   C     C_3   0.166731 0.460112 0.956461 -0.360669
C39   C     C_3   0.231384 0.417024 0.954744 -0.958299
C40   C     C_3   0.882344 0.620838 0.068832 0.125528
C41   C     C_3   0.847345 0.583832 0.041907 -0.387323
C42   C     C_3   0.770274 0.594105 0.042841 -0.952279
C43   C     C_3   0.879123 0.617618 0.431168 0.125533
C44   C     C_3   0.916117 0.652631 0.458093 -0.387317
C45   C     C_3   0.905818 0.729699 0.457159 -0.952270
C46   C     C_R   0.000000 0.500000 0.834428 0.864065
C47   C     C_3   0.984375 0.333541 0.568533 0.082834
C48   C     C_3   0.039941 0.333280 0.543539 -0.360662
C49   C     C_3   0.083052 0.268640 0.545257 -0.958295
C50   C     C_3   0.333543 0.984360 0.431466 0.082837
C51   C     C_3   0.333277 0.039927 0.456460 -0.360665
C52   C     C_3   0.268633 0.083031 0.454743 -0.958291
C53   C     C_3   0.617630 0.879134 0.568832 0.125531
C54   C     C_3   0.652639 0.916129 0.541907 -0.387314
C55   C     C_3   0.729708 0.905838 0.542842 -0.952269
C56   C     C_3   0.120877 0.382382 0.431168 0.125533
C57   C     C_R   0.500000 1.000000 0.165572 0.864066
C58   C     C_3   0.083885 0.347370 0.458093 -0.387315
C59   C     C_3   0.094183 0.270301 0.457158 -0.952270
C60   C     C_3   0.015627 0.666458 0.568534 0.082836
C61   C     C_3   0.960060 0.666720 0.543540 -0.360662
C62   C     C_3   0.916951 0.731360 0.545257 -0.958295
C63   C     C_3   0.666457 0.015640 0.431467 0.082837
C64   C     C_3   0.666724 0.960073 0.456461 -0.360666
C65   C     C_3   0.731367 0.916968 0.454743 -0.958290
C66   C     C_3   0.382370 0.120866 0.568832 0.125532
C67   C     C_3   0.347361 0.083871 0.541907 -0.387313
C68   C     C_R   0.500000 1.000000 0.834247 0.832341
C69   C     C_3   0.270291 0.094162 0.542841 -0.952270
C70   C     C_R   0.370693 0.129307 0.750000 0.818110
C71   C     C_R   0.629308 0.870691 0.250000 0.818563
C72   C     C_R   0.870685 0.370685 0.750000 0.817717
C73   C     C_R   0.000000 0.500000 0.468156 0.315555
C74   C     C_R   0.129315 0.629316 0.250000 0.821353
C75   C     C_R   0.629307 0.870693 0.750000 0.818108
C76   C     C_R   0.370692 0.129308 0.250000 0.818561
C77   C     C_R   0.129315 0.629315 0.750000 0.817717
C78   C     C_R   0.870684 0.370684 0.250000 0.821353
C79   C     C_R   0.370685 0.870685 0.250000 0.817718
C80   C     C_R   0.629315 0.129316 0.750000 0.821353
C81   C     C_R   0.870693 0.629307 0.250000 0.818110
C82   C     C_R   0.129308 0.370692 0.750000 0.818563
C83   C     C_R   0.629315 0.129315 0.250000 0.817718
C84   C     C_R   0.500000 1.000000 0.531843 0.315555
C85   C     C_R   0.370684 0.870684 0.750000 0.821354
C86   C     C_R   0.129307 0.370693 0.250000 0.818108
C87   C     C_R   0.870692 0.629308 0.750000 0.818561
C88   C     C_1   0.681074 0.181074 0.750000 -0.144862
C89   C     C_1   0.318928 0.818927 0.250000 -0.144525
C90   C     C_1   0.818933 0.681067 0.750000 -0.144982
C91   C     C_1   0.181064 0.318936 0.250000 -0.148100
C92   C     C_1   0.318925 0.818926 0.750000 -0.144862
C93   C     C_1   0.681072 0.181072 0.250000 -0.144525
C94   C     C_1   0.181067 0.318933 0.750000 -0.144983
C95   C     C_R   0.500000 1.000000 0.468802 0.324753
C96   C     C_1   0.818936 0.681064 0.250000 -0.148101
C97   C     C_1   0.681067 0.818933 0.250000 -0.144983
C98   C     C_1   0.318936 0.181064 0.750000 -0.148102
C99   C     C_1   0.818925 0.318926 0.250000 -0.144862
C100  C     C_1   0.181072 0.681072 0.750000 -0.144525
C101  C     C_1   0.318933 0.181067 0.250000 -0.144982
C102  C     C_1   0.681064 0.818936 0.750000 -0.148100
C103  C     C_1   0.181074 0.681074 0.250000 -0.144862
C104  C     C_1   0.818928 0.318927 0.750000 -0.144525
C105  C     C_1   0.724540 0.224540 0.750000 0.002634
C106  C     C_R   0.500000 1.000000 0.031198 0.324752
C107  C     C_1   0.275462 0.775462 0.250000 0.002035
C108  C     C_1   0.775459 0.724541 0.750000 0.000277
C109  C     C_1   0.224537 0.275463 0.250000 -0.000181
C110  C     C_1   0.275460 0.775460 0.750000 0.002634
C111  C     C_1   0.724538 0.224538 0.250000 0.002035
C112  C     C_1   0.224541 0.275459 0.750000 0.000277
C113  C     C_1   0.775463 0.724537 0.250000 -0.000180
C114  C     C_1   0.724541 0.775459 0.250000 0.000277
C115  C     C_1   0.275463 0.224537 0.750000 -0.000180
C116  C     C_1   0.775460 0.275460 0.250000 0.002634
C117  C     C_R   0.500000 0.000000 0.968157 0.315555
C118  C     C_1   0.224538 0.724538 0.750000 0.002035
C119  C     C_1   0.275459 0.224541 0.250000 0.000277
C120  C     C_1   0.724537 0.775463 0.750000 -0.000181
C121  C     C_1   0.224540 0.724540 0.250000 0.002634
C122  C     C_1   0.775462 0.275462 0.750000 0.002035
C123  C     C_R   0.500000 0.000000 0.868341 -0.191940
C124  C     C_R   0.500000 1.000000 0.131149 -0.161080
C125  C     C_R   0.000000 0.500000 0.868851 -0.161078
C126  C     C_R   1.000000 0.500000 0.131659 -0.191938
C127  C     C_R   0.000000 0.500000 0.368341 -0.191931
C128  C     C_R   1.000000 0.500000 0.031843 0.315552
C129  C     C_R   0.000000 0.500000 0.631148 -0.161094
C130  C     C_R   0.500000 1.000000 0.368852 -0.161092
C131  C     C_R   0.500000 1.000000 0.631659 -0.191934
C132  C     C_R   0.441360 0.020716 0.884710 -0.043036
C133  C     C_R   0.464617 0.948668 0.114712 -0.045885
C134  C     C_R   0.948669 0.464617 0.885288 -0.045888
C135  C     C_R   0.020713 0.441360 0.115290 -0.043037
C136  C     C_R   0.558640 0.979285 0.884710 -0.043036
C137  C     C_R   0.535383 0.051331 0.114712 -0.045885
C138  C     C_R   0.051332 0.535382 0.885288 -0.045887
C139  C     C_R   0.000000 0.500000 0.968802 0.324749
C140  C     C_R   0.979286 0.558640 0.115290 -0.043038
C141  C     C_R   0.941353 0.520696 0.384710 -0.043035
C142  C     C_R   0.964632 0.448658 0.614711 -0.045884
C143  C     C_R   0.448661 0.964627 0.385288 -0.045884
C144  C     C_R   0.520701 0.941355 0.615290 -0.043035
C145  C     C_R   0.058647 0.479305 0.384710 -0.043035
C146  C     C_R   0.035369 0.551341 0.614712 -0.045884
C147  C     C_R   0.551339 0.035372 0.385288 -0.045884
C148  C     C_R   0.479298 0.058645 0.615290 -0.043035
C149  C     C_R   0.442400 0.023627 0.917363 0.470301
C150  C     C_R   0.500000 1.000000 0.665753 0.832339
C151  C     C_R   0.469473 0.945860 0.081954 0.417639
C152  C     C_R   0.945861 0.469473 0.918046 0.417637
C153  C     C_R   0.023625 0.442400 0.082637 0.470301
C154  C     C_R   0.557600 0.976373 0.917363 0.470300
C155  C     C_R   0.530527 0.054139 0.081954 0.417638
C156  C     C_R   0.054140 0.530526 0.918046 0.417638
C157  C     C_R   0.976374 0.557600 0.082637 0.470300
C158  C     C_R   0.942392 0.523608 0.417363 0.470301
C159  C     C_R   0.969490 0.445850 0.581953 0.417636
C160  C     C_R   0.445853 0.969485 0.418046 0.417637
H1    H     H_    0.389550 0.079394 0.853951 0.189392
H2    H     H_    0.634913 0.003465 0.854982 0.187637
H3    H     H_    0.106857 0.263776 0.568562 0.268405
H4    H     H_    0.124226 0.270971 0.527608 0.273989
H5    H     H_    0.051074 0.223080 0.540617 0.266501
H6    H     H_    0.287779 0.951858 0.434757 0.172115
H7    H     H_    0.328409 0.007849 0.407980 0.142214
H8    H     H_    0.336746 0.015743 0.479735 0.241424
H9    H     H_    0.377942 0.073927 0.453262 0.219642
H10   H     H_    0.263767 0.106836 0.431438 0.268405
H11   H     H_    0.270960 0.124206 0.472392 0.273989
H12   H     H_    0.223076 0.051050 0.459382 0.266501
H13   H     H_    0.615007 0.072383 0.142790 0.179161
H14   H     H_    0.630303 0.824047 0.567355 0.173724
H15   H     H_    0.638820 0.897507 0.591363 0.131345
H16   H     H_    0.632440 0.896405 0.519536 0.243580
H17   H     H_    0.641659 0.971569 0.543332 0.221715
H18   H     H_    0.750701 0.923971 0.565330 0.268457
H19   H     H_    0.753928 0.935444 0.523860 0.276645
H20   H     H_    0.742455 0.851095 0.539748 0.266374
H21   H     H_    0.175965 0.369714 0.432645 0.173724
H22   H     H_    0.102506 0.361190 0.408637 0.131345
H23   H     H_    0.103606 0.367570 0.480463 0.243580
H24   H     H_    0.601862 0.133017 0.116542 0.217237
H25   H     H_    0.028444 0.358344 0.456667 0.221715
H26   H     H_    0.076052 0.249306 0.434669 0.268458
H27   H     H_    0.064579 0.246078 0.476140 0.276645
H28   H     H_    0.148927 0.257559 0.460252 0.266375
H29   H     H_    0.048125 0.712225 0.565243 0.172115
H30   H     H_    0.992137 0.671589 0.592020 0.142213
H31   H     H_    0.984245 0.663252 0.520265 0.241424
H32   H     H_    0.926064 0.622051 0.546737 0.219642
H33   H     H_    0.893145 0.736224 0.568562 0.268406
H34   H     H_    0.875776 0.729030 0.527608 0.273989
H35   H     H_    0.072384 0.615005 0.857210 0.179162
H36   H     H_    0.948928 0.776920 0.540618 0.266501
H37   H     H_    0.712221 0.048141 0.434758 0.172115
H38   H     H_    0.671591 0.992150 0.407980 0.142213
H39   H     H_    0.663254 0.984257 0.479735 0.241424
H40   H     H_    0.622058 0.926073 0.453263 0.219642
H41   H     H_    0.736234 0.893163 0.431439 0.268406
H42   H     H_    0.729040 0.875794 0.472392 0.273989
H43   H     H_    0.776924 0.948950 0.459383 0.266500
H44   H     H_    0.369697 0.175952 0.567355 0.173724
H45   H     H_    0.361180 0.102493 0.591363 0.131345
H46   H     H_    0.133018 0.601861 0.883459 0.217237
H47   H     H_    0.367560 0.103594 0.519536 0.243580
H48   H     H_    0.358341 0.028431 0.543332 0.221715
H49   H     H_    0.249298 0.076028 0.565330 0.268457
H50   H     H_    0.246072 0.064556 0.523859 0.276645
H51   H     H_    0.257545 0.148904 0.539747 0.266375
H52   H     H_    0.920610 0.610451 0.146049 0.189391
H53   H     H_    0.003469 0.634912 0.145018 0.187638
H54   H     H_    0.889525 0.579356 0.353950 0.189374
H55   H     H_    0.865087 0.496490 0.354982 0.187644
H56   H     H_    0.885012 0.427583 0.642788 0.179170
H57   H     H_    0.365087 0.996535 0.854982 0.187637
H58   H     H_    0.898177 0.366952 0.616540 0.217236
H59   H     H_    0.427592 0.885006 0.357211 0.179167
H60   H     H_    0.366960 0.898166 0.383458 0.217236
H61   H     H_    0.579366 0.889531 0.646049 0.189379
H62   H     H_    0.496502 0.865087 0.645018 0.187642
H63   H     H_    0.110476 0.420645 0.353950 0.189373
H64   H     H_    0.134913 0.503511 0.354982 0.187643
H65   H     H_    0.114989 0.572416 0.642789 0.179170
H66   H     H_    0.101824 0.633047 0.616541 0.217235
H67   H     H_    0.572408 0.114993 0.357211 0.179168
H68   H     H_    0.384994 0.927616 0.142790 0.179161
H69   H     H_    0.633040 0.101833 0.383459 0.217236
H70   H     H_    0.420633 0.110468 0.646050 0.189379
H71   H     H_    0.503497 0.134913 0.645018 0.187642
H72   H     H_    0.324080 0.130346 0.932645 0.173726
H73   H     H_    0.397541 0.138844 0.908637 0.131345
H74   H     H_    0.396440 0.132465 0.980464 0.243581
H75   H     H_    0.471605 0.141664 0.956668 0.221717
H76   H     H_    0.424035 0.250718 0.934670 0.268458
H77   H     H_    0.435510 0.253943 0.976140 0.276646
H78   H     H_    0.351158 0.242491 0.960253 0.266375
H79   H     H_    0.398138 0.866982 0.116542 0.217237
H80   H     H_    0.451809 0.787790 0.065242 0.172117
H81   H     H_    0.507811 0.828408 0.092019 0.142215
H82   H     H_    0.515702 0.836743 0.020264 0.241425
H83   H     H_    0.573898 0.877925 0.046737 0.219643
H84   H     H_    0.606780 0.763741 0.068560 0.268407
H85   H     H_    0.624150 0.770931 0.027606 0.273991
H86   H     H_    0.550983 0.723064 0.040616 0.266501
H87   H     H_    0.787791 0.451811 0.934756 0.172117
H88   H     H_    0.828410 0.507814 0.907980 0.142215
H89   H     H_    0.836742 0.515702 0.979735 0.241425
H90   H     H_    0.927616 0.384994 0.857209 0.179162
H91   H     H_    0.877928 0.573897 0.953264 0.219645
H92   H     H_    0.763747 0.606784 0.931439 0.268407
H93   H     H_    0.770934 0.624151 0.972393 0.273992
H94   H     H_    0.723066 0.550986 0.959382 0.266501
H95   H     H_    0.130340 0.324078 0.067353 0.173728
H96   H     H_    0.138840 0.397537 0.091363 0.131345
H97   H     H_    0.132460 0.396442 0.019536 0.243582
H98   H     H_    0.141662 0.471604 0.043334 0.221718
H99   H     H_    0.250714 0.424029 0.065332 0.268458
H100  H     H_    0.253938 0.435507 0.023861 0.276648
H101  H     H_    0.866982 0.398139 0.883458 0.217237
H102  H     H_    0.242484 0.351155 0.039747 0.266376
H103  H     H_    0.675920 0.869655 0.932645 0.173725
H104  H     H_    0.602459 0.861156 0.908637 0.131345
H105  H     H_    0.603560 0.867535 0.980464 0.243581
H106  H     H_    0.528395 0.858336 0.956667 0.221717
H107  H     H_    0.575964 0.749282 0.934669 0.268458
H108  H     H_    0.564490 0.746058 0.976139 0.276645
H109  H     H_    0.648842 0.757509 0.960252 0.266375
H110  H     H_    0.548191 0.212209 0.065243 0.172116
H111  H     H_    0.492189 0.171591 0.092020 0.142215
H112  H     H_    0.079389 0.389548 0.146049 0.189391
H113  H     H_    0.484297 0.163257 0.020265 0.241425
H114  H     H_    0.426102 0.122074 0.046737 0.219644
H115  H     H_    0.393218 0.236257 0.068561 0.268406
H116  H     H_    0.375849 0.229068 0.027607 0.273991
H117  H     H_    0.449016 0.276935 0.040618 0.266500
H118  H     H_    0.212208 0.548190 0.934758 0.172118
H119  H     H_    0.171591 0.492188 0.907981 0.142215
H120  H     H_    0.163255 0.484297 0.979736 0.241426
H121  H     H_    0.122073 0.426101 0.953263 0.219644
H122  H     H_    0.236257 0.393219 0.931440 0.268408
H123  H     H_    0.996530 0.365088 0.145018 0.187638
H124  H     H_    0.229067 0.375850 0.972394 0.273993
H125  H     H_    0.276933 0.449017 0.959384 0.266502
H126  H     H_    0.869659 0.675921 0.067353 0.173728
H127  H     H_    0.861159 0.602462 0.091363 0.131345
H128  H     H_    0.867540 0.603558 0.019536 0.243583
H129  H     H_    0.858338 0.528395 0.043333 0.221718
H130  H     H_    0.749285 0.575970 0.065331 0.268459
H131  H     H_    0.746061 0.564491 0.023860 0.276648
H132  H     H_    0.757515 0.648844 0.039746 0.266376
H133  H     H_    0.824036 0.630286 0.432646 0.173725
H134  H     H_    0.610450 0.920607 0.853951 0.189392
H135  H     H_    0.897493 0.638810 0.408637 0.131345
H136  H     H_    0.896397 0.632429 0.480464 0.243581
H137  H     H_    0.971558 0.641656 0.456667 0.221715
H138  H     H_    0.923948 0.750694 0.434670 0.268458
H139  H     H_    0.935423 0.753922 0.476140 0.276645
H140  H     H_    0.851075 0.742440 0.460253 0.266374
H141  H     H_    0.951876 0.287774 0.565241 0.172115
H142  H     H_    0.007864 0.328410 0.592019 0.142214
H143  H     H_    0.015757 0.336747 0.520265 0.241423
H144  H     H_    0.073938 0.377949 0.546737 0.219642
N1    N     N_R   0.556189 0.019615 0.984217 -0.128891
N2    N     N_R   0.943850 0.480271 0.515138 -0.130589
N3    N     N_R   0.480276 0.943847 0.484862 -0.130589
N4    N     N_R   0.519628 0.056184 0.515784 -0.128891
N5    N     N_R   0.943818 0.480366 0.484216 -0.128891
N6    N     N_R   0.056151 0.519729 0.515138 -0.130588
N7    N     N_R   0.519724 0.056152 0.484862 -0.130590
N8    N     N_R   0.480371 0.943816 0.515784 -0.128891
N9    N     N_3   0.379710 0.038116 0.868618 -0.429573
N10   N     N_3   0.423465 0.900247 0.131517 -0.416142
N11   N     N_3   0.900248 0.423466 0.868482 -0.416141
N12   N     N_R   0.443843 0.980290 0.015138 -0.130590
N13   N     N_3   0.038111 0.379710 0.131381 -0.429574
N14   N     N_3   0.620290 0.961885 0.868619 -0.429574
N15   N     N_3   0.576535 0.099752 0.131518 -0.416142
N16   N     N_3   0.099752 0.576534 0.868483 -0.416142
N17   N     N_3   0.961888 0.620290 0.131382 -0.429574
N18   N     N_3   0.879698 0.538076 0.368618 -0.429577
N19   N     N_3   0.923493 0.400226 0.631516 -0.416131
N20   N     N_3   0.400232 0.923484 0.368483 -0.416134
N21   N     N_3   0.538087 0.879701 0.631382 -0.429576
N22   N     N_3   0.120302 0.461925 0.368618 -0.429576
N23   N     N_R   0.980288 0.443843 0.984862 -0.130589
N24   N     N_3   0.076508 0.599773 0.631517 -0.416131
N25   N     N_3   0.599769 0.076515 0.368484 -0.416134
N26   N     N_3   0.461913 0.120299 0.631382 -0.429577
N27   N     N_R   0.019616 0.556188 0.015784 -0.128891
N28   N     N_R   0.443811 0.980385 0.984216 -0.128891
N29   N     N_R   0.556157 0.019710 0.015138 -0.130590
N30   N     N_R   0.019712 0.556157 0.984862 -0.130589
N31   N     N_R   0.980384 0.443811 0.015783 -0.128891
N32   N     N_R   0.056182 0.519634 0.484216 -0.128891
O1    O     O_3   0.500000 1.000000 0.750000 -0.476794
O2    O     O_R   0.555780 1.000000 0.319360 -0.625307
O3    O     O_R   1.000000 0.444220 0.680640 -0.625308
O4    O     O_R   0.000000 0.555780 0.319360 -0.642208
O5    O     O_R   0.055780 0.500000 0.180640 -0.642211
O6    O     O_R   0.944220 0.500000 0.819360 -0.625308
O7    O     O_R   0.500000 0.055780 0.180640 -0.625308
O8    O     O_R   0.500000 0.944220 0.819360 -0.642211
O9    O     O_R   0.944220 0.500000 0.180640 -0.642211
O10   O     O_R   0.055780 0.500000 0.819360 -0.625309
O11   O     O_R   0.500000 0.944220 0.180640 -0.625309
O12   O     O_3   0.500000 0.000000 0.250000 -0.486091
O13   O     O_R   0.500000 0.055780 0.819360 -0.642212
O14   O     O_R   0.365890 0.078400 0.731800 -0.636187
O15   O     O_R   0.634110 0.921600 0.268200 -0.633835
O16   O     O_R   0.921600 0.365890 0.731800 -0.632252
O17   O     O_R   0.078400 0.634110 0.268200 -0.633039
O18   O     O_R   0.634110 0.921600 0.731800 -0.636187
O19   O     O_R   0.365890 0.078400 0.268200 -0.633834
O20   O     O_R   0.078400 0.634110 0.731800 -0.632250
O21   O     O_R   0.921600 0.365890 0.268200 -0.633038
O22   O     O_R   0.365890 0.921600 0.268200 -0.632250
O23   O     O_3   0.000000 0.500000 0.750000 -0.486091
O24   O     O_R   0.634110 0.078400 0.731800 -0.633038
O25   O     O_R   0.921600 0.634110 0.268200 -0.636187
O26   O     O_R   0.078400 0.365890 0.731800 -0.633834
O27   O     O_R   0.634110 0.078400 0.268200 -0.632251
O28   O     O_R   0.365890 0.921600 0.731800 -0.633039
O29   O     O_R   0.078400 0.365890 0.268200 -0.636187
O30   O     O_R   0.921600 0.634110 0.731800 -0.633834
O31   O     O_R   0.865890 0.578400 0.231800 -0.636189
O32   O     O_R   0.134110 0.421600 0.768200 -0.633835
O33   O     O_R   0.421600 0.865890 0.231800 -0.632250
O34   O     O_3   1.000000 0.500000 0.250000 -0.476795
O35   O     O_R   0.578400 0.134110 0.768200 -0.633039
O36   O     O_R   0.134110 0.421600 0.231800 -0.636190
O37   O     O_R   0.865890 0.578400 0.768200 -0.633836
O38   O     O_R   0.578400 0.134110 0.231800 -0.632249
O39   O     O_R   0.421600 0.865890 0.768200 -0.633038
O40   O     O_R   0.865890 0.421600 0.768200 -0.632248
O41   O     O_R   0.134110 0.578400 0.231800 -0.633038
O42   O     O_R   0.421600 0.134110 0.768200 -0.636190
O43   O     O_R   0.578400 0.865890 0.231800 -0.633835
O44   O     O_R   0.134110 0.578400 0.768200 -0.632250
O45   O     O_R   0.555780 1.000000 0.680640 -0.642208
O46   O     O_R   0.865890 0.421600 0.231800 -0.633039
O47   O     O_R   0.578400 0.865890 0.768200 -0.636190
O48   O     O_R   0.421600 0.134110 0.231800 -0.633836
O49   O     O_3   0.385343 0.045844 0.933458 -0.606466
O50   O     O_3   0.441814 0.891670 0.065573 -0.628012
O51   O     O_3   0.891670 0.441815 0.934427 -0.628012
O52   O     O_3   0.045840 0.385342 0.066542 -0.606466
O53   O     O_3   0.614657 0.954156 0.933458 -0.606466
O54   O     O_3   0.558186 0.108330 0.065573 -0.628012
O55   O     O_3   0.108330 0.558185 0.934427 -0.628012
O56   O     O_R   0.444220 1.000000 0.319360 -0.625306
O57   O     O_3   0.954160 0.614657 0.066542 -0.606465
O58   O     O_3   0.885327 0.545806 0.433457 -0.606466
O59   O     O_3   0.941849 0.391651 0.565572 -0.628012
O60   O     O_3   0.391656 0.941839 0.434427 -0.628012
O61   O     O_3   0.545816 0.885331 0.566542 -0.606466
O62   O     O_3   0.114673 0.454195 0.433458 -0.606466
O63   O     O_3   0.058152 0.608348 0.565573 -0.628012
O64   O     O_3   0.608344 0.058160 0.434428 -0.628012
O65   O     O_3   0.454183 0.114669 0.566542 -0.606466
O66   O     O_R   0.000000 0.555780 0.680640 -0.625306
O67   O     O_R   1.000000 0.444220 0.319360 -0.642207
O68   O     O_R   0.444220 1.000000 0.680640 -0.642208
Zn1   Zn    Zn3+2 0.500000 0.079610 0.775930 0.970395
Zn2   Zn    Zn3+2 0.000000 0.420390 0.724070 0.980501
Zn3   Zn    Zn3+2 0.420390 1.000000 0.275930 0.980501
Zn4   Zn    Zn3+2 0.579610 0.000000 0.724070 0.970397
Zn5   Zn    Zn3+2 1.000000 0.420390 0.275930 0.970398
Zn6   Zn    Zn3+2 0.000000 0.579610 0.724070 0.980501
Zn7   Zn    Zn3+2 0.579610 1.000000 0.275930 0.980502
Zn8   Zn    Zn3+2 0.420390 0.000000 0.724070 0.970397
Zn9   Zn    Zn3+2 0.500000 0.920390 0.224070 0.980502
Zn10  Zn    Zn3+2 0.920390 0.500000 0.775930 0.980502
Zn11  Zn    Zn3+2 0.079610 0.500000 0.224070 0.970395
Zn12  Zn    Zn3+2 0.500000 0.920390 0.775930 0.970395
Zn13  Zn    Zn3+2 0.500000 0.079610 0.224070 0.980502
Zn14  Zn    Zn3+2 0.079610 0.500000 0.775930 0.980502
Zn15  Zn    Zn3+2 0.920390 0.500000 0.224070 0.970395
Zn16  Zn    Zn3+2 1.000000 0.579610 0.275930 0.970398

loop_
_geom_bond_atom_site_label_1
_geom_bond_atom_site_label_2
_ccdc_geom_bond_type
C42   H130  S    
C82   C94   S    
C128  N31   A    
C43   H135  S    
C55   H20   S    
C108  C120  S    
O13   Zn1   S    
C133  C151  A    
C62   H36   S    
C72   O40   A    
C23   O51   S    
C124  C133  A    
C143  N20   S    
C79   O33   A    
C76   O48   A    
C2    O2    A    
C6    O64   S    
C83   C93   S    
C16   C84   S    
C59   H26   S    
C140  N17   S    
C54   H16   S    
C23   H88   S    
H79   N10   S    
C25   H89   S    
C85   C92   S    
C131  C148  A    
C24   C127  S    
C69   H51   S    
C4    C12   A    
O29   Zn5   S    
O34   Zn5   S    
C75   O47   A    
N4    N7    A    
C37   H118  S    
H62   N21   S    
C48   H143  S    
C21   C22   S    
C33   H111  S    
C31   H106  S    
H65   N24   S    
C110  C118  S    
C32   H109  S    
C47   H141  S    
C133  N10   S    
C95   N3    A    
C53   O61   S    
C80   O24   A    
C82   O26   A    
C20   H81   S    
H101  N11   S    
C51   C52   S    
C124  C137  A    
C51   H9    S    
C19   H78   S    
C52   H10   S    
C99   C116  T    
C129  C142  A    
O19   Zn3   S    
C63   H37   S    
C58   H23   S    
C7    O65   S    
C101  C119  T    
H68   N10   S    
C43   C44   S    
C45   H140  S    
C37   C38   S    
C117  N28   A    
C65   H43   S    
H52   N17   S    
C76   O19   A    
C127  C145  A    
O7    Zn13  S    
C87   O37   A    
C141  N18   S    
C64   H40   S    
C55   H18   S    
C62   H34   S    
C103  C121  T    
C11   C157  A    
C86   O36   A    
C9    C151  A    
O23   Zn14  S    
O44   Zn14  S    
C18   H74   S    
O23   Zn10  S    
C158  O58   S    
C125  C138  A    
O1    Zn4   S    
O32   Zn14  S    
C56   O62   S    
C45   H138  S    
C15   C160  A    
C80   C88   S    
C25   H91   S    
O34   Zn15  S    
O48   Zn13  S    
C160  O60   S    
O34   Zn11  S    
C17   O49   S    
H54   N18   S    
H46   N16   S    
C20   C21   S    
O14   Zn8   S    
O41   Zn11  S    
C78   C99   S    
C61   H31   S    
O5    Zn11  S    
C36   H116  S    
C138  N16   S    
C82   O32   A    
C1    N6    A    
O38   Zn13  S    
C123  C132  A    
C80   O35   A    
C19   H76   S    
C52   H12   S    
C143  C160  A    
O18   Zn4   S    
C53   C54   S    
C39   H125  S    
H64   N22   S    
C71   C97   S    
C29   H99   S    
O1    Zn8   S    
C77   C100  S    
C18   C19   S    
C38   C39   S    
C68   O8    A    
C104  C122  T    
C137  C155  A    
N3    N8    A    
C127  C141  A    
C57   O11   A    
C38   H121  S    
C136  N14   S    
O39   Zn12  S    
C49   H4    S    
C128  N27   A    
C59   H27   S    
C46   O10   A    
C27   H96   S    
C13   O3    A    
C68   O13   A    
O4    Zn16  S    
C21   H83   S    
C66   H44   S    
C66   C67   S    
H70   N26   S    
H71   N26   S    
H63   N22   S    
C68   C123  S    
C17   H72   S    
C8    C117  S    
C29   H102  S    
C34   H113  S    
C139  N23   A    
O42   Zn1   S    
C59   H28   S    
O31   Zn15  S    
O36   Zn11  S    
C47   O59   S    
C22   H86   S    
C66   H45   S    
C25   C26   S    
C20   H80   S    
C142  N19   S    
O30   Zn6   S    
O45   Zn4   S    
C132  C149  A    
C31   C32   S    
O66   Zn6   S    
O21   Zn5   S    
C39   H124  S    
O17   Zn16  S    
O16   Zn2   S    
C17   C18   S    
O25   Zn16  S    
C154  O53   S    
O6    Zn10  S    
C95   N7    A    
C26   H92   S    
C83   O38   A    
C60   H30   S    
C28   H98   S    
C44   H136  S    
C50   O60   S    
C87   C90   S    
C53   H15   S    
C77   O20   A    
C54   C55   S    
C66   O65   S    
C130  C147  A    
H57   N9    S    
C81   O31   A    
H60   N20   S    
C26   H93   S    
O68   Zn8   S    
C14   C159  A    
O24   Zn4   S    
C90   C108  T    
H69   N25   S    
H67   N25   S    
C78   O21   A    
C88   C105  T    
C92   C110  T    
C98   C115  T    
C13   O66   A    
O1    Zn1   S    
C4    C145  A    
C94   C112  T    
C56   C58   S    
C105  C122  S    
C74   O17   A    
O15   Zn7   S    
O8    Zn12  S    
C23   H87   S    
C61   C62   S    
N27   N30   A    
C2    O56   A    
C49   H3    S    
C11   C153  A    
C63   C64   S    
C9    C155  A    
C77   O44   A    
C13   C129  S    
C69   H50   S    
C12   C158  A    
C97   C114  T    
C12   C73   S    
C134  N11   S    
C75   O18   A    
O27   Zn7   S    
C3    C16   A    
H134  N14   S    
C125  C134  A    
O26   Zn2   S    
C33   H110  S    
C31   H105  S    
C41   C42   S    
C46   C125  S    
C84   N8    A    
C142  C159  A    
C30   O53   S    
H53   N17   S    
N23   N31   A    
O10   Zn14  S    
C35   O9    A    
C28   C29   S    
C86   C91   S    
C19   H77   S    
C15   C95   S    
C30   C31   S    
C56   H21   S    
C39   H122  S    
C138  C156  A    
C32   H107  S    
C30   H103  S    
C10   C152  A    
C42   H131  S    
C65   H42   S    
C20   O50   S    
C150  O45   A    
C50   H6    S    
C111  C116  S    
C73   N5    A    
H66   N24   S    
O22   Zn3   S    
O3    Zn2   S    
C106  N29   A    
O1    Zn12  S    
C40   O57   S    
C58   H25   S    
O40   Zn10  S    
H59   N20   S    
H56   N19   S    
C149  O49   S    
C55   H19   S    
C73   N32   A    
C83   O27   A    
N2    N5    A    
C159  O59   S    
H2    N14   S    
C84   N4    A    
C81   C96   S    
C18   H75   S    
C135  N13   S    
C72   C104  S    
C58   C59   S    
C155  O54   S    
N12   N28   A    
C60   C61   S    
C46   O6    A    
C132  N9    S    
H61   N21   S    
C49   H5    S    
C136  C154  A    
O34   Zn16  S    
C3    O61   S    
C134  C152  A    
O35   Zn1   S    
C50   C51   S    
C152  O51   S    
C5    C14   A    
C37   H119  S    
O2    Zn7   S    
C38   H120  S    
C48   C49   S    
C117  N1    A    
C126  C135  A    
C60   O63   S    
C4    O62   S    
C96   C113  T    
C5    O63   S    
C47   H142  S    
C100  C118  T    
C10   C139  S    
C107  C121  S    
C102  C120  T    
C44   C45   S    
C109  C119  S    
C113  C114  S    
C85   O39   A    
H35   N16   S    
H13   N15   S    
C3    C144  A    
C63   O64   S    
C37   O55   S    
C79   O22   A    
C139  N30   A    
C17   H73   S    
C156  O55   S    
O43   Zn9   S    
C40   H127  S    
C54   H17   S    
C64   C65   S    
C8    C149  A    
C57   C124  S    
C27   O52   S    
H90   N11   S    
C2    C130  S    
N1    N29   A    
O67   Zn5   S    
C148  N26   S    
C141  C158  A    
C64   H39   S    
C44   H137  S    
O12   Zn9   S    
C131  C150  S    
C62   H33   S    
C27   H95   S    
C131  C144  A    
C21   H82   S    
O12   Zn13  S    
C6    C147  A    
C70   O42   A    
C106  N12   A    
C34   H114  S    
C126  C140  A    
C45   H139  S    
C63   H38   S    
O23   Zn2   S    
C6    C15   A    
C151  O50   S    
C60   H29   S    
C24   O67   A    
C61   H32   S    
C41   H128  S    
H123  N13   S    
C36   H115  S    
C34   C36   S    
C8    C154  A    
C35   O5    A    
C89   C107  T    
C51   H8    S    
C52   H11   S    
C150  O68   A    
C53   H14   S    
N6    N32   A    
C42   H132  S    
C29   H100  S    
C79   C89   S    
C72   O16   A    
C74   O41   A    
C26   H94   S    
C10   C156  A    
C9    C106  S    
C67   C69   S    
C35   C126  S    
C22   H84   S    
C140  C157  A    
C75   C102  S    
C157  O57   S    
O23   Zn6   S    
C47   C48   S    
O28   Zn8   S    
O12   Zn3   S    
C33   C34   S    
C129  C146  A    
C65   H41   S    
C145  N22   S    
C87   O30   A    
C130  C143  A    
C71   O43   A    
C40   C41   S    
C70   O14   A    
C93   C111  T    
C69   H49   S    
H112  N13   S    
O46   Zn15  S    
C147  N25   S    
O56   Zn3   S    
C67   H47   S    
C43   O58   S    
C7    C148  A    
O20   Zn6   S    
C76   C101  S    
C7    C16   A    
C5    C146  A    
O37   Zn10  S    
C153  O52   S    
C33   O54   S    
H58   N19   S    
H55   N18   S    
C48   H144  S    
C22   H85   S    
C1    C14   S    
C41   H129  S    
C85   O28   A    
C1    N2    A    
C135  C153  A    
C123  C136  A    
O33   Zn9   S    
C91   C109  T    
C43   H133  S    
C11   C128  S    
H24   N15   S    
C137  N15   S    
C146  N24   S    
C56   H22   S    
C40   H126  S    
C32   H108  S    
O12   Zn7   S    
C30   H104  S    
C23   C25   S    
C24   O4    A    
C81   O25   A    
C36   H117  S    
O11   Zn9   S    
C67   H48   S    
C50   H7    S    
C70   C98   S    
C86   O29   A    
C71   O15   A    
C28   H97   S    
C27   C28   S    
H1    N9    S    
O47   Zn12  S    
O9    Zn15  S    
C112  C115  S    
C144  N21   S    
C57   O7    A    
C74   C103  S    
C78   O46   A    
