data_mof_unit_29264.cif
_audit_creation_date              2012-12-10T19:44:33-0500
_audit_creation_method            fapswitch 2.2
_symmetry_space_group_name_H-M    P1
_symmetry_Int_Tables_number       1
_space_group_crystal_system       triclinic
_cell_length_a                    8.584294
_cell_length_b                    14.988979
_cell_length_c                    14.194948
_cell_angle_alpha                 89.346016
_cell_angle_beta                  98.395257
_cell_angle_gamma                 90.506451
_cell_volume                      1806.72437107

loop_
_atom_site_label
_atom_site_type_symbol
_atom_type_description
_atom_site_fract_x
_atom_site_fract_y
_atom_site_fract_z
_atom_type_partial_charge
C1    C     C_R   0.503088 0.327362 0.500891 0.884885
C2    C     C_R   0.499611 0.672023 0.499350 0.917258
C3    C     C_R   0.373550 0.462059 0.095002 -0.285756
C4    C     C_R   0.581716 0.565826 0.900773 -0.284763
C5    C     C_R   0.378069 0.461391 0.194485 -0.093094
C6    C     C_R   0.583110 0.563387 0.802008 -0.102786
C7    C     C_R   0.619138 0.541468 0.214259 0.676341
C8    C     C_R   0.410837 0.438281 0.787472 0.686195
C9    C     C_R   0.622420 0.539393 0.115086 -0.383139
C10   C     C_R   0.414207 0.435790 0.887803 -0.408725
C11   C     C_R   0.497779 0.500678 0.053044 0.107581
C12   C     C_R   0.497876 0.500831 0.946193 0.116876
C13   C     C_R   0.201166 0.499804 0.475204 0.973603
C14   C     C_R   0.798853 0.500312 0.524795 0.950083
C15   C     C_2   0.036253 0.498853 0.461785 -0.348848
C16   C     C_2   0.963794 0.501516 0.538182 -0.397409
C17   C     C_R   0.527263 0.089087 0.585500 -0.282196
C18   C     C_R   0.436523 0.909292 0.424929 -0.292443
C19   C     C_R   0.517684 0.181389 0.588229 0.529532
C20   C     C_R   0.422651 0.816334 0.423243 0.525669
C21   C     C_R   0.518756 0.230973 0.503081 -0.151305
C22   C     C_R   0.508926 0.767547 0.498133 -0.125701
C23   C     C_R   0.541093 0.187864 0.418865 -0.272913
C24   C     C_R   0.611774 0.809280 0.569973 -0.282398
C25   C     C_R   0.555344 0.096328 0.417854 -0.187083
C26   C     C_R   0.628687 0.900789 0.568772 -0.176362
C27   C     C_R   0.545300 0.046925 0.500616 0.078201
C28   C     C_R   0.540061 0.950739 0.496850 0.082069
H1    H     H_    0.975002 0.495411 0.389240 0.216156
H2    H     H_    0.025193 0.505048 0.610688 0.180041
H3    H     H_    0.515518 0.050311 0.649031 0.150999
H4    H     H_    0.363238 0.949745 0.372806 0.143547
H5    H     H_    0.546486 0.224630 0.353265 0.184430
H6    H     H_    0.680483 0.770812 0.626184 0.163901
H7    H     H_    0.570650 0.063785 0.352073 0.141484
H8    H     H_    0.709097 0.932788 0.624425 0.142376
H9    H     H_    0.271968 0.433062 0.051786 0.147332
H10   H     H_    0.645304 0.619159 0.940563 0.144201
H11   H     H_    0.282652 0.430534 0.225326 0.155920
H12   H     H_    0.649625 0.613104 0.768557 0.150349
H13   H     H_    0.723848 0.567114 0.087850 0.150931
H14   H     H_    0.354091 0.382332 0.919685 0.147635
N1    N     N_R   0.500000 0.499980 0.252470 -0.129315
N2    N     N_R   0.500000 0.500020 0.747530 -0.133107
O1    O     O_R   0.500010 0.369070 0.579480 -0.529989
O2    O     O_R   0.499990 0.630930 0.420520 -0.572675
O3    O     O_R   0.500010 0.369060 0.420520 -0.646297
O4    O     O_R   0.499990 0.630940 0.579480 -0.644572
O5    O     O_R   0.271750 0.500000 0.560890 -0.590099
O6    O     O_R   0.728250 0.500000 0.439110 -0.564590
O7    O     O_R   0.271750 0.499990 0.401930 -0.629180
O8    O     O_R   0.728250 0.500010 0.598070 -0.649863
Zn1   Zn    Zn3+2 0.500000 0.500010 0.606140 0.985146
Zn2   Zn    Zn3+2 0.500000 0.499990 0.393860 0.989823
O9    O     O_3   0.492893 0.221675 0.671855 -0.555719
C29   C     C_3   0.637085 0.225203 0.733794 -0.262152
H15   H     H_    0.618910 0.262378 0.798395 0.191268
H16   H     H_    0.729198 0.261556 0.700483 0.141127
H17   H     H_    0.678402 0.157230 0.757068 0.131994
O10   O     O_3   0.314709 0.771580 0.356979 -0.600115
C30   C     C_3   0.310939 0.807133 0.264105 -0.337316
H18   H     H_    0.264494 0.755020 0.212339 0.196412
H19   H     H_    0.429966 0.826679 0.248150 0.137805
H20   H     H_    0.229181 0.864562 0.252900 0.166002
O11   O     O_3   0.741579 0.580349 0.274106 -0.602403
C31   C     C_3   0.737929 0.673601 0.259884 -0.318061
H21   H     H_    0.821553 0.704829 0.317319 0.204822
H22   H     H_    0.619274 0.701286 0.264058 0.170534
H23   H     H_    0.776639 0.692352 0.190920 0.144428
O12   O     O_3   0.327434 0.375939 0.728099 -0.539260
C32   C     C_3   0.173697 0.362663 0.750170 -0.309847
H24   H     H_    0.099032 0.335325 0.686468 0.193424
H25   H     H_    0.118330 0.425906 0.768548 0.130034
H26   H     H_    0.174242 0.312541 0.808421 0.159070

loop_
_geom_bond_atom_site_label_1
_geom_bond_atom_site_label_2
_ccdc_geom_bond_type
C2    C22   S    
C32   H26   S    
C31   H22   S    
C11   C12   S    
C14   O8    A    
C1    C21   S    
O12   C32   S    
C7    N1    A    
O4    Zn1   S    
C10   H14   S    
N1    Zn2   S    
C9    H13   S    
C29   H17   S    
O9    C29   S    
O7    Zn2   S    
C2    O4    A    
O2    Zn2   S    
C23   C25   A    
C31   H21   S    
C5    N1    A    
C3    C5    A    
O1    Zn1   S    
C32   H24   S    
O11   C31   S    
C6    N2    A    
C2    O2    A    
C30   H20   S    
C13   O5    A    
C9    C11   A    
C24   C26   A    
C1    O1    A    
O6    Zn2   S    
C18   H4    S    
C10   C12   A    
C25   H7    S    
O3    Zn2   S    
O5    Zn1   S    
N2    Zn1   S    
C26   H8    S    
C26   C28   A    
C19   C21   A    
C17   H3    S    
C29   H16   S    
C15   H1    S    
C22   C24   A    
C5    H11   S    
C13   C15   S    
C30   H18   S    
C21   C23   A    
C14   C16   S    
C31   H23   S    
C4    C12   A    
C29   H15   S    
C14   O6    A    
C16   H2    S    
C15   C16   D    
C17   C27   A    
C7    C9    A    
C6    H12   S    
C18   C28   A    
O8    Zn1   S    
C3    H9    S    
C18   C20   A    
C8    C10   A    
C4    C6    A    
C19   O9    S    
C27   C28   S    
C32   H25   S    
C1    O3    A    
C4    H10   S    
C3    C11   A    
C17   C19   A    
C20   O10   S    
C13   O7    A    
C8    O12   S    
C7    O11   S    
C30   H19   S    
C24   H6    S    
C8    N2    A    
C20   C22   A    
O10   C30   S    
C23   H5    S    
C25   C27   A    
