data_mof_unit_57132.cif
_audit_creation_date              2013-03-05T16:03:27-0500
_audit_creation_method            fapswitch 2.2
_symmetry_space_group_name_H-M    P1
_symmetry_Int_Tables_number       1
_space_group_crystal_system       triclinic
_cell_length_a                    6.957305
_cell_length_b                    18.086522
_cell_length_c                    20.385936
_cell_angle_alpha                 68.617561
_cell_angle_beta                  90.480882
_cell_angle_gamma                 91.113627
_cell_volume                      2388.20802345

loop_
_atom_site_label
_atom_site_type_symbol
_atom_site_description
_atom_site_fract_x
_atom_site_fract_y
_atom_site_fract_z
_atom_type_partial_charge
O1    O     O_R   0.488960 0.443750 0.941980 -0.581302
O2    O     O_R   0.823890 0.406510 0.087590 -0.577963
O3    O     O_R   0.999680 0.556250 0.058020 -0.568877
C1    C     C_R   0.653434 0.381258 0.113503 1.046899
O4    O     O_R   0.818360 0.434410 0.944340 -0.587291
O5    O     O_R   0.994110 0.584350 0.913750 -0.604342
C2    C     C_R   0.649555 0.423122 0.921603 1.047651
O6    O     O_R   0.494530 0.415650 0.086250 -0.562362
O7    O     O_3   0.662590 0.549160 0.990130 -0.270344
V1    V     V_3+5 0.935320 0.490880 0.001830 1.262617
O8    O     O_R   0.324180 0.593490 0.912410 -0.612298
C3    C     C_R   0.156072 0.616736 0.885029 0.891789
O9    O     O_R   0.329720 0.565590 0.055660 -0.547818
C4    C     C_R   0.162624 0.580005 0.075754 0.996346
V2    V     V_3+5 0.435990 0.509120 0.998170 1.275121
O10   O     O_3   0.158850 0.450840 0.009870 -0.257925
C5    C     C_3   0.027028 0.707622 0.307640 -0.326609
C6    C     C_3   0.217296 0.681636 0.284424 0.172001
H1    H     H_    0.937874 0.672477 0.353793 0.232780
C7    C     C_1   0.158884 0.625669 0.121124 -0.135423
C8    C     C_1   0.107999 0.874713 0.378295 -0.225544
C9    C     C_3   0.963168 0.736835 0.229438 0.385534
C10   C     C_3   0.150177 0.708837 0.207055 -0.328300
C11   C     C_3   0.048934 0.820942 0.215042 -0.281168
C12   C     C_3   0.119994 0.791160 0.292827 -0.160839
C13   C     C_3   0.238617 0.791681 0.194503 0.178724
C14   C     C_3   0.310066 0.763826 0.271256 0.723688
C15   C     C_1   0.156280 0.663285 0.159675 0.357094
C16   C     C_1   0.112006 0.836849 0.339942 0.293747
H2    H     H_    0.977312 0.877919 0.185839 0.229863
H3    H     H_    0.929647 0.520765 0.702630 0.154901
C17   C     C_R   0.288571 0.775469 0.869083 -0.372869
C18   C     C_R   0.339556 0.851418 0.865609 0.847049
C19   C     C_R   0.293722 0.916648 0.806444 -0.339259
C20   C     C_R   0.201687 0.906838 0.748764 0.220003
C21   C     C_R   0.172883 0.828944 0.747057 -0.035571
C22   C     C_R   0.204695 0.762422 0.810677 0.032102
C23   C     C_R   0.113689 0.815823 0.684672 -0.260141
C24   C     C_R   0.067790 0.736895 0.688723 -0.087209
C25   C     C_R   0.079020 0.672208 0.754936 0.072898
C26   C     C_R   0.148007 0.684759 0.815792 -0.168096
C27   C     C_R   0.011783 0.719600 0.628306 0.683901
C28   C     C_R   0.961468 0.642479 0.634134 -0.175737
C29   C     C_R   0.968059 0.580510 0.698795 -0.218217
C30   C     C_R   0.027760 0.594694 0.758395 -0.196331
H4    H     H_    0.316945 0.727299 0.918172 0.171048
H5    H     H_    0.319006 0.975595 0.807274 0.208405
H6    H     H_    0.918288 0.630578 0.587733 0.177162
H7    H     H_    0.035722 0.543676 0.806946 0.130541
C31   C     C_R   0.468476 0.101623 0.263601 -0.401583
C32   C     C_R   0.398931 0.087317 0.205522 0.806661
C33   C     C_R   0.421493 0.144442 0.139184 -0.285774
C34   C     C_R   0.511902 0.217397 0.129731 0.245187
C35   C     C_R   0.569074 0.237110 0.189261 -0.036693
C36   C     C_R   0.551771 0.176221 0.257554 0.037744
C37   C     C_R   0.639260 0.314349 0.183287 -0.217995
C38   C     C_R   0.694984 0.328897 0.245093 -0.040995
C39   C     C_R   0.701816 0.265053 0.312003 -0.084614
C40   C     C_R   0.622447 0.188633 0.318488 -0.151597
C41   C     C_R   0.744025 0.407215 0.241833 0.247825
C42   C     C_R   0.850259 0.418040 0.295681 -0.274815
C43   C     C_R   0.870241 0.356386 0.359879 0.278337
C44   C     C_R   0.782708 0.281941 0.370126 0.189860
H8    H     H_    0.455962 0.052382 0.313159 0.172130
H9    H     H_    0.376792 0.130301 0.094016 0.217304
H10   H     H_    0.895201 0.477432 0.291157 0.224654
O11   O     O_R   0.770540 0.084530 0.414050 -0.598141
O12   O     O_R   0.445710 0.065660 0.555720 -0.563592
O13   O     O_R   0.270420 0.915650 0.586190 -0.617454
C45   C     C_R   0.614415 0.076609 0.578847 1.076795
O14   O     O_R   0.441140 0.093540 0.412470 -0.591817
O15   O     O_R   0.265820 0.943740 0.441930 -0.605417
C46   C     C_R   0.611623 0.119918 0.387478 0.972737
O16   O     O_R   0.775150 0.056440 0.558310 -0.531720
O17   O     O_3   0.602370 0.950960 0.510050 -0.287953
V3    V     V_3+5 0.329450 0.009140 0.498150 1.288044
O18   O     O_R   0.935790 0.934280 0.444060 -0.573218
C47   C     C_R   0.103122 0.920488 0.423589 1.041437
O19   O     O_R   0.940370 0.906390 0.587310 -0.549435
C48   C     C_R   0.108218 0.883656 0.615246 1.119324
V4    V     V_3+5 0.828810 0.990710 0.501460 1.306817
O20   O     O_3   0.105780 0.049100 0.489960 -0.239015
C49   C     C_3   0.746308 0.315302 0.720668 -0.297301
C50   C     C_3   0.562169 0.294575 0.686487 -0.082613
H11   H     H_    0.502838 0.330760 0.634112 0.193877
H12   H     H_    0.842298 0.367990 0.696967 0.163265
H13   H     H_    0.306864 0.291626 0.764302 0.151530
C51   C     C_1   0.623308 0.122082 0.624583 -0.042469
C52   C     C_1   0.641068 0.377837 0.875644 -0.190276
C53   C     C_3   0.806243 0.228190 0.742663 0.383278
C54   C     C_3   0.627440 0.207717 0.708655 0.002153
C55   C     C_3   0.703220 0.205505 0.813919 -0.222829
C56   C     C_3   0.637310 0.292396 0.791314 0.075385
C57   C     C_3   0.519999 0.185140 0.779380 -0.097612
C58   C     C_3   0.453714 0.272491 0.757677 -0.043821
C59   C     C_1   0.626051 0.160507 0.662561 0.185942
C60   C     C_1   0.638666 0.339509 0.837531 0.062296
H14   H     H_    0.431277 0.130515 0.803887 0.204938
H15   H     H_    0.763827 0.169234 0.866050 0.197952
N1    N     N_R   0.308682 0.606699 0.324121 0.301940
O21   O     O_R   0.362706 0.591909 0.388814 -0.300200
O22   O     O_R   0.332418 0.553545 0.295981 -0.285192
N2    N     N_R   0.110133 0.974892 0.699323 0.234246
O23   O     O_R   0.199918 0.043293 0.677003 -0.364683
O24   O     O_R   0.923973 0.973329 0.693524 -0.426046
F1    F     F_    0.007815 0.775703 0.562561 -0.735749
N3    N     N_R   0.958887 0.373355 0.416946 0.276695
O25   O     O_R   0.113158 0.418061 0.405386 -0.295315
O26   O     O_R   0.869833 0.356049 0.476717 -0.282054
F2    F     F_    0.317182 0.015863 0.213439 -0.667007
N4    N     N_R   0.560719 0.265672 0.059096 0.209712
O27   O     O_R   0.430112 0.277815 0.010392 -0.405085
O28   O     O_R   0.741028 0.272396 0.041087 -0.416014
N5    N     N_R   0.651128 0.475689 0.193369 0.244699
O29   O     O_R   0.464243 0.475639 0.191360 -0.369568
O30   O     O_R   0.743557 0.543364 0.168456 -0.364132
N6    N     N_R   0.760460 0.228198 0.440705 0.215436
O31   O     O_R   0.913100 0.201619 0.478692 -0.334894
O32   O     O_R   0.598144 0.228652 0.471684 -0.406390
N7    N     N_R   0.996949 0.201800 0.733834 0.231240
O33   O     O_R   0.072210 0.142743 0.784452 -0.402694
O34   O     O_R   0.078173 0.228335 0.672176 -0.346743
F3    F     F_    0.491288 0.778078 0.292925 -0.634287
N8    N     N_R   0.353571 0.839257 0.133946 0.296532
O35   O     O_R   0.431498 0.905915 0.132089 -0.273635
O36   O     O_R   0.366825 0.818594 0.079409 -0.271126
N9    N     N_R   0.775983 0.720952 0.204824 0.279371
O37   O     O_R   0.669040 0.663180 0.245782 -0.308599
O38   O     O_R   0.735120 0.752243 0.138112 -0.309088
F4    F     F_    0.423113 0.862148 0.921885 -0.618119

loop_
_geom_bond_atom_site_label_1
_geom_bond_atom_site_label_2
_geom_bond_distance
_ccdc_geom_bond_type
C18   F4    1.355917 S    
C51   C59   1.214229 T    
C36   C40   1.422695 A    
C31   H8    1.078797 S    
C41   N5    1.433794 S    
C20   C21   1.432080 A    
O17   V3    2.157618 S    
C45   C51   1.451134 S    
N5    O29   1.300513 A    
C9    N9    1.452557 S    
O18   C47   1.298860 A    
C29   C30   1.388956 A    
C13   C14   1.539816 S    
C3    C26   1.498050 S    
C13   N8    1.455788 S    
N8    O36   1.300101 A    
C21   C22   1.430513 A    
C11   C13   1.547574 S    
C20   N2    1.432375 S    
N6    O32   1.300117 A    
O5    C3    1.300373 A    
C23   C24   1.429475 A    
C44   N6    1.420237 S    
C57   H14   1.108271 S    
V2    O10   2.152005 S    
C49   C56   1.546571 S    
C37   C38   1.427115 A    
O13   V3    2.005372 S    
C5    C6    1.547292 S    
C19   C20   1.399714 A    
C10   C13   1.541554 S    
C55   C56   1.545567 S    
O15   C47   1.298843 A    
C54   C59   1.482145 S    
O8    V2    2.016977 S    
C42   H10   1.084136 S    
N4    O27   1.301286 A    
H13   C58   1.109957 S    
C8    C47   1.448541 S    
C45   O16   1.301535 A    
N3    O25   1.301111 A    
O11   C46   1.300060 A    
C50   C54   1.544323 S    
C30   H7    1.081307 S    
C28   H6    1.082837 S    
C40   C46   1.500624 S    
C1    O6    1.297017 A    
C34   N4    1.425163 S    
C56   C58   1.542354 S    
O9    C4    1.298045 A    
C1    C37   1.496792 S    
N3    O26   1.301389 A    
C42   C43   1.383624 A    
C6    N1    1.456420 S    
N1    O22   1.300197 A    
N7    O34   1.300422 A    
V4    O20   2.152065 S    
C24   C27   1.426462 A    
C12   C16   1.479847 S    
C25   C30   1.416538 A    
C35   C37   1.433620 A    
H3    C29   1.082917 S    
C32   C33   1.378184 A    
C4    C7    1.447930 S    
C50   H11   1.110090 S    
N4    O28   1.300963 A    
V3    O20   1.709727 S    
C24   C25   1.430779 A    
O19   V4    2.016970 S    
C14   F3    1.382852 S    
O17   V4    1.702430 S    
C38   C41   1.428379 A    
C43   N3    1.438368 S    
C7    C15   1.213026 T    
C39   C40   1.439133 A    
C34   C35   1.435253 A    
C8    C16   1.213503 T    
C6    C10   1.542247 S    
C52   C60   1.215162 T    
C41   C42   1.388217 A    
C50   C58   1.555335 S    
C53   N7    1.453235 S    
O2    C1    1.306742 A    
C28   C29   1.385486 A    
N9    O38   1.299684 A    
C43   C44   1.411596 A    
C53   C55   1.537409 S    
C49   C50   1.556973 S    
O18   V4    1.969745 S    
C55   C57   1.553113 S    
C31   C32   1.382675 A    
O15   V3    1.966806 S    
N2    O24   1.300264 A    
C17   C22   1.414831 A    
C11   C12   1.556724 S    
C27   F1    1.354818 S    
O3    C4    1.299199 A    
O1    V2    1.964024 S    
C25   C26   1.418487 A    
O11   V4    2.007186 S    
O6    V2    2.012215 S    
O9    V2    1.969791 S    
C12   C14   1.542788 S    
C9    C11   1.548654 S    
C10   C15   1.481825 S    
C27   C28   1.393972 A    
O16   V4    1.981160 S    
C53   C54   1.523173 S    
N9    O37   1.298692 A    
O2    V1    2.004382 S    
C56   C60   1.482856 S    
N7    O33   1.299556 A    
O4    C2    1.298591 A    
O7    V1    2.157586 S    
C39   C44   1.435274 A    
C49   C53   1.537704 S    
C35   C36   1.430113 A    
O1    C2    1.302741 A    
C17   H4    1.080312 S    
C6    C14   1.540470 S    
C31   C36   1.421608 A    
O5    V1    2.005341 S    
N5    O30   1.300482 A    
O8    C3    1.301261 A    
C32   F2    1.356684 S    
C5    C9    1.549560 S    
C5    C12   1.557231 S    
C17   C18   1.388643 A    
C21   C23   1.432063 A    
O7    V2    1.705915 S    
O4    V1    1.975697 S    
O3    V1    1.966943 S    
V1    O10   1.709620 S    
N6    O31   1.301208 A    
C54   C57   1.543102 S    
O12   V3    1.975698 S    
C38   C39   1.431335 A    
O14   V3    2.004331 S    
C23   C48   1.498172 S    
N1    O21   1.300179 A    
C5    H1    1.110132 S    
C18   C19   1.385236 A    
C22   C26   1.418380 A    
C57   C58   1.555509 S    
C11   H2    1.110099 S    
O19   C48   1.301480 A    
C49   H12   1.110170 S    
O12   C45   1.299572 A    
O14   C46   1.305730 A    
N2    O23   1.300774 A    
C9    C10   1.536720 S    
O13   C48   1.301958 A    
C19   H5    1.083379 S    
C33   H9    1.083442 S    
C55   H15   1.110158 S    
C33   C34   1.399372 A    
N8    O35   1.300201 A    
C2    C52   1.452197 S    
