data_mof_unit_48160.cif
_audit_creation_date              2013-03-05T15:46:14-0500
_audit_creation_method            fapswitch 2.2
_symmetry_space_group_name_H-M    P1
_symmetry_Int_Tables_number       1
_space_group_crystal_system       triclinic
_cell_length_a                    10.870021
_cell_length_b                    11.086199
_cell_length_c                    9.978287
_cell_angle_alpha                 110.774386
_cell_angle_beta                  100.158631
_cell_angle_gamma                 90.138478
_cell_volume                      1103.89067688

loop_
_atom_site_label
_atom_site_type_symbol
_atom_site_description
_atom_site_fract_x
_atom_site_fract_y
_atom_site_fract_z
_atom_type_partial_charge
O1    O     O_R   0.511820 0.332340 0.577400 -0.612725
O2    O     O_R   0.474400 0.295500 0.332650 -0.524816
C1    C     C_R   0.494234 0.255192 0.441208 0.854674
O3    O     O_R   0.336400 0.518400 0.622370 -0.605708
O4    O     O_R   0.298980 0.481560 0.377620 -0.488394
C2    C     C_R   0.259729 0.498186 0.499274 0.916820
Cu1   Cu    Cu3+1 0.522160 0.521810 0.644910 0.992676
Cu2   Cu    Cu3+1 0.477840 0.478190 0.355090 1.088887
O5    O     O_R   0.525600 0.704500 0.667350 -0.569137
O6    O     O_R   0.488180 0.667660 0.422600 -0.595358
O7    O     O_R   0.701020 0.518440 0.622380 -0.579034
O8    O     O_R   0.663600 0.481600 0.377630 -0.630760
C3    C     C_R   0.504931 0.745151 0.556783 0.865477
C4    C     C_R   0.738960 0.493569 0.499157 0.869759
C5    C     C_3   0.094092 0.496128 0.649073 -0.468163
H1    H     H_    0.150616 0.577830 0.740158 0.213951
H2    H     H_    0.121133 0.408342 0.671484 0.274744
C6    C     C_3   0.953676 0.515563 0.654907 -0.369535
H3    H     H_    0.918682 0.453027 0.707892 0.255571
H4    H     H_    0.943837 0.616200 0.727375 0.192702
H5    H     H_    0.082279 0.692701 0.594842 0.159275
C7    C     C_3   0.062101 0.616854 0.482794 0.178457
C8    C     C_3   0.052177 0.355621 0.377149 0.428336
C9    C     C_3   0.120696 0.490159 0.497167 -0.219017
C10   C     C_3   0.876027 0.488114 0.497058 -0.076115
C11   C     C_3   0.917690 0.596109 0.442232 -0.164925
C12   C     C_3   0.907709 0.347577 0.396715 0.212079
H6    H     H_    0.886069 0.563263 0.322730 0.234664
H7    H     H_    0.443306 0.126776 0.601960 0.158650
C13   C     C_2   0.503602 0.117518 0.408506 0.241803
C14   C     C_2   0.470790 0.065632 0.501252 -0.220444
H8    H     H_    0.531471 0.951910 0.689335 0.146299
C15   C     C_2   0.500186 0.882846 0.579021 -0.258486
C16   C     C_2   0.462244 0.926003 0.467501 0.202987
H9    H     H_    0.601056 0.555283 0.149773 0.116738
N1    N     N_2   0.444530 0.445420 0.137360 -0.071610
C17   C     C_2   0.513983 0.505021 0.081161 -0.043140
N2    N     N_2   0.555520 0.554510 0.862630 -0.158575
C18   C     C_2   0.489632 0.490540 0.919886 0.269576
C19   C     C_3   0.820054 0.294215 0.242669 -0.660862
H10   H     H_    0.814882 0.362549 0.183947 0.213549
H11   H     H_    0.852701 0.201958 0.174042 0.274505
H12   H     H_    0.722623 0.269631 0.247947 0.266624
N3    N     N_R   0.119218 0.676518 0.396628 0.170914
O9    O     O_R   0.217805 0.754904 0.465152 -0.403471
O10   O     O_R   0.053252 0.692241 0.282448 -0.267541
C20   C     C_3   0.409476 0.839998 0.309034 -0.513138
H13   H     H_    0.363992 0.897014 0.244823 0.227374
H14   H     H_    0.485087 0.788488 0.255173 0.210563
H15   H     H_    0.335266 0.768192 0.299024 0.288584
N4    N     N_R   0.557270 0.043295 0.284348 0.117974
O11   O     O_R   0.526373 0.060446 0.160647 -0.337046
O12   O     O_R   0.648757 0.970992 0.300265 -0.326225
C21   C     C_3   0.384773 0.390477 0.825496 -0.595670
H16   H     H_    0.293870 0.430224 0.844558 0.226209
H17   H     H_    0.373399 0.358906 0.709918 0.269137
H18   H     H_    0.396540 0.299885 0.848547 0.211256
C22   C     C_3   0.658637 0.645551 0.955172 -0.478942
H19   H     H_    0.698672 0.692928 0.890038 0.233685
H20   H     H_    0.625473 0.722025 0.045478 0.204128
H21   H     H_    0.733784 0.594438 0.999324 0.186052
N5    N     N_R   0.316621 0.430765 0.083971 0.243449
O13   O     O_R   0.259494 0.316283 0.035716 -0.251265
O14   O     O_R   0.251501 0.531893 0.103072 -0.303933
C23   C     C_3   0.858476 0.726997 0.503646 -0.767784
H22   H     H_    0.870433 0.762078 0.624289 0.226535
H23   H     H_    0.902471 0.801909 0.473648 0.302230
H24   H     H_    0.757059 0.718404 0.456466 0.230395
N6    N     N_R   0.059694 0.348314 0.226964 0.120539
O15   O     O_R   0.029510 0.442144 0.181549 -0.313389
O16   O     O_R   0.076001 0.238163 0.128789 -0.237450
N7    N     N_R   0.114240 0.240974 0.394722 0.162439
O17   O     O_R   0.065782 0.124795 0.313278 -0.238708
O18   O     O_R   0.218960 0.251135 0.485038 -0.434804
N8    N     N_R   0.883146 0.255803 0.470362 0.172056
O19   O     O_R   0.768156 0.223806 0.470441 -0.363084
O20   O     O_R   0.969189 0.228548 0.561790 -0.283067

loop_
_geom_bond_atom_site_label_1
_geom_bond_atom_site_label_2
_geom_bond_distance
_ccdc_geom_bond_type
C5    C6    1.550325 S    
N5    O14   1.301600 A    
N8    O19   1.298691 A    
O6    C3    1.288858 A    
H7    C14   1.087306 S    
C3    C15   1.465024 S    
N5    O13   1.298248 A    
C8    C12   1.622331 S    
C1    C13   1.451053 S    
C8    N6    1.488664 S    
C11   H6    1.104274 S    
C20   H13   1.109757 S    
Cu2   O8    1.990639 S    
C12   C19   1.567205 S    
C8    C9    1.620624 S    
C23   H24   1.109331 S    
C2    C9    1.509696 S    
H8    C15   1.087362 S    
C22   H21   1.111221 S    
C19   H11   1.109768 S    
O2    C1    1.296532 A    
C10   C11   1.577083 S    
C14   C16   1.461738 S    
Cu1   Cu2   2.710064 S    
C20   H14   1.109421 S    
O1    Cu1   1.961359 S    
H5    C7    1.118429 S    
Cu1   O7    1.995110 S    
N8    O20   1.301635 A    
O4    C2    1.309169 A    
C6    C10   1.573421 S    
C7    N3    1.466955 S    
N1    C17   1.315593 D    
O3    Cu1   1.990639 S    
N1    N5    1.385484 S    
C5    H2    1.102790 S    
N7    O18   1.298494 A    
C5    C9    1.571344 S    
H9    C17   1.083188 S    
C13   N4    1.444416 S    
O8    C4    1.301559 A    
C15   C16   1.361614 D    
C20   H15   1.098383 S    
C21   H17   1.063474 S    
N6    O15   1.295621 A    
C19   H12   1.107770 S    
C4    C10   1.494825 S    
Cu2   N1    2.035960 S    
C13   C14   1.344477 D    
O7    C4    1.302626 A    
C7    C9    1.585572 S    
O4    Cu2   1.995110 S    
C10   C12   1.601913 S    
C5    H1    1.113689 S    
N4    O12   1.301971 A    
C22   H20   1.111235 S    
N4    O11   1.301189 A    
C18   C21   1.513570 S    
Cu1   O5    1.956657 S    
N2    C18   1.331012 D    
N3    O9    1.298704 A    
C6    H4    1.111144 S    
C17   C18   1.533552 S    
C23   H22   1.108942 S    
C7    C11   1.545613 S    
N6    O16   1.302303 A    
O5    C3    1.317779 A    
C21   H16   1.102567 S    
C6    H3    1.111090 S    
C19   H10   1.106289 S    
C16   C20   1.531768 S    
O1    C1    1.303030 A    
C22   H19   1.108380 S    
N2    C22   1.447766 S    
C11   C23   1.551852 S    
O3    C2    1.302391 A    
C8    N7    1.490587 S    
Cu1   N2    2.036013 S    
Cu2   O6    1.961359 S    
O2    Cu2   1.956657 S    
C23   H23   1.110374 S    
N3    O10   1.302269 A    
N7    O17   1.303841 A    
C12   N8    1.498256 S    
C21   H18   1.109978 S    
