data_mof_unit_58150.cif
_audit_creation_date              2012-12-10T17:51:27-0500
_audit_creation_method            fapswitch 2.2
_symmetry_space_group_name_H-M    P1
_symmetry_Int_Tables_number       1
_space_group_crystal_system       triclinic
_cell_length_a                    14.763619
_cell_length_b                    14.733173
_cell_length_c                    17.378456
_cell_angle_alpha                 106.603355
_cell_angle_beta                  72.732176
_cell_angle_gamma                 115.182822
_cell_volume                      3210.53380826

loop_
_atom_site_label
_atom_site_type_symbol
_atom_type_description
_atom_site_fract_x
_atom_site_fract_y
_atom_site_fract_z
_atom_type_partial_charge
C1    C     C_R   0.118649 0.687593 0.509390 0.774024
C2    C     C_R   0.881196 0.311316 0.484531 0.845618
C3    C     C_R   0.186103 0.792407 0.497723 -0.248023
C4    C     C_R   0.814342 0.201508 0.473719 -0.183697
C5    C     C_R   0.233465 0.937058 0.433894 -0.185732
C6    C     C_R   0.778012 0.028099 0.484083 -0.287104
C7    C     C_R   0.160365 0.846407 0.457100 0.362965
C8    C     C_R   0.847021 0.128891 0.483084 0.367067
C9    C     C_R   0.285433 0.831937 0.514471 0.309502
C10   C     C_R   0.714810 0.170237 0.458891 0.266165
C11   C     C_R   0.363857 0.911734 0.475720 0.053535
C12   C     C_R   0.645048 0.067749 0.459549 0.044496
C13   C     C_R   0.335144 0.967729 0.439607 -0.000630
C14   C     C_R   0.677447 0.998636 0.476069 0.046989
C15   C     C_R   0.469742 0.938718 0.472470 0.085654
C16   C     C_R   0.542324 0.032226 0.448396 0.086742
C17   C     C_R   0.510490 0.083044 0.410000 -0.128977
C18   C     C_R   0.506501 0.871104 0.485040 -0.138904
C19   C     C_R   0.408868 0.051444 0.406004 -0.203334
C20   C     C_R   0.608888 0.900061 0.485193 -0.202261
C21   C     C_R   0.308767 0.344614 0.351809 -0.280126
C22   C     C_R   0.690110 0.653491 0.649252 -0.274368
C23   C     C_R   0.988870 0.502645 0.652568 0.817787
C24   C     C_R   0.011368 0.497757 0.347482 0.774569
C25   C     C_R   0.218257 0.362572 0.379063 0.386984
C26   C     C_R   0.780877 0.636073 0.621845 0.380079
C27   C     C_R   0.285421 0.489675 0.488682 0.073118
C28   C     C_R   0.715453 0.511710 0.510393 0.100304
C29   C     C_R   0.375461 0.465647 0.467610 -0.028870
C30   C     C_R   0.624973 0.535098 0.531824 -0.026014
C31   C     C_R   0.390356 0.399705 0.392216 0.034561
C32   C     C_R   0.609205 0.599476 0.608003 0.026903
C33   C     C_R   0.451922 0.506641 0.516723 -0.079063
C34   C     C_R   0.548577 0.494318 0.482607 -0.070161
C35   C     C_R   0.567131 0.444819 0.399665 0.395045
C36   C     C_R   0.432929 0.555501 0.599787 0.392510
C37   C     C_R   0.487286 0.393411 0.355913 0.116748
C38   C     C_R   0.512068 0.605263 0.644266 0.115537
C39   C     C_R   0.981391 0.501206 0.738120 -0.128969
C40   C     C_R   0.019869 0.500938 0.262168 -0.123863
C41   C     C_R   0.050463 0.473949 0.758060 -0.178093
C42   C     C_R   0.952584 0.531046 0.242671 -0.190210
C43   C     C_R   0.042866 0.470270 0.838530 -0.186127
C44   C     C_R   0.961369 0.536690 0.162475 -0.184427
C45   C     C_R   0.967091 0.495340 0.901101 0.069359
C46   C     C_R   0.036586 0.510878 0.099753 0.069264
C47   C     C_R   0.897003 0.523569 0.881652 0.435281
C48   C     C_R   0.105089 0.480090 0.118777 0.433374
C49   C     C_R   0.904625 0.525225 0.800055 -0.177653
C50   C     C_R   0.096228 0.476348 0.200118 -0.180021
C51   C     C_2   0.960040 0.487458 0.985137 -0.229329
C52   C     C_2   0.043967 0.519606 0.015901 -0.230659
Cu1   Cu    Cu3+1 0.916740 0.524770 0.521640 0.960558
Cu2   Cu    Cu3+1 0.083260 0.475230 0.478360 0.973070
H1    H     H_    0.109813 0.454017 0.711355 0.207544
H2    H     H_    0.893720 0.551650 0.289519 0.204343
H3    H     H_    0.563385 0.142922 0.376749 0.183043
H4    H     H_    0.458377 0.792888 0.490159 0.197477
H5    H     H_    0.724661 0.450208 0.461867 0.182953
H6    H     H_    0.277391 0.552727 0.536169 0.179224
H7    H     H_    0.314557 0.287048 0.297544 0.162706
H8    H     H_    0.683617 0.709875 0.704264 0.164883
H9    H     H_    0.148815 0.452990 0.214431 0.178272
H10   H     H_    0.850691 0.546453 0.785444 0.179174
H11   H     H_    0.119269 0.552540 0.978869 0.163436
H12   H     H_    0.884796 0.454525 0.022265 0.163862
H13   H     H_    0.909951 0.562913 0.149686 0.159371
H14   H     H_    0.095495 0.445860 0.851577 0.159742
H15   H     H_    0.388089 0.092272 0.375367 0.145965
H16   H     H_    0.633918 0.845649 0.495031 0.153887
H17   H     H_    0.212341 0.978968 0.404561 0.170880
H18   H     H_    0.801942 0.973109 0.494344 0.153977
N1    N     N_R   0.208390 0.438070 0.445820 -0.192084
N2    N     N_R   0.791610 0.561930 0.554180 -0.196566
O1    O     O_R   0.020090 0.662480 0.528530 -0.578224
O2    O     O_R   0.979910 0.337520 0.471470 -0.534496
O3    O     O_R   0.160710 0.620650 0.491980 -0.573764
O4    O     O_R   0.839290 0.379350 0.508020 -0.561900
O5    O     O_R   0.921540 0.523360 0.633990 -0.595282
O6    O     O_R   0.078460 0.476640 0.366010 -0.601079
O7    O     O_R   0.062170 0.481520 0.597440 -0.571078
O8    O     O_R   0.937830 0.518480 0.402560 -0.594941
C53   C     C_3   0.507808 0.340064 0.267225 -0.853963
H19   H     H_    0.589473 0.354922 0.239649 0.251020
H20   H     H_    0.467000 0.256299 0.262963 0.216647
H21   H     H_    0.481000 0.367349 0.228038 0.242443
C54   C     C_3   0.490386 0.655973 0.733654 -0.833926
H22   H     H_    0.408469 0.640105 0.760859 0.251256
H23   H     H_    0.516892 0.627196 0.771982 0.239949
H24   H     H_    0.530741 0.739962 0.739704 0.223699
C55   C     C_3   0.860212 0.700887 0.673707 -0.772737
H25   H     H_    0.930951 0.687170 0.656384 0.269830
H26   H     H_    0.881579 0.782581 0.672693 0.208776
H27   H     H_    0.827100 0.689241 0.738115 0.196775
C56   C     C_3   0.138169 0.296705 0.328056 -0.758967
H28   H     H_    0.069122 0.313122 0.343438 0.264846
H29   H     H_    0.171617 0.304324 0.262817 0.188731
H30   H     H_    0.114184 0.215625 0.332423 0.217684
O9    O     O_3   0.665428 0.455448 0.358820 -0.763472
H31   H     H_    0.665852 0.385583 0.337030 0.310559
O10   O     O_3   0.334584 0.545550 0.640042 -0.756806
H32   H     H_    0.334955 0.615578 0.662828 0.318940
O11   O     O_3   0.821465 0.551413 0.939439 -0.731987
H33   H     H_    0.834341 0.564689 0.995022 0.322695
O12   O     O_3   0.180050 0.451477 0.060814 -0.732330
H34   H     H_    0.168527 0.440846 0.005183 0.323729
O13   O     O_3   0.682815 0.241786 0.451366 -0.737953
H35   H     H_    0.734611 0.278269 0.407841 0.303573
O14   O     O_3   0.305624 0.797625 0.571487 -0.749621
H36   H     H_    0.240697 0.761384 0.606720 0.322151
O15   O     O_3   0.944754 0.158785 0.495477 -0.702112
H37   H     H_    0.955065 0.098762 0.500807 0.329309
O16   O     O_3   0.066627 0.812088 0.436200 -0.709956
H38   H     H_    0.044356 0.737445 0.416658 0.338697

loop_
_geom_bond_atom_site_label_1
_geom_bond_atom_site_label_2
_ccdc_geom_bond_type
C15   C18   A    
C54   H22   S    
O10   H32   S    
C5    H17   S    
C29   C33   A    
C27   C29   A    
C1    O3    A    
C56   H28   S    
C4    C8    A    
C28   N2    A    
C56   H30   S    
C39   C41   A    
Cu1   Cu2   S    
C6    H18   S    
C21   C31   A    
C22   C32   A    
C53   H19   S    
C3    C9    A    
C35   C37   A    
C3    C7    A    
C27   H6    S    
C23   C39   S    
C22   H8    S    
C45   C51   S    
C15   C16   A    
C46   C52   S    
C33   C36   A    
Cu1   O5    S    
C18   C20   A    
C34   C35   A    
C24   O8    A    
C41   H1    S    
C42   H2    S    
C11   C15   A    
C18   H4    S    
C12   C16   A    
C44   C46   A    
C16   C17   A    
O13   H35   S    
C32   C38   A    
C21   H7    S    
Cu2   O3    S    
C40   C42   A    
C49   H10   S    
C50   H9    S    
C41   C43   A    
C20   H16   S    
C10   O13   S    
Cu1   O1    S    
C42   C44   A    
C35   O9    S    
C24   O6    A    
Cu2   O6    S    
C45   C47   A    
C9    O14   S    
C46   C48   A    
C47   O11   S    
C30   C34   A    
C51   C52   D    
C1    O1    A    
C14   C20   A    
C47   C49   A    
C8    O15   S    
C55   H25   S    
C5    C7    A    
C13   C19   A    
C43   H14   S    
C6    C8    A    
C26   C55   S    
C55   H26   S    
C31   C37   A    
C36   O10   S    
C1    C3    S    
C51   H12   S    
C2    C4    S    
C2    O4    A    
C6    C14   A    
Cu2   N1    S    
C9    C11   A    
C48   O12   S    
C33   C34   A    
C48   C50   A    
C43   C45   A    
C10   C12   A    
Cu2   O2    S    
C53   H20   S    
C12   C14   A    
C25   C56   S    
C54   H23   S    
C19   H15   S    
C4    C10   A    
C2    O2    A    
O16   H38   S    
C28   H5    S    
C21   C25   A    
C24   C40   S    
C23   O7    A    
O15   H37   S    
C39   C49   A    
C5    C13   A    
C37   C53   S    
C56   H29   S    
O12   H34   S    
O9    H31   S    
C38   C54   S    
C7    O16   S    
C36   C38   A    
Cu1   O4    S    
C29   C31   A    
O14   H36   S    
C55   H27   S    
C30   C32   A    
C11   C13   A    
C40   C50   A    
C28   C30   A    
C17   C19   A    
C25   N1    A    
C53   H21   S    
C26   N2    A    
C22   C26   A    
C54   H24   S    
O11   H33   S    
Cu1   O8    S    
C44   H13   S    
C23   O5    A    
C27   N1    A    
Cu2   O7    S    
C52   H11   S    
C17   H3    S    
Cu1   N2    S    
