data_mof_unit_35625.cif
_audit_creation_date              2012-12-10T19:46:53-0500
_audit_creation_method            fapswitch 2.2
_symmetry_space_group_name_H-M    P1
_symmetry_Int_Tables_number       1
_space_group_crystal_system       triclinic
_cell_length_a                    10.938282
_cell_length_b                    10.926056
_cell_length_c                    13.114601
_cell_angle_alpha                 91.677478
_cell_angle_beta                  91.409958
_cell_angle_gamma                 90.817311
_cell_volume                      1566.0337379

loop_
_atom_site_label
_atom_site_type_symbol
_atom_type_description
_atom_site_fract_x
_atom_site_fract_y
_atom_site_fract_z
_atom_type_partial_charge
C1    C     C_R   0.502245 0.259472 0.498404 0.818542
C2    C     C_R   0.505138 0.740626 0.501707 0.830981
C3    C     C_R   0.873049 0.495046 0.503379 -0.116418
C4    C     C_R   0.126561 0.486792 0.495281 -0.115906
C5    C     C_R   0.941756 0.466268 0.591977 0.035341
C6    C     C_R   0.056463 0.500241 0.404405 0.040853
C7    C     C_R   0.463466 0.198305 0.149424 -0.123407
C8    C     C_R   0.634031 0.815118 0.836807 -0.107083
C9    C     C_R   0.444274 0.155692 0.247183 -0.082367
C10   C     C_R   0.619713 0.845071 0.734510 -0.136414
C11   C     C_R   0.542172 0.110411 0.305111 0.113211
C12   C     C_R   0.509104 0.893505 0.698703 0.127895
C13   C     C_R   0.659416 0.107838 0.263886 -0.180860
C14   C     C_R   0.413374 0.911843 0.766797 -0.142135
C15   C     C_R   0.678197 0.150323 0.165873 -0.100741
C16   C     C_R   0.428341 0.881723 0.869197 -0.156963
C17   C     C_R   0.580003 0.195012 0.108621 -0.086893
C18   C     C_R   0.538435 0.832865 0.904126 -0.094761
C19   C     C_R   0.520990 0.930630 0.410517 -0.229907
C20   C     C_R   0.496193 0.069922 0.589692 -0.241843
C21   C     C_R   0.509744 0.873248 0.503974 -0.104490
C22   C     C_R   0.504903 0.127138 0.496197 -0.101088
C23   C     C_R   0.259417 0.492034 0.498185 0.816899
C24   C     C_R   0.740621 0.498623 0.501391 0.821531
C25   C     C_R   0.501723 0.943887 0.595364 -0.001993
C26   C     C_R   0.520977 0.057061 0.405565 -0.002219
C27   C     C_1   0.500312 0.500182 0.173568 0.154790
C28   C     C_1   0.499680 0.499864 0.826430 0.151296
C29   C     C_1   0.499907 0.500025 0.050661 -0.013665
C30   C     C_1   0.499424 0.499776 0.949271 -0.016215
C31   C     C_R   0.212953 0.586170 0.163621 -0.171276
C32   C     C_R   0.777314 0.255593 0.765439 -0.219006
C33   C     C_R   0.166708 0.591110 0.261392 -0.099765
C34   C     C_R   0.827713 0.306275 0.679931 -0.134963
C35   C     C_R   0.107057 0.488998 0.300503 0.036022
C36   C     C_R   0.885307 0.421924 0.686241 0.051156
C37   C     C_R   0.088641 0.380455 0.238126 0.003955
C38   C     C_R   0.893112 0.488306 0.781523 -0.034818
C39   C     C_R   0.137534 0.376679 0.138395 0.460076
C40   C     C_R   0.840801 0.434846 0.868772 0.482263
C41   C     C_R   0.199904 0.479622 0.103282 -0.187131
C42   C     C_R   0.784224 0.318998 0.858842 -0.156118
C43   C     C_R   0.931273 0.513307 0.411280 -0.238877
C44   C     C_R   0.068167 0.463413 0.586512 -0.231418
Cu1   Cu    Cu3+1 0.499990 0.499990 0.592680 0.977850
Cu2   Cu    Cu3+1 0.500010 0.500010 0.407320 0.973931
H1    H     H_    0.236446 0.479013 0.027445 0.157190
H2    H     H_    0.744777 0.276813 0.923909 0.185149
H3    H     H_    0.735586 0.071865 0.307262 0.133420
H4    H     H_    0.328752 0.952616 0.741177 0.138958
H5    H     H_    0.768488 0.147788 0.134039 0.182266
H6    H     H_    0.355624 0.898794 0.921983 0.163840
H7    H     H_    0.530920 0.876776 0.340444 0.166362
H8    H     H_    0.489081 0.124035 0.659970 0.167412
H9    H     H_    0.259522 0.665357 0.134337 0.150195
H10   H     H_    0.732952 0.166345 0.759388 0.162286
H11   H     H_    0.177823 0.674800 0.307280 0.138592
H12   H     H_    0.822198 0.254815 0.608028 0.125505
H13   H     H_    0.878243 0.529677 0.342114 0.164448
H14   H     H_    0.121225 0.435999 0.652587 0.152087
H15   H     H_    0.593602 0.227356 0.032697 0.147137
H16   H     H_    0.550366 0.810641 0.983615 0.158537
H17   H     H_    0.388362 0.234389 0.105187 0.198306
H18   H     H_    0.720500 0.781472 0.864283 0.170210
H19   H     H_    0.353739 0.157950 0.277849 0.123773
H20   H     H_    0.696000 0.834367 0.684017 0.114279
N1    N     N_1   0.500030 0.500030 0.268070 -0.137783
N2    N     N_1   0.499970 0.499970 0.731930 -0.137271
O1    O     O_R   0.499980 0.319630 0.578260 -0.583117
O2    O     O_R   0.500020 0.680370 0.421740 -0.583720
O3    O     O_R   0.500000 0.319650 0.421740 -0.577697
O4    O     O_R   0.500000 0.680350 0.578260 -0.569698
O5    O     O_R   0.319630 0.500000 0.578260 -0.582207
O6    O     O_R   0.680370 0.500000 0.421740 -0.583257
O7    O     O_R   0.319650 0.500020 0.421740 -0.577796
O8    O     O_R   0.680350 0.499980 0.578260 -0.573770
C45   C     C_3   0.013429 0.273382 0.276878 -0.347165
C46   C     C_3   0.086456 0.197174 0.352939 -0.336742
C47   C     C_3   0.002981 0.110964 0.409812 -0.848036
H21   H     H_    0.934397 0.163963 0.453070 0.247536
H22   H     H_    0.955171 0.045942 0.355160 0.256250
H23   H     H_    0.058410 0.057747 0.464496 0.245547
H24   H     H_    0.153482 0.141316 0.310985 0.239349
H25   H     H_    0.137478 0.256807 0.409554 0.213575
H26   H     H_    0.928872 0.307562 0.311843 0.194589
H27   H     H_    0.978901 0.211538 0.214118 0.253081
C48   C     C_3   0.951701 0.615559 0.788822 -0.358822
C49   C     C_3   0.087422 0.612208 0.822735 -0.318988
C50   C     C_3   0.129239 0.730893 0.877926 -0.761738
H28   H     H_    0.124441 0.808457 0.825143 0.243010
H29   H     H_    0.071898 0.751115 0.944832 0.295283
H30   H     H_    0.225103 0.720846 0.905585 0.223403
H31   H     H_    0.104711 0.534491 0.873518 0.237882
H32   H     H_    0.145543 0.599807 0.755407 0.207576
H33   H     H_    0.943892 0.661628 0.714588 0.174962
H34   H     H_    0.899806 0.674084 0.842184 0.238067
S1    S     S_3+6 0.120868 0.247338 0.053706 -0.040816
O9    O     O_2   0.162003 0.134133 0.106228 -0.319423
O10   O     O_2   0.988721 0.230524 0.021631 -0.293143
O11   O     O_3   0.204901 0.264998 0.949174 -0.559859
H35   H     H_    0.152131 0.310366 0.901314 0.345828
S2    S     S_3+6 0.839180 0.509390 0.991168 -0.038270
O12   O     O_2   0.963627 0.559296 0.021022 -0.315118
O13   O     O_2   0.751352 0.613500 0.988731 -0.354751
O14   O     O_3   0.794769 0.411114 0.079919 -0.551788
H36   H     H_    0.804133 0.457397 0.145799 0.367232

loop_
_geom_bond_atom_site_label_1
_geom_bond_atom_site_label_2
_ccdc_geom_bond_type
C48   C49   S    
C7    C9    A    
C27   C29   S    
S1    O9    D    
C39   C41   A    
C45   C46   S    
C3    C43   A    
C1    O3    A    
Cu1   O8    S    
C35   C37   A    
C23   O5    A    
C39   S1    S    
C20   C25   A    
C5    C36   S    
C6    C35   S    
S2    O14   S    
Cu1   O5    S    
C19   C26   A    
C17   H15   S    
C46   H24   S    
C7    C17   A    
C48   H33   S    
C31   C33   A    
C15   H5    S    
C50   H29   S    
C43   H13   S    
C19   H7    S    
C40   C42   A    
C45   H26   S    
C1    C22   S    
Cu1   O4    S    
C3    C24   S    
C2    C21   S    
C2    O4    A    
Cu2   O7    S    
S1    O10   D    
C9    H19   S    
C10   H20   S    
C49   H32   S    
Cu1   O1    S    
C20   H8    S    
C23   O7    A    
C47   H22   S    
C4    C23   S    
C46   C47   S    
C24   O8    A    
C4    C44   A    
C11   C26   S    
Cu1   Cu2   S    
C37   C45   S    
C8    C18   A    
C32   C34   A    
C29   C30   T    
C48   H34   S    
Cu1   N2    S    
C41   H1    S    
C16   C18   A    
C42   H2    S    
C50   H30   S    
S2    O13   D    
C9    C11   A    
C7    H17   S    
Cu2   O3    S    
C10   C12   A    
C8    H18   S    
C13   H3    S    
C4    C6    A    
C5    C44   A    
C20   C22   A    
C45   H27   S    
C6    C43   A    
C13   C15   A    
C14   C16   A    
Cu2   O6    S    
S1    O11   S    
C15   C17   A    
C21   C25   A    
C49   H31   S    
C33   H11   S    
C31   C41   A    
C28   N2    T    
C18   H16   S    
C16   H6    S    
C12   C14   A    
C3    C5    A    
C47   H23   S    
O14   H36   S    
C12   C25   S    
C38   C48   S    
C36   C38   A    
Cu2   N1    S    
C37   C39   A    
C38   C40   A    
C11   C13   A    
C24   O6    A    
C14   H4    S    
C44   H14   S    
C28   C30   S    
O11   H35   S    
C33   C35   A    
C34   C36   A    
S2    O12   D    
C1    O1    A    
Cu2   O2    S    
C27   N1    T    
C40   S2    S    
C47   H21   S    
C46   H25   S    
C49   C50   S    
C8    C10   A    
C22   C26   A    
C34   H12   S    
C32   C42   A    
C31   H9    S    
C50   H28   S    
C2    O2    A    
C32   H10   S    
C19   C21   A    
