data_mof_unit_56690.cif
_audit_creation_date              2012-12-10T18:49:21-0500
_audit_creation_method            fapswitch 2.2
_symmetry_space_group_name_H-M    P1
_symmetry_Int_Tables_number       1
_space_group_crystal_system       triclinic
_cell_length_a                    9.968601
_cell_length_b                    10.607424
_cell_length_c                    13.612171
_cell_angle_alpha                 91.967296
_cell_angle_beta                  83.077938
_cell_angle_gamma                 89.813024
_cell_volume                      1427.99352553

loop_
_atom_site_label
_atom_site_type_symbol
_atom_type_description
_atom_site_fract_x
_atom_site_fract_y
_atom_site_fract_z
_atom_type_partial_charge
C1    C     C_R   0.499781 0.739182 0.500677 0.947899
C2    C     C_R   0.500209 0.260805 0.499312 0.947467
C3    C     C_R   0.500328 0.128254 0.499622 -0.035529
C4    C     C_R   0.499632 0.871710 0.500363 -0.041295
C5    C     C_R   0.475794 0.500383 0.685473 0.898339
C6    C     C_R   0.524227 0.499656 0.314525 0.898056
C7    C     C_R   0.939286 0.423943 0.434320 0.014087
C8    C     C_R   0.061764 0.583502 0.559822 0.010741
C9    C     C_R   0.081713 0.416063 0.440536 0.016402
C10   C     C_R   0.917355 0.576526 0.565390 0.016862
C11   C     C_1   0.542587 0.499518 0.210670 -0.143679
C12   C     C_1   0.457530 0.500735 0.789329 -0.143390
C13   C     C_2   0.558441 0.499650 0.018833 -0.144738
C14   C     C_2   0.441878 0.501022 0.981164 -0.163667
C15   C     C_1   0.445702 0.500957 0.877199 0.031226
C16   C     C_1   0.554551 0.499508 0.122801 0.027417
C17   C     C_R   0.550710 0.930037 0.413226 0.037790
C18   C     C_R   0.449280 0.069914 0.586771 0.042774
C19   C     C_R   0.550852 0.061003 0.412785 0.008122
C20   C     C_R   0.449405 0.938941 0.587270 0.021124
H1    H     H_    0.345102 0.502048 0.027580 0.173588
H2    H     H_    0.655224 0.498604 0.972421 0.185174
N1    N     N_R   0.142790 0.500030 0.500020 -0.186925
N2    N     N_R   0.857210 0.499970 0.499980 -0.186475
O1    O     O_R   0.385380 0.683250 0.500010 -0.622402
O2    O     O_R   0.614620 0.316750 0.499990 -0.642605
O3    O     O_R   0.614710 0.683220 0.500000 -0.644683
O4    O     O_R   0.385290 0.316780 0.500000 -0.626339
O5    O     O_R   0.368830 0.499990 0.640350 -0.636356
O6    O     O_R   0.631170 0.500010 0.359650 -0.621566
O7    O     O_R   0.598160 0.499960 0.640350 -0.623996
O8    O     O_R   0.401840 0.500040 0.359650 -0.642030
Zn1   Zn    Zn3+2 0.346870 0.500020 0.500000 0.945804
Zn2   Zn    Zn3+2 0.653130 0.499980 0.500000 0.944256
C21   C     C_2   0.880709 0.354508 0.353526 0.495584
H3    H     H_    0.781107 0.315501 0.364919 0.120589
O9    O     O_2   0.943597 0.342556 0.270984 -0.578123
C22   C     C_2   0.124722 0.684420 0.616073 0.514806
H4    H     H_    0.212991 0.666158 0.651777 0.107318
O10   O     O_2   0.078520 0.791552 0.621789 -0.576673
C23   C     C_2   0.162174 0.311879 0.386892 0.531245
H5    H     H_    0.261931 0.326948 0.349637 0.097364
O11   O     O_2   0.116891 0.205097 0.384991 -0.565000
C24   C     C_2   0.832387 0.647992 0.645369 0.525219
H6    H     H_    0.742299 0.696996 0.631547 0.101228
O12   O     O_2   0.862453 0.651441 0.729777 -0.580693
N3    N     N_3   0.600164 0.855120 0.326372 -0.453564
H7    H     H_    0.701280 0.877749 0.305391 0.206922
H8    H     H_    0.544028 0.877060 0.269089 0.193163
N4    N     N_3   0.399746 0.144824 0.673606 -0.454913
H9    H     H_    0.455764 0.122840 0.730945 0.187637
H10   H     H_    0.298599 0.122221 0.694490 0.213772
N5    N     N_3   0.598976 0.126830 0.325109 -0.484651
H11   H     H_    0.540966 0.100221 0.268913 0.197638
H12   H     H_    0.699436 0.100466 0.302850 0.206795
N6    N     N_3   0.402362 0.873079 0.675164 -0.482374
H13   H     H_    0.302362 0.899965 0.698464 0.227626
H14   H     H_    0.461570 0.899343 0.730722 0.187633

loop_
_geom_bond_atom_site_label_1
_geom_bond_atom_site_label_2
_ccdc_geom_bond_type
C13   H2    S    
N1    Zn1   S    
C6    O8    A    
C3    C19   A    
C17   C19   A    
C9    C23   S    
C17   N3    S    
C11   C16   T    
N4    H10   S    
N3    H7    S    
C12   C15   T    
C20   N6    S    
C1    C4    S    
C10   N2    A    
O8    Zn1   S    
C19   N5    S    
N4    H9    S    
O7    Zn2   S    
O2    Zn2   S    
N3    H8    S    
N5    H11   S    
C24   H6    S    
C1    O1    A    
C23   O11   D    
C8    C22   S    
C5    C12   S    
C4    C17   A    
C14   H1    S    
C8    C10   A    
C22   O10   D    
C24   O12   D    
O4    Zn1   S    
C2    C3    S    
C18   C20   A    
N5    H12   S    
O3    Zn2   S    
C22   H4    S    
O6    Zn2   S    
C10   C24   S    
C7    N2    A    
C4    C20   A    
C5    O5    A    
O5    Zn1   S    
C8    N1    A    
N6    H13   S    
C18   N4    S    
C3    C18   A    
C2    O2    A    
C23   H5    S    
C13   C16   S    
O1    Zn1   S    
C6    C11   S    
C1    O3    A    
C7    C9    A    
C14   C15   S    
C9    N1    A    
C2    O4    A    
C21   O9    D    
C13   C14   D    
C7    C21   S    
C6    O6    A    
N2    Zn2   S    
C21   H3    S    
N6    H14   S    
C5    O7    A    
