data_mof_unit_16726.cif
_audit_creation_date              2012-12-10T16:43:25-0500
_audit_creation_method            fapswitch 2.2
_symmetry_space_group_name_H-M    P1
_symmetry_Int_Tables_number       1
_space_group_crystal_system       triclinic
_cell_length_a                    10.812849
_cell_length_b                    8.708282
_cell_length_c                    7.431318
_cell_angle_alpha                 102.590109
_cell_angle_beta                  93.667928
_cell_angle_gamma                 93.72705
_cell_volume                      679.275535221

loop_
_atom_site_label
_atom_site_type_symbol
_atom_type_description
_atom_site_fract_x
_atom_site_fract_y
_atom_site_fract_z
_atom_type_partial_charge
C1    C     C_R   0.491566 0.199589 0.454655 0.913981
C2    C     C_R   0.078695 0.631346 0.641976 0.051967
C3    C     C_R   0.129596 0.511905 0.512816 -0.070025
C4    C     C_R   0.052671 0.405763 0.376771 -0.175798
C5    C     C_R   0.925307 0.411692 0.370428 -0.182139
C6    C     C_R   0.872589 0.529516 0.493198 -0.082844
C7    C     C_2   0.489327 0.032040 0.432279 -0.374422
C8    C     C_2   0.470794 0.961559 0.572532 0.110545
C9    C     C_R   0.262639 0.502809 0.504100 0.762729
C10   C     C_R   0.489290 0.797246 0.546481 0.881233
C11   C     C_R   0.737887 0.512658 0.498530 0.852650
C12   C     C_R   0.152779 0.739505 0.785026 -0.162832
C13   C     C_R   0.100947 0.862410 0.900115 -0.162748
C14   C     C_R   0.978417 0.890665 0.863416 -0.126092
C15   C     C_R   0.905155 0.790723 0.717870 0.234522
C16   C     C_R   0.949631 0.649004 0.620190 0.044020
Cu1   Cu    Cu3+1 0.513920 0.517380 0.684380 1.019132
Cu2   Cu    Cu3+1 0.486080 0.482620 0.315620 1.001783
H1    H     H_    0.602851 0.615509 0.049368 0.239769
H2    H     H_    0.251208 0.734579 0.810761 0.194294
H3    H     H_    0.158721 0.943385 0.009131 0.174218
N1    N     N_2   0.465100 0.456430 0.038520 -0.194146
N2    N     N_2   0.534900 0.543570 0.961480 -0.208362
O1    O     O_R   0.509050 0.286130 0.619770 -0.530843
O2    O     O_R   0.485540 0.256780 0.308360 -0.561274
O3    O     O_R   0.331410 0.514680 0.655740 -0.613542
O4    O     O_R   0.307900 0.485330 0.344330 -0.584527
O5    O     O_R   0.514460 0.743220 0.691640 -0.539350
O6    O     O_R   0.490950 0.713870 0.380230 -0.606756
O7    O     O_R   0.692100 0.514670 0.655670 -0.562414
O8    O     O_R   0.668590 0.485320 0.344260 -0.580380
H4    H     H_    0.091427 0.314416 0.277942 0.154332
H5    H     H_    0.943565 0.997942 0.938797 0.169055
Br1   Br    Br    0.774944 0.888566 0.614171 -0.553991
H6    H     H_    0.867349 0.321522 0.271471 0.166295
H7    H     H_    0.511502 0.965318 0.298268 0.176083
Br2   Br    Br    0.414814 0.059856 0.809103 -0.534523
H8    H     H_    0.394590 0.388932 0.951756 0.260400

loop_
_geom_bond_atom_site_label_1
_geom_bond_atom_site_label_2
_ccdc_geom_bond_type
H1    N2    S    
C3    C9    S    
C2    C16   A    
C7    H7    S    
C15   Br1   S    
C2    C12   A    
C12   H2    S    
C14   H5    S    
Cu2   N1    S    
C2    C3    A    
C11   O8    A    
C7    C8    D    
Cu2   O6    S    
Cu1   N2    S    
C13   C14   A    
C1    O2    A    
Cu1   O7    S    
C10   O6    A    
C4    H4    S    
Cu2   O2    S    
Cu1   O3    S    
C5    H6    S    
C9    O3    A    
Cu1   Cu2   S    
N1    N2    D    
C5    C6    A    
Cu1   O1    S    
C8    Br2   S    
C13   H3    S    
C3    C4    A    
N1    H8    S    
C12   C13   A    
C9    O4    A    
C1    O1    A    
C8    C10   S    
C10   O5    A    
C6    C11   S    
C14   C15   A    
Cu2   O8    S    
C1    C7    S    
Cu1   O5    S    
C6    C16   A    
Cu2   O4    S    
C15   C16   A    
C11   O7    A    
C4    C5    A    
