data_mof_unit_23880.cif
_audit_creation_date              2013-03-05T16:16:18-0500
_audit_creation_method            fapswitch 2.2
_symmetry_space_group_name_H-M    P1
_symmetry_Int_Tables_number       1
_space_group_crystal_system       triclinic
_cell_length_a                    8.238267
_cell_length_b                    18.868469
_cell_length_c                    26.99761
_cell_angle_alpha                 97.124188
_cell_angle_beta                  92.559991
_cell_angle_gamma                 86.36262
_cell_volume                      4152.94479558

loop_
_atom_site_label
_atom_site_type_symbol
_atom_site_description
_atom_site_fract_x
_atom_site_fract_y
_atom_site_fract_z
_atom_type_partial_charge
P1    P     P_3+3 0.084800 0.558370 0.611580 0.539095
O1    O     O_2   0.914730 0.537460 0.618690 -0.403309
O2    O     O_3   0.146720 0.537410 0.558510 -0.393478
O3    O     O_3   0.666360 0.409390 0.586570 -0.391868
O4    O     O_2   0.836779 0.441373 0.671572 -0.439586
O5    O     O_3   0.067713 0.651677 0.624827 -0.494178
O6    O     O_3   0.635549 0.341152 0.673264 -0.477270
H1    H     H_    0.827841 0.293779 0.631582 0.079433
C1    C     C_3   0.692278 0.214743 0.659182 -0.975398
H2    H     H_    0.743822 0.170898 0.632064 0.234272
H3    H     H_    0.764112 0.215714 0.695038 0.259194
P2    P     P_3+3 0.628800 0.338360 0.458800 0.464023
P3    P     P_3+3 0.098508 0.279879 0.554520 0.462535
O7    O     O_2   0.806150 0.327840 0.473120 -0.364596
O8    O     O_3   0.073640 0.373350 0.561550 -0.389423
O9    O     O_2   0.931868 0.250732 0.536601 -0.418867
O10   O     O_3   0.624991 0.320140 0.393565 -0.564463
O11   O     O_3   0.131926 0.250097 0.613310 -0.593822
C2    C     C_3   0.177045 0.307420 0.648408 1.184407
H4    H     H_    0.084628 0.352958 0.649539 0.006691
C3    C     C_3   0.189170 0.282991 0.700044 -0.937922
H5    H     H_    0.219681 0.328552 0.728179 0.263554
H6    H     H_    0.070759 0.263641 0.709124 0.204970
C4    C     C_3   0.193916 0.313696 0.407367 0.435999
H7    H     H_    0.308846 0.338776 0.419725 0.098655
H8    H     H_    0.114027 0.314386 0.439425 0.092033
C5    C     C_3   0.233927 0.236784 0.384975 -0.980538
H9    H     H_    0.304475 0.236191 0.350788 0.280681
H10   H     H_    0.308177 0.207215 0.411699 0.215700
H11   H     H_    0.119797 0.209098 0.375068 0.261498
Ba1   Ba    Ba6+2 0.852670 0.466460 0.522850 1.572226
C6    C     C_3   0.010375 0.682124 0.582297 0.484353
H12   H     H_    0.892703 0.660664 0.569055 0.042022
H13   H     H_    0.098239 0.670955 0.552037 0.138782
C7    C     C_3   0.988125 0.762729 0.596048 -0.948413
H14   H     H_    0.895514 0.775373 0.624988 0.266237
H15   H     H_    0.947621 0.789080 0.562849 0.218848
H16   H     H_    0.105361 0.784393 0.610793 0.279966
C8    C     C_3   0.666815 0.380755 0.373026 0.425678
H17   H     H_    0.789407 0.395644 0.387042 0.096308
H18   H     H_    0.577562 0.426445 0.382388 0.141679
C9    C     C_3   0.667354 0.363491 0.316503 -0.927019
H19   H     H_    0.761054 0.319957 0.305902 0.269869
H20   H     H_    0.695007 0.411456 0.299280 0.229554
H21   H     H_    0.545951 0.346313 0.301966 0.264710
P4    P     P_3+3 0.104900 0.441570 0.388420 0.478440
O12   O     O_2   0.274960 0.462520 0.381280 -0.367816
O13   O     O_3   0.042980 0.462530 0.441480 -0.403953
O14   O     O_3   0.523340 0.590550 0.413420 -0.378174
O15   O     O_3   0.111879 0.349214 0.370635 -0.552775
P5    P     P_3+3 0.099645 0.719455 0.436896 0.445095
O16   O     O_3   0.635780 0.584660 0.526290 -0.403854
O17   O     O_3   0.116060 0.626590 0.438450 -0.385452
O18   O     O_2   0.238626 0.753237 0.470329 -0.395657
O19   O     O_3   0.137363 0.737055 0.376531 -0.529793
Ba2   Ba    Ba6+2 0.337150 0.533490 0.477140 1.574755
P6    P     P_3+3 0.663141 0.423406 0.651859 0.492472
C10   C     C_3   0.699113 0.285806 0.638559 0.586900
H22   H     H_    0.625774 0.282883 0.602871 0.109018
H23   H     H_    0.564140 0.204334 0.665504 0.276931
O20   O     O_3   0.553920 0.415280 0.473710 -0.403060
C11   C     C_3   0.562443 0.649848 0.632862 1.218988
H24   H     H_    0.612896 0.596607 0.616445 -0.021615
C12   C     C_3   0.645150 0.666974 0.684147 -0.992129
H25   H     H_    0.597722 0.719949 0.702089 0.270303
H26   H     H_    0.621709 0.625806 0.708497 0.215571
H27   H     H_    0.778617 0.668160 0.680431 0.241189
P7    P     P_3+3 0.569891 0.674733 0.540184 0.455599
O21   O     O_2   0.383540 0.672140 0.526840 -0.329318
O22   O     O_3   0.589725 0.704684 0.604152 -0.629526
H28   H     H_    0.285048 0.239144 0.701558 0.263795
C13   C     C_3   0.033547 0.697288 0.342557 0.480482
H29   H     H_    0.090808 0.642876 0.332014 0.112195
H30   H     H_    0.914475 0.691234 0.358499 -0.057809
C14   C     C_3   0.998012 0.736057 0.296412 -0.449041
H31   H     H_    0.882970 0.717538 0.277703 0.223059
H32   H     H_    0.978825 0.794542 0.307878 0.206298
P8    P     P_3+3 0.533361 0.588916 0.348839 0.450516
C15   C     C_3   0.520957 0.725489 0.367134 0.527999
H33   H     H_    0.654554 0.715555 0.370935 -0.008695
O23   O     O_2   0.418998 0.532371 0.323129 -0.392062
O24   O     O_3   0.447958 0.671488 0.334339 -0.511311
H34   H     H_    0.469268 0.728865 0.404653 0.145398
H35   H     H_    0.557130 0.838711 0.372066 0.229530
C16   C     C_3   0.490536 0.797574 0.347616 -1.015042
H36   H     H_    0.359015 0.814182 0.347649 0.290347
H37   H     H_    0.534660 0.794456 0.309086 0.254912
C17   C     C_R   0.020061 0.450695 0.178591 0.536710
O25   O     O_2   0.042817 0.397060 0.199667 -0.589126
N1    N     N_R   0.950715 0.512953 0.204093 -0.159885
C18   C     C_R   0.922437 0.573027 0.179084 0.504670
C19   C     C_2   0.765966 0.549233 0.273055 -0.189269
C20   C     C_3   0.747465 0.572997 0.328101 0.123002
C21   C     C_1   0.983674 0.491515 0.343366 0.300090
C22   C     C_2   0.025098 0.488036 0.295688 -0.205926
C23   C     C_2   0.908575 0.516289 0.256846 0.107672
C24   C     C_R   0.031067 0.508710 0.102384 -0.068507
C25   C     C_R   0.062660 0.448150 0.127835 -0.063895
C26   C     C_R   0.134957 0.386044 0.101825 -0.083036
C27   C     C_R   0.960005 0.571324 0.128383 -0.038824
C28   C     C_2   0.853512 0.529260 0.361202 -0.470280
H38   H     H_    0.144905 0.466010 0.284808 0.189885
H39   H     H_    0.160054 0.338248 0.120006 0.166959
C29   C     C_2   0.355503 0.487396 0.640967 -0.256383
C30   C     C_R   0.192248 0.443443 0.974636 0.040692
C31   C     C_R   0.065159 0.565178 0.973787 0.042033
C32   C     C_R   0.148168 0.503572 0.948798 0.084749
C33   C     C_R   0.280720 0.384760 0.948470 -0.202837
C34   C     C_R   0.321154 0.384588 0.898792 -0.081772
C35   C     C_R   0.274932 0.442695 0.872526 -0.054195
C36   C     C_R   0.187692 0.502208 0.897422 -0.063271
C37   C     C_R   0.140511 0.560542 0.871001 -0.062324
C38   C     C_R   0.180724 0.558724 0.820358 0.528442
N2    N     N_R   0.266442 0.499932 0.796059 -0.167082
C39   C     C_R   0.314670 0.442460 0.821896 0.512425
C40   C     C_2   0.462876 0.488507 0.729154 -0.137948
C41   C     C_3   0.505050 0.493074 0.675313 0.153721
C42   C     C_1   0.214492 0.514939 0.657463 0.327657
C43   C     C_2   0.175885 0.513496 0.704611 -0.228801
C44   C     C_2   0.306361 0.499267 0.743655 0.129971
O26   O     O_2   0.391492 0.390760 0.800802 -0.582068
C45   C     C_R   0.147704 0.444104 0.025482 0.041313
C46   C     C_R   0.070481 0.506843 0.050949 0.084403
C47   C     C_R   0.032322 0.567906 0.025583 0.043533
C48   C     C_R   0.176913 0.384009 0.052054 -0.201227
H40   H     H_    0.560913 0.481309 0.756633 0.151094
H41   H     H_    0.389376 0.338144 0.880888 0.168539
H42   H     H_    0.323512 0.338117 0.965573 0.127737
H43   H     H_    0.229988 0.333646 0.035204 0.127296
O27   O     O_2   0.865263 0.628806 0.201056 -0.628674
C49   C     C_R   0.928748 0.631828 0.103398 -0.093641
H44   H     H_    0.674452 0.568263 0.246886 0.177801
H45   H     H_    0.876247 0.681283 0.122567 0.165330
C50   C     C_R   0.016710 0.622073 0.945716 -0.203818
C51   C     C_R   0.053743 0.619730 0.895701 -0.083708
O28   O     O_2   0.141413 0.610176 0.798145 -0.577880
C52   C     C_R   0.963692 0.630272 0.053353 -0.206709
H46   H     H_    0.946819 0.669235 0.960976 0.127651
H47   H     H_    0.013568 0.665052 0.876315 0.169344
H48   H     H_    0.050664 0.524111 0.715404 0.180716
H49   H     H_    0.937960 0.679839 0.037866 0.127038
H50   H     H_    0.839492 0.541361 0.401184 0.174518
H51   H     H_    0.365603 0.463221 0.602486 0.155180
N3    N     N_R   0.498352 0.953860 0.506608 -0.071652
N4    N     N_R   0.445818 0.022477 0.510572 -0.074424
C53   C     C_2   0.398771 0.295701 0.514694 -0.393507
C54   C     C_3   0.260433 0.246446 0.510305 0.182384
C55   C     C_2   0.323922 0.169904 0.513362 -0.195071
C56   C     C_2   0.478485 0.149150 0.499785 -0.001275
C57   C     C_2   0.586362 0.205316 0.487308 -0.241023
C58   C     C_1   0.531017 0.273322 0.490471 0.283469
N5    N     N_R   0.687230 0.050859 0.477529 -0.075990
N6    N     N_R   0.739772 0.982028 0.473466 -0.077807
C59   C     C_R   0.646282 0.931958 0.487957 0.156838
C60   C     C_R   0.539034 0.072583 0.496188 0.160521
C61   C     C_R   0.611031 0.806483 0.505148 -0.231945
C62   C     C_R   0.661745 0.734060 0.502176 0.278346
C63   C     C_R   0.900227 0.756130 0.459061 0.247169
C64   C     C_R   0.850737 0.829203 0.461557 -0.281759
C65   C     C_R   0.702966 0.854963 0.484052 0.022358
C66   C     C_R   0.801180 0.708811 0.477160 -0.509933
H52   H     H_    0.239975 0.131229 0.521624 0.153476
H53   H     H_    0.708080 0.189991 0.474537 0.173679
H54   H     H_    0.503129 0.825077 0.525526 0.167612
H55   H     H_    0.927966 0.865431 0.446960 0.157068
H56   H     H_    0.387676 0.348874 0.535299 0.181464
H57   H     H_    0.840198 0.652795 0.475880 0.162129
F1    F     F_    0.397521 0.647615 0.638571 -0.703093
C67   C     C_3   0.134232 0.722244 0.259265 -0.702908
H58   H     H_    0.246903 0.746143 0.275447 0.271341
H59   H     H_    0.097349 0.747003 0.224955 0.238532
H60   H     H_    0.159404 0.663899 0.248780 0.252743
F2    F     F_    0.326192 0.329642 0.637293 -0.733361

loop_
_geom_bond_atom_site_label_1
_geom_bond_atom_site_label_2
_geom_bond_distance
_ccdc_geom_bond_type
C26   H39   1.083533 S    
C4    H7    1.105078 S    
C39   O26   1.221678 D    
C5    H10   1.105950 S    
C22   C23   1.512984 S    
C67   H58   1.106249 S    
Ba1   O20   2.905532 S    
O5    C6    1.397231 S    
C54   C55   1.515257 S    
C4    C5    1.523031 S    
C19   C23   1.357933 D    
Ba1   O16   2.762809 S    
C2    F2    1.380261 S    
N2    C39   1.388726 Am   
N1    C18   1.391855 Am   
C27   C49   1.400993 A    
C46   C47   1.423303 A    
C8    H18   1.109003 S    
C18   O27   1.220080 D    
C16   H36   1.108651 S    
O14   P8    1.745515 S    
C51   H47   1.083686 S    
C57   H53   1.085063 S    
C30   C32   1.423746 A    
P3    O11   1.753093 S    
C3    H28   1.110233 S    
C43   H48   1.084150 S    
C61   C62   1.397037 A    
C2    C3    1.518850 S    
C4    H8    1.108780 S    
O11   C2    1.403986 S    
C31   C32   1.421205 A    
P8    C20   1.869259 S    
P1    Ba1   3.374032 S    
C33   C34   1.395882 A    
C11   O22   1.402091 S    
P1    O1    1.506151 D    
O10   C8    1.399505 S    
C42   C43   1.329671 D    
C11   C12   1.522632 S    
C38   N2    1.386046 Am   
C63   C66   1.392119 A    
H1    C10   1.108099 S    
C35   C36   1.408127 A    
C34   H41   1.083585 S    
C2    H4    1.109706 S    
C21   C28   1.324053 D    
P7    O21   1.563587 D    
C38   O28   1.222366 D    
P2    O10   1.751356 S    
C14   C67   1.526971 S    
Ba1   Ba2   4.529949 S    
C53   C58   1.315180 D    
C1    H2    1.110712 S    
O7    Ba1   2.828553 S    
O6    C10   1.405126 S    
O19   C13   1.405852 S    
O16   P7    1.751220 S    
C22   H38   1.084787 S    
C53   H56   1.085756 S    
C40   H40   1.085666 S    
C3    H5    1.107958 S    
C5    H11   1.110715 S    
C67   H59   1.110290 S    
P2    C58   1.825697 S    
C9    H20   1.107782 S    
C7    H14   1.110568 S    
C13   C14   1.529414 S    
C37   C38   1.416919 A    
P4    O15   1.747227 S    
C24   C25   1.409488 A    
C8    C9    1.520491 S    
C29   C42   1.315342 D    
C16   H37   1.110635 S    
C4    O15   1.391696 S    
C30   C33   1.416274 A    
P4    O13   1.538774 S    
P1    O5    1.750481 S    
C12   H27   1.110442 S    
C47   C52   1.414589 A    
C61   C65   1.410818 A    
C7    H16   1.110739 S    
H35   C16   1.110754 S    
C26   C48   1.397681 A    
C20   C28   1.504841 S    
C8    H17   1.103440 S    
C13   H29   1.111601 S    
C10   H22   1.111498 S    
N1    C23   1.473764 S    
C33   H42   1.076534 S    
C40   C44   1.359859 D    
O1    Ba1   2.803555 S    
P1    O2    1.539018 S    
C9    H21   1.110816 S    
C6    H13   1.107510 S    
O3    P6    1.750774 S    
C14   H31   1.109471 S    
C6    C7    1.521570 S    
C59   C65   1.489979 S    
C11   H24   1.109688 S    
C49   C52   1.390356 A    
C48   H43   1.076551 S    
C1    H3    1.110615 S    
O2    Ba2   2.746889 S    
P8    O24   1.750215 S    
C64   C65   1.415921 A    
P4    C21   1.849688 S    
N5    C60   1.361078 A    
C29   H51   1.086135 S    
C55   C56   1.360846 D    
O2    Ba1   2.910466 S    
C14   H32   1.111788 S    
C66   H57   1.081872 S    
C13   H30   1.106648 S    
C17   N1    1.389150 Am   
Ba2   O21   2.828575 S    
Ba1   O13   2.746270 S    
C3    H6    1.110745 S    
P2    Ba1   3.387879 S    
C63   C64   1.407081 A    
C18   C27   1.412856 A    
C67   H60   1.110875 S    
C9    H19   1.110616 S    
P3    C54   1.857704 S    
C37   C51   1.399783 A    
P4    Ba2   3.374513 S    
P7    C62   1.827668 S    
C62   C66   1.386614 A    
C15   C16   1.520923 S    
C24   C27   1.405144 A    
P6    C41   1.864180 S    
C53   C54   1.507200 S    
O17   Ba2   2.715434 S    
C30   C45   1.435035 A    
O13   Ba2   2.911393 S    
C52   H49   1.076275 S    
P4    O12   1.506488 D    
C1    C10   1.519407 S    
C36   C37   1.409637 A    
C7    H15   1.106659 S    
Ba2   O20   2.762373 S    
C32   C36   1.435609 A    
P2    O7    1.501775 D    
N3    N4    1.331785 A    
C49   H45   1.083800 S    
C50   H46   1.076266 S    
C15   O24   1.410745 S    
C43   C44   1.506970 S    
O8    Ba1   2.715068 S    
C50   C51   1.392335 A    
O14   Ba2   2.715878 S    
C19   H44   1.085104 S    
C29   C41   1.509701 S    
P5    C63   1.837609 S    
O4    P6    1.546994 D    
C1    H23   1.110306 S    
C55   H52   1.085701 S    
C12   H25   1.110711 S    
P5    O18   1.545802 D    
C45   C48   1.417748 A    
P3    O8    1.750165 S    
C56   C60   1.491143 S    
C24   C46   1.435845 A    
C56   C57   1.503734 S    
C6    H12   1.102026 S    
C15   H34   1.109267 S    
P2    O20   1.553288 S    
P8    O23   1.546991 D    
C11   F1    1.378078 S    
C19   C20   1.509664 S    
C40   C41   1.523490 S    
P5    O19   1.747978 S    
P1    C42   1.835760 S    
N3    C59   1.359731 A    
C21   C22   1.339058 D    
C17   C25   1.423936 A    
O3    Ba1   2.716581 S    
C15   H33   1.107031 S    
N4    C60   1.358008 A    
C64   H55   1.082480 S    
C31   C50   1.416517 A    
C17   O25   1.221599 D    
C61   H54   1.082683 S    
P7    O22   1.752988 S    
C25   C26   1.402062 A    
P3    O9    1.546490 D    
C31   C47   1.430194 A    
C5    H9    1.110986 S    
C45   C46   1.421421 A    
C57   C58   1.328068 D    
N5    N6    1.335539 A    
P5    O17   1.754417 S    
N6    C59   1.360037 A    
C34   C35   1.402025 A    
C35   C39   1.419097 A    
O6    P6    1.753090 S    
N2    C44   1.465100 S    
O16   Ba2   2.904734 S    
C12   H26   1.108981 S    
O12   Ba2   2.803992 S    
C28   H50   1.085015 S    
