data_mof_unit_9032.cif
_audit_creation_date              2012-12-10T18:11:39-0500
_audit_creation_method            fapswitch 2.2
_symmetry_space_group_name_H-M    P1
_symmetry_Int_Tables_number       1
_space_group_crystal_system       triclinic
_cell_length_a                    10.510648
_cell_length_b                    12.610609
_cell_length_c                    13.165825
_cell_angle_alpha                 82.329279
_cell_angle_beta                  90.113455
_cell_angle_gamma                 102.598567
_cell_volume                      1687.15156164

loop_
_atom_site_label
_atom_site_type_symbol
_atom_type_description
_atom_site_fract_x
_atom_site_fract_y
_atom_site_fract_z
_atom_type_partial_charge
C1    C     C_R   0.479621 0.438887 0.691140 0.868040
C2    C     C_3   0.066425 0.586091 0.434741 -0.194281
C3    C     C_3   0.984819 0.595472 0.529757 -0.284414
C4    C     C_3   0.877486 0.502448 0.498495 -0.070454
C5    C     C_R   0.425533 0.708816 0.063063 -0.200963
C6    C     C_R   0.506695 0.597307 0.200387 -0.042428
C7    C     C_R   0.492000 0.299004 0.838410 -0.181432
C8    C     C_R   0.503314 0.270370 0.942926 -0.152007
C9    C     C_R   0.495110 0.345256 0.009893 -0.194179
C10   C     C_R   0.469214 0.449272 0.973194 0.080584
C11   C     C_R   0.438265 0.470836 0.869454 0.072437
C12   C     C_R   0.742209 0.501098 0.499155 0.923456
C13   C     C_R   0.472265 0.532438 0.036001 0.076927
C14   C     C_R   0.427188 0.628432 0.999220 0.176595
C15   C     C_R   0.381492 0.641524 0.900278 -0.272166
C16   C     C_R   0.385023 0.563061 0.836646 -0.172305
C17   C     C_R   0.520660 0.523339 0.134314 -0.262420
C18   C     C_R   0.462828 0.692218 0.164453 -0.209432
C19   C     C_R   0.463659 0.400425 0.800833 -0.109073
C20   C     C_R   0.321629 0.088131 0.346417 -0.307898
C21   C     C_R   0.652383 0.799536 0.630159 0.019437
C22   C     C_R   0.683411 0.903962 0.658815 -0.250982
C23   C     C_R   0.514098 0.561153 0.308929 0.847489
C24   C     C_R   0.625597 0.985456 0.609682 -0.192750
C25   C     C_R   0.536040 0.962566 0.530996 0.012671
C26   C     C_R   0.508013 0.854694 0.504547 0.241670
C27   C     C_R   0.473383 0.041818 0.477750 -0.018858
C28   C     C_R   0.384358 0.011525 0.399716 0.200089
C29   C     C_R   0.359008 0.905222 0.375263 -0.298544
C30   C     C_R   0.420264 0.828254 0.426804 -0.209875
C31   C     C_R   0.495297 0.150692 0.498243 -0.047160
C32   C     C_R   0.347657 0.194221 0.370419 0.003866
C33   C     C_R   0.257639 0.498882 0.500817 0.907680
C34   C     C_3   0.934818 0.415268 0.562177 0.368950
C35   C     C_3   0.041331 0.506395 0.593974 0.442277
C36   C     C_3   0.122152 0.497724 0.500448 -0.094319
C37   C     C_3   0.015084 0.405026 0.468311 -0.252831
C38   C     C_3   0.956490 0.493708 0.403304 -0.202333
H1    H     H_    0.565447 0.456512 0.163206 0.149209
H2    H     H_    0.509532 0.243289 0.786795 0.161322
H3    H     H_    0.506264 0.318384 0.090015 0.134911
H4    H     H_    0.523880 0.191540 0.971843 0.142913
H5    H     H_    0.343445 0.574859 0.761935 0.221206
H6    H     H_    0.300525 0.254849 0.329837 0.136387
H7    H     H_    0.291601 0.881345 0.315669 0.147625
H8    H     H_    0.253586 0.066225 0.286733 0.144206
H9    H     H_    0.561212 0.181516 0.555531 0.149750
H10   H     H_    0.696714 0.735757 0.668235 0.135983
H11   H     H_    0.652834 0.064956 0.634926 0.155967
H12   H     H_    0.751902 0.921693 0.719048 0.151723
H13   H     H_    0.397186 0.748515 0.403825 0.207032
H14   H     H_    0.030447 0.327497 0.444364 0.165992
H15   H     H_    0.916887 0.489486 0.325354 0.149752
H16   H     H_    0.125190 0.655512 0.382020 0.149724
H17   H     H_    0.969212 0.672688 0.554256 0.162655
H18   H     H_    0.451562 0.750365 0.215428 0.150464
H19   H     H_    0.343331 0.712747 0.871812 0.153271
H20   H     H_    0.390133 0.781816 0.035928 0.134773
N1    N     N_R   0.432930 0.222190 0.444670 -0.105476
N2    N     N_R   0.566370 0.776980 0.554790 -0.131267
O1    O     O_R   0.467970 0.366730 0.627150 -0.610225
O2    O     O_R   0.510820 0.544830 0.662520 -0.627554
O3    O     O_R   0.664630 0.410960 0.482340 -0.587315
O4    O     O_R   0.707470 0.589060 0.517710 -0.637618
O5    O     O_R   0.489180 0.455170 0.337480 -0.621364
O6    O     O_R   0.532030 0.633270 0.372850 -0.639783
O7    O     O_R   0.292530 0.410940 0.482290 -0.628808
O8    O     O_R   0.335370 0.589040 0.517660 -0.628879
Zn1   Zn    Zn3+2 0.471390 0.381080 0.476380 0.951654
Zn2   Zn    Zn3+2 0.528610 0.618920 0.523620 0.928946
O9    O     O_3   0.092601 0.512492 0.692758 -0.634540
C39   C     C_3   0.991271 0.513485 0.762828 0.106565
H21   H     H_    0.923833 0.431564 0.776775 0.185234
H22   H     H_    0.934926 0.576472 0.735145 0.133201
C40   C     C_3   0.048622 0.539996 0.864830 -0.840229
H23   H     H_    0.110827 0.624102 0.854890 0.252801
H24   H     H_    0.968810 0.535957 0.921329 0.210056
H25   H     H_    0.107488 0.480002 0.894667 0.268673
O10   O     O_3   0.860229 0.326740 0.627001 -0.800055
H26   H     H_    0.922682 0.282212 0.654431 0.330057

loop_
_geom_bond_atom_site_label_1
_geom_bond_atom_site_label_2
_ccdc_geom_bond_type
C30   H13   S    
C34   C37   S    
C35   C36   S    
C1    O2    A    
C7    C8    A    
C11   C19   A    
C37   C38   S    
C5    H20   S    
C23   O6    A    
C36   C37   S    
C8    H4    S    
C12   O4    A    
O1    Zn1   S    
C15   C16   A    
C33   C36   S    
O2    Zn2   S    
C34   C35   S    
C17   H1    S    
C31   N1    A    
C3    H17   S    
O3    Zn1   S    
C8    C9    A    
C7    H2    S    
O4    Zn2   S    
C4    C12   S    
C9    C10   A    
C18   H18   S    
C22   H12   S    
C21   H10   S    
C35   O9    S    
C31   H9    S    
C21   C22   A    
C15   H19   S    
C39   C40   S    
C6    C18   A    
C4    C34   S    
C1    C19   S    
C27   C31   A    
C24   C25   A    
C21   N2    A    
C39   H22   S    
C2    H16   S    
C37   H14   S    
C5    C18   A    
C20   C28   A    
C25   C26   A    
C29   H7    S    
O7    Zn1   S    
C40   H23   S    
C29   C30   A    
C34   O10   S    
C11   C16   A    
C2    C38   S    
N2    Zn2   S    
C32   H6    S    
C40   H24   S    
C16   H5    S    
C5    C14   A    
N1    Zn1   S    
C4    C38   S    
C26   C30   A    
C7    C19   A    
C22   C24   A    
C3    C35   S    
C3    C4    S    
C33   O7    A    
C20   C32   A    
C2    C36   S    
C24   H11   S    
C12   O3    A    
C6    C17   A    
C28   C29   A    
C39   H21   S    
C10   C13   A    
C1    O1    A    
C25   C27   A    
C9    H3    S    
C13   C17   A    
C23   O5    A    
C2    C3    S    
O9    C39   S    
O6    Zn2   S    
C38   H15   S    
O5    Zn1   S    
C6    C23   S    
C40   H25   S    
C10   C11   A    
O10   H26   S    
O8    Zn2   S    
C27   C28   A    
C14   C15   A    
C32   N1    A    
C13   C14   A    
C26   N2    A    
C20   H8    S    
C33   O8    A    
