data_mof_unit_43176.cif
_audit_creation_date              2012-12-11T16:53:29-0500
_audit_creation_method            fapswitch 2.2
_symmetry_space_group_name_H-M    P1
_symmetry_Int_Tables_number       1
_space_group_crystal_system       triclinic
_cell_length_a                    14.969715
_cell_length_b                    14.867145
_cell_length_c                    17.266416
_cell_angle_alpha                 108.307617
_cell_angle_beta                  106.247715
_cell_angle_gamma                 108.181754
_cell_volume                      3147.39419153

loop_
_atom_site_label
_atom_site_type_symbol
_atom_type_description
_atom_site_fract_x
_atom_site_fract_y
_atom_site_fract_z
_atom_type_partial_charge
C1    C     C_R   0.093252 0.284317 0.063645 -0.226761
C2    C     C_R   0.026926 0.589021 0.752786 -0.102975
C3    C     C_R   0.713750 0.196248 0.729858 -0.242002
C4    C     C_R   0.279367 0.454051 0.958887 0.047409
C5    C     C_R   0.270899 0.690886 0.252143 0.503427
C6    C     C_R   0.707210 0.504855 0.922271 0.646275
C7    C     C_R   0.888023 0.435319 0.185190 -0.047285
C8    C     C_R   0.080488 0.806403 0.024328 -0.038642
C9    C     C_R   0.909296 0.722917 0.949028 -0.122130
C10   C     C_R   0.061824 0.520182 0.262839 -0.137527
C11   C     C_R   0.274763 0.787905 0.176933 0.515506
C12   C     C_R   0.936978 0.527120 0.752437 -0.019478
C13   C     C_R   0.701736 0.415246 0.004190 -0.264736
C14   C     C_R   0.328445 0.784015 0.254135 -0.180398
C15   C     C_R   0.644990 0.449902 0.953282 -0.070816
C16   C     C_R   0.968340 0.487337 0.269513 0.209718
C17   C     C_R   0.992789 0.822190 0.992781 0.005893
C18   C     C_R   0.419657 0.506137 0.915135 -0.019591
C19   C     C_R   0.353773 0.430328 0.930302 0.105965
C20   C     C_R   0.373621 0.344723 0.932688 -0.219475
C21   C     C_R   0.467183 0.344819 0.933036 -0.194385
C22   C     C_R   0.539480 0.431197 0.932118 0.024704
C23   C     C_R   0.744726 0.203464 0.814851 0.497612
C24   C     C_R   0.511725 0.507370 0.917655 0.009722
C25   C     C_3   0.568601 0.625984 0.965251 1.155986
C26   C     C_3   0.465151 0.624661 0.962218 -0.770679
C27   C     C_R   0.959503 0.488305 0.349741 -0.268776
C28   C     C_R   0.029818 0.593023 0.671992 -0.052195
C29   C     C_R   0.033410 0.683545 0.579075 -0.153752
C30   C     C_R   0.044037 0.685075 0.661790 -0.268420
C31   C     C_R   0.002004 0.497623 0.600215 0.616400
C32   C     C_R   0.983803 0.494105 0.515754 -0.130542
C33   C     C_R   0.004378 0.588660 0.505743 -0.055196
C34   C     C_R   0.246693 0.524983 0.941843 -0.090612
C35   C     C_R   0.995967 0.585851 0.422466 0.526555
C36   C     C_R   0.929106 0.393335 0.357110 0.567927
C37   C     C_R   0.944514 0.397242 0.441281 -0.333426
C38   C     C_R   0.637170 0.102483 0.652794 0.022157
C39   C     C_R   0.417716 0.864815 0.331814 0.021579
C40   C     C_R   0.601231 0.954303 0.421861 -0.379068
C41   C     C_R   0.518111 0.890474 0.336687 0.641847
C42   C     C_R   0.398195 0.902231 0.406176 -0.281902
C43   C     C_R   0.478444 0.962566 0.489126 0.141657
C44   C     C_R   0.581627 0.990894 0.497966 -0.083075
C45   C     C_R   0.755676 0.297858 0.736631 0.583706
C46   C     C_R   0.662364 0.058792 0.582388 0.574246
C47   C     C_R   0.535856 0.067031 0.645336 -0.224631
C48   C     C_R   0.456007 0.996053 0.563117 -0.226336
C49   C     C_R   0.098224 0.069220 0.026596 0.110660
C50   C     C_R   0.031566 0.107060 0.053024 0.052016
C51   C     C_R   0.021290 0.103205 0.130881 -0.187464
C52   C     C_R   0.089789 0.080350 0.187780 -0.137217
C53   C     C_R   0.169905 0.063407 0.168327 -0.102954
C54   C     C_R   0.167066 0.050582 0.084069 0.070628
C55   C     C_3   0.249646 0.085371 0.053415 0.474693
C56   C     C_R   0.251792 0.436389 0.024835 -0.156328
C57   C     C_3   0.174260 0.106253 0.989308 -0.643407
C58   C     C_R   0.109042 0.608194 0.827323 0.558985
C59   C     C_R   0.921856 0.196095 0.990290 0.616568
C60   C     C_R   0.013328 0.186551 0.027151 -0.094867
H1    H     H_    0.806402 0.392906 0.166853 0.086569
N1    N     N_R   0.055640 0.348550 0.045600 -0.071230
N2    N     N_R   0.798340 0.505430 0.954400 -0.101141
N3    N     N_R   0.931580 0.439470 0.128350 -0.053001
N4    N     N_R   0.051950 0.704140 0.002340 -0.053603
N5    N     N_R   0.944360 0.651450 0.954400 -0.055447
N6    N     N_R   0.039170 0.492150 0.176290 -0.054034
N7    N     N_R   0.188710 0.696600 0.128350 -0.129172
N8    N     N_R   0.794820 0.447010 0.002340 -0.074068
N9    N     N_R   0.960830 0.507850 0.823710 -0.079098
N10   N     N_R   0.811290 0.303400 0.871650 -0.148941
N11   N     N_R   0.205180 0.552990 0.997660 -0.034944
N12   N     N_R   0.814810 0.361830 0.823710 -0.138967
N13   N     N_R   0.201660 0.494570 0.045600 -0.052420
N14   N     N_R   0.068420 0.560530 0.871650 -0.105188
N15   N     N_R   0.948050 0.295860 0.997660 -0.098563
N16   N     N_R   0.185190 0.638170 0.176290 -0.140104
Ni1   Ni    Ni4+2 0.119330 0.493420 0.109950 0.190616
Ni2   Ni    Ni4+2 0.880670 0.506580 0.890050 0.237823
Ni3   Ni    Ni4+2 0.872590 0.372590 0.000000 0.209550
Ni4   Ni    Ni4+2 0.127410 0.627410 0.000000 0.297213
H2    H     H_    0.170625 0.310010 0.112159 0.124453
O1    O     O_3   0.676935 0.528547 0.850680 -0.619819
C61   C     C_3   0.603114 0.436479 0.771683 -0.208497
H3    H     H_    0.523768 0.427624 0.761249 0.151724
H4    H     H_    0.608237 0.363009 0.770789 0.085600
H5    H     H_    0.615651 0.445706 0.713802 0.175683
H6    H     H_    0.159492 0.864705 0.055813 0.189697
H7    H     H_    0.829892 0.704970 0.911715 0.176644
H8    H     H_    0.138237 0.553742 0.315638 0.152550
O2    O     O_3   0.314777 0.852525 0.140312 -0.573637
C62   C     C_3   0.356191 0.959513 0.201536 -0.218199
H9    H     H_    0.357784 0.007087 0.163488 0.185431
H10   H     H_    0.437573 0.988394 0.248162 0.138753
H11   H     H_    0.309033 0.974757 0.239448 0.101335
H12   H     H_    0.673363 0.361398 0.031029 0.119621
H13   H     H_    0.322045 0.283777 0.942216 0.124961
H14   H     H_    0.486148 0.282889 0.941345 0.116821
O3    O     O_3   0.653596 0.666075 0.050160 -0.654251
C63   C     C_3   0.625607 0.649322 0.117960 -0.339881
H15   H     H_    0.693843 0.655326 0.169600 0.199392
H16   H     H_    0.561832 0.570277 0.093252 0.154833
H17   H     H_    0.605613 0.712066 0.151620 0.193303
H18   H     H_    0.859981 0.509062 0.708533 0.170739
O4    O     O_3   0.599309 0.665376 0.907485 -0.614162
C64   C     C_3   0.649370 0.776618 0.950078 -0.204376
H19   H     H_    0.728610 0.805768 0.001790 0.172927
H20   H     H_    0.604295 0.811261 0.980343 0.118333
H21   H     H_    0.657345 0.804423 0.898785 0.141383
H22   H     H_    0.460346 0.654831 0.027633 0.221688
H23   H     H_    0.432600 0.656144 0.916689 0.209341
O5    O     O_3   0.020325 0.676906 0.410141 -0.610592
C65   C     C_3   0.129096 0.733892 0.443691 -0.241363
H24   H     H_    0.174605 0.691769 0.463768 0.123741
H25   H     H_    0.156291 0.809707 0.502503 0.143379
H26   H     H_    0.147277 0.752660 0.390979 0.166466
O6    O     O_3   0.899810 0.299416 0.284662 -0.605847
C66   C     C_3   0.795188 0.232311 0.257666 -0.267050
H27   H     H_    0.744346 0.271972 0.245202 0.121411
H28   H     H_    0.785596 0.202451 0.307730 0.140518
H29   H     H_    0.769166 0.163025 0.193520 0.175823
H30   H     H_    0.045150 0.755807 0.572348 0.165092
H31   H     H_    0.927973 0.324597 0.448197 0.202914
H32   H     H_    0.062132 0.757265 0.717490 0.167001
O7    O     O_3   0.979332 0.405321 0.610540 -0.597819
C67   C     C_3   0.069264 0.389078 0.632178 -0.261861
H33   H     H_    0.105471 0.394041 0.584462 0.126340
H34   H     H_    0.047361 0.308666 0.628032 0.189384
H35   H     H_    0.126202 0.445547 0.702116 0.116368
O8    O     O_3   0.764067 0.096273 0.592677 -0.601857
C68   C     C_3   0.811133 0.042993 0.631326 -0.252076
H36   H     H_    0.892046 0.071254 0.638036 0.171792
H37   H     H_    0.770744 0.956410 0.587699 0.136795
H38   H     H_    0.814133 0.059986 0.699786 0.139877
O9    O     O_3   0.695543 0.126535 0.837017 -0.590836
C69   C     C_3   0.648990 0.164903 0.891907 -0.144169
H39   H     H_    0.708482 0.222391 0.960691 0.168191
H40   H     H_    0.596642 0.097884 0.897430 0.142832
H41   H     H_    0.601193 0.200389 0.862963 0.078504
H42   H     H_    0.518095 0.101039 0.701010 0.152948
H43   H     H_    0.679923 0.973638 0.429044 0.190718
H44   H     H_    0.376903 0.972480 0.556331 0.131915
O10   O     O_3   0.530531 0.844472 0.259197 -0.612641
C70   C     C_3   0.612214 0.917180 0.253035 -0.265011
H45   H     H_    0.687351 0.920331 0.291084 0.148769
H46   H     H_    0.615334 0.997483 0.275792 0.118968
H47   H     H_    0.599558 0.889229 0.181518 0.180304
H48   H     H_    0.318938 0.879921 0.399339 0.127812
H49   H     H_    0.970644 0.131573 0.153914 0.169886
H50   H     H_    0.087229 0.086394 0.251134 0.134519
H51   H     H_    0.320152 0.156790 0.108053 -0.004397
O11   O     O_3   0.266330 0.999502 0.007503 -0.585891
C71   C     C_3   0.352464 0.037148 0.988483 -0.192047
H52   H     H_    0.424793 0.086900 0.051451 0.106763
H53   H     H_    0.341587 0.081775 0.948360 0.116106
H54   H     H_    0.361272 0.968636 0.948048 0.176347
H55   H     H_    0.202737 0.190860 0.004588 0.164119
H56   H     H_    0.255857 0.555612 0.894314 0.137400
H57   H     H_    0.146354 0.052574 0.917250 0.218439
O12   O     O_3   0.744472 0.333620 0.670889 -0.607036
C72   C     C_3   0.644250 0.278564 0.600527 -0.234926
H58   H     H_    0.629698 0.332658 0.572216 0.150333
H59   H     H_    0.582011 0.252313 0.622782 0.105703
H60   H     H_    0.639833 0.211883 0.545352 0.173056
H61   H     H_    0.271314 0.389386 0.056953 0.093556
O13   O     O_3   0.204834 0.695453 0.872075 -0.595135
C73   C     C_3   0.255891 0.702520 0.815388 -0.251742
H62   H     H_    0.234356 0.748148 0.779940 0.164749
H63   H     H_    0.242677 0.624413 0.767174 0.101155
H64   H     H_    0.340353 0.747579 0.857891 0.165426
O14   O     O_3   0.824710 0.131453 0.978042 -0.616004
C74   C     C_3   0.800060 0.024103 0.930750 -0.175100
H65   H     H_    0.827115 0.992389 0.978049 0.118630
H66   H     H_    0.830438 0.009663 0.878249 0.115966
H67   H     H_    0.714576 0.979030 0.895785 0.176533
O15   O     O_3   0.305216 0.652312 0.311804 -0.617557
C75   C     C_3   0.314241 0.561035 0.266221 -0.234648
H68   H     H_    0.355708 0.540140 0.316726 0.162531
H69   H     H_    0.360397 0.574198 0.226792 0.146991
H70   H     H_    0.236976 0.493375 0.222748 0.140504

loop_
_geom_bond_atom_site_label_1
_geom_bond_atom_site_label_2
_ccdc_geom_bond_type
O14   C74   S    
C67   H33   S    
C66   H27   S    
C3    C23   A    
C19   C20   A    
C18   C26   S    
C61   H5    S    
C68   H38   S    
C42   H48   S    
C1    N1    A    
C72   H58   S    
C25   O4    S    
C55   O11   S    
C39   C41   A    
N2    Ni2   S    
C10   N6    A    
C11   N7    A    
N5    Ni2   S    
C45   O12   S    
C64   H20   S    
C18   C24   A    
N7    Ni4   S    
C36   C37   A    
C61   H4    S    
C41   O10   S    
C69   H41   S    
C11   C14   A    
C64   H19   S    
C49   C54   A    
C29   C33   A    
C49   C57   S    
C45   N12   A    
C18   C19   A    
C49   C50   A    
C9    N5    A    
O5    C65   S    
C57   H55   S    
C14   C39   S    
C37   H31   S    
C4    C19   S    
C25   O3    S    
C15   C22   S    
C7    H1    S    
C20   H13   S    
O1    C61   S    
C3    C38   S    
C74   H66   S    
C75   H69   S    
C47   H42   S    
C71   H53   S    
C43   C48   A    
C26   H22   S    
N11   Ni4   S    
C74   H67   S    
C65   H26   S    
C16   C27   S    
C57   H57   S    
C2    C12   A    
C59   C60   A    
C40   H43   S    
C4    C56   A    
N3    Ni3   S    
N1    N15   A    
N6    Ni1   S    
C70   H47   S    
C59   O14   S    
C62   H10   S    
N10   Ni3   S    
C72   H59   S    
C44   C46   A    
C58   N14   A    
C39   C42   A    
C4    C34   A    
C56   N13   A    
C13   H12   S    
C51   C52   A    
C47   C48   A    
N2    N8    A    
O9    C69   S    
C61   H3    S    
N11   N13   A    
C1    C60   A    
C9    H7    S    
C73   H62   S    
N10   N12   A    
N14   Ni4   S    
C67   H35   S    
C27   C35   A    
C1    H2    S    
N16   Ni1   S    
C3    C45   A    
C63   H17   S    
C73   H63   S    
C8    H6    S    
C66   H29   S    
C6    N2    A    
C56   H61   S    
C43   C44   A    
N3    N6    A    
C29   C30   A    
C23   N10   A    
N4    Ni4   S    
C31   C32   A    
C6    C15   A    
C75   H70   S    
C29   H30   S    
C20   C21   A    
C63   H16   S    
C50   C51   A    
N12   Ni2   S    
C48   H44   S    
C12   H18   S    
C32   C37   A    
C24   C25   S    
C71   H54   S    
C55   H51   S    
C36   O6    S    
C51   H49   S    
C5    C14   A    
C73   H64   S    
C34   H56   S    
C70   H46   S    
C40   C41   A    
C30   H32   S    
N4    N5    A    
C55   C57   S    
O7    C67   S    
C5    O15   S    
C22   C24   A    
C42   C43   A    
C31   O7    S    
C5    N16   A    
C68   H36   S    
C34   N11   A    
O2    C62   S    
C72   H60   S    
C74   H65   S    
C69   H40   S    
C65   H24   S    
C9    C17   A    
N7    N16   A    
C12   N9    A    
C54   C55   S    
O15   C75   S    
C67   H34   S    
C6    O1    S    
N9    Ni2   S    
N1    Ni1   S    
C28   C31   A    
C7    C16   A    
N15   Ni3   S    
C69   H39   S    
C68   H37   S    
C46   O8    S    
C2    C28   S    
C2    C58   A    
C53   C54   A    
C23   O9    S    
C27   C36   A    
O4    C64   S    
C8    C17   A    
O3    C63   S    
C38   C47   A    
C70   H45   S    
C50   C60   S    
O12   C72   S    
C13   C15   A    
O8    C68   S    
C25   C26   S    
C10   C16   A    
O6    C66   S    
C32   C33   A    
C21   H14   S    
O13   C73   S    
C13   N8    A    
C59   N15   A    
C28   C30   A    
C62   H9    S    
C33   C35   A    
C62   H11   S    
C58   O13   S    
C66   H28   S    
C7    N3    A    
C38   C46   A    
C8    N4    A    
C11   O2    S    
C40   C44   A    
O11   C71   S    
C10   H8    S    
C52   H50   S    
C75   H68   S    
N13   Ni1   S    
N9    N14   A    
N8    Ni3   S    
C63   H15   S    
C71   H52   S    
C21   C22   A    
C26   H23   S    
C35   O5    S    
O10   C70   S    
C52   C53   A    
C65   H25   S    
C64   H21   S    
