data_mof_unit_24336.cif
_audit_creation_date              2012-12-11T15:49:13-0500
_audit_creation_method            fapswitch 2.2
_symmetry_space_group_name_H-M    P1
_symmetry_Int_Tables_number       1
_space_group_crystal_system       triclinic
_cell_length_a                    21.851438
_cell_length_b                    7.151333
_cell_length_c                    15.390203
_cell_angle_alpha                 89.804608
_cell_angle_beta                  109.651282
_cell_angle_gamma                 89.974409
_cell_volume                      2264.88942923

loop_
_atom_site_label
_atom_site_type_symbol
_atom_type_description
_atom_site_fract_x
_atom_site_fract_y
_atom_site_fract_z
_atom_type_partial_charge
O1    O     O_R   0.335860 0.638190 0.002110 -0.541741
O2    O     O_R   0.664140 0.361810 0.997890 -0.541125
O3    O     O_R   0.164140 0.138190 0.997890 -0.537512
O4    O     O_R   0.835860 0.861810 0.002110 -0.536860
O5    O     O_R   0.217530 0.305920 0.861960 -0.529338
O6    O     O_R   0.782470 0.694080 0.138040 -0.529096
O7    O     O_R   0.282470 0.805920 0.138040 -0.531027
O8    O     O_R   0.717530 0.194080 0.861960 -0.544473
C1    C     C_R   0.206876 0.477975 0.825620 0.684499
C2    C     C_R   0.793084 0.522035 0.174428 0.679864
C3    C     C_R   0.292757 0.977563 0.174439 0.692937
C4    C     C_R   0.705532 0.023225 0.825688 0.655162
O9    O     O_R   0.338690 0.308320 0.993240 -0.521658
O10   O     O_R   0.661310 0.691680 0.006760 -0.522885
O11   O     O_R   0.161310 0.808320 0.006760 -0.523682
O12   O     O_R   0.838690 0.191680 0.993240 -0.521115
O13   O     O_R   0.286170 0.140430 0.130100 -0.546537
O14   O     O_R   0.713830 0.859570 0.869900 -0.539755
O15   O     O_R   0.213830 0.640430 0.869900 -0.545210
O16   O     O_R   0.786170 0.359570 0.130100 -0.544881
C5    C     C_R   0.364758 0.478909 0.996541 0.750506
C6    C     C_R   0.635492 0.520610 0.004333 0.747307
C7    C     C_R   0.135371 0.979089 0.003907 0.764812
C8    C     C_R   0.864645 0.020903 0.996151 0.771794
O17   O     O_3   0.232630 0.472410 0.044750 -0.377500
O18   O     O_3   0.767370 0.527590 0.955250 -0.375137
O19   O     O_3   0.267370 0.972410 0.955250 -0.374683
O20   O     O_3   0.732630 0.027590 0.044750 -0.375282
V1    V     V_3+5 0.253220 0.196620 0.991700 1.456829
V2    V     V_3+5 0.746780 0.803380 0.008300 1.455791
V3    V     V_3+5 0.246780 0.696620 0.008300 1.449584
V4    V     V_3+5 0.753220 0.303380 0.991700 1.443565
C9    C     C_R   0.039795 0.845653 0.041259 0.237962
C10   C     C_R   0.960271 0.154293 0.958959 0.236521
C11   C     C_R   0.461031 0.344620 0.961643 0.242487
C12   C     C_R   0.540782 0.651055 0.044804 0.245709
C13   C     C_R   0.972711 0.844962 0.029413 0.181271
C14   C     C_R   0.027366 0.155106 0.970912 0.184256
C15   C     C_R   0.528339 0.341973 0.974865 0.182668
C16   C     C_R   0.473752 0.651734 0.033686 0.168938
C17   C     C_R   0.932951 0.004723 0.993476 -0.218171
C18   C     C_R   0.067103 0.995240 0.006710 -0.213116
C19   C     C_R   0.567675 0.503128 0.008792 -0.217145
C20   C     C_R   0.433517 0.494424 0.995433 -0.209664
C21   C     C_R   0.678804 0.008844 0.724046 -0.141951
C22   C     C_R   0.315106 0.995312 0.276314 -0.126894
C23   C     C_R   0.817989 0.504814 0.276341 -0.123774
C24   C     C_R   0.181823 0.495687 0.723815 -0.122992
C25   C     C_R   0.678625 0.848715 0.584301 -0.063492
C26   C     C_R   0.311729 0.161998 0.412607 -0.056492
C27   C     C_R   0.816628 0.347487 0.416461 -0.060850
C28   C     C_R   0.182941 0.656075 0.584403 -0.058410
C29   C     C_R   0.709072 0.888009 0.678433 -0.116168
C30   C     C_R   0.283041 0.118012 0.318434 -0.137001
C31   C     C_R   0.787407 0.383348 0.321421 -0.138763
C32   C     C_R   0.212604 0.616876 0.678988 -0.137900
C33   C     C_R   0.618570 0.093001 0.673609 0.202536
C34   C     C_R   0.373665 0.910681 0.330713 0.210334
C35   C     C_R   0.876790 0.592413 0.327761 0.200601
C36   C     C_R   0.122518 0.410543 0.672560 0.199955
C37   C     C_R   0.581096 0.015440 0.587408 0.037350
C38   C     C_R   0.410720 0.998469 0.414765 0.008302
C39   C     C_R   0.914436 0.512356 0.413977 0.008650
C40   C     C_R   0.084848 0.492639 0.586847 0.007799
C41   C     C_R   0.614137 0.909415 0.539027 0.040759
C42   C     C_R   0.376897 0.108932 0.460069 0.057800
C43   C     C_R   0.880914 0.408733 0.462621 0.057408
C44   C     C_R   0.118405 0.596701 0.538390 0.060822
C45   C     C_R   0.512181 0.041953 0.546791 0.080446
C46   C     C_R   0.479633 0.980714 0.455158 0.055550
C47   C     C_R   0.983501 0.530783 0.453963 0.075827
C48   C     C_R   0.015749 0.475176 0.546997 0.075845
C49   C     C_R   0.517542 0.918137 0.403661 -0.224877
C50   C     C_R   0.474216 0.119317 0.595725 -0.161141
C51   C     C_R   0.977309 0.417280 0.599020 -0.224646
C52   C     C_R   0.021949 0.589329 0.402062 -0.224960
C53   C     C_R   0.582432 0.872464 0.445273 -0.151776
C54   C     C_R   0.408838 0.160694 0.552131 -0.173933
C55   C     C_R   0.912195 0.373107 0.556921 -0.149734
C56   C     C_R   0.087042 0.633602 0.444237 -0.146931
H1    H     H_    0.607608 0.810006 0.402831 0.135303
H2    H     H_    0.383396 0.232079 0.591785 0.134547
H3    H     H_    0.886455 0.312808 0.599267 0.133666
H4    H     H_    0.112778 0.694235 0.401960 0.133468
H5    H     H_    0.496780 0.902482 0.330569 0.129214
H6    H     H_    0.494035 0.149875 0.668047 0.152971
H7    H     H_    0.997478 0.402817 0.672608 0.123864
H8    H     H_    0.001860 0.603896 0.328495 0.123911
N1    N     N_2   0.080475 0.697080 0.091318 -0.489967
H9    H     H_    0.057859 0.570491 0.090149 0.291903
C57   C     C_3   0.122119 0.746014 0.183491 -0.471068
H10   H     H_    0.092555 0.784326 0.226978 0.176941
H11   H     H_    0.154278 0.864315 0.181447 0.185494
H12   H     H_    0.153507 0.625285 0.215671 0.207546
N2    N     N_2   0.919580 0.302829 0.908924 -0.491980
H13   H     H_    0.942119 0.429631 0.910343 0.289980
C58   C     C_3   0.878103 0.254064 0.816631 -0.463844
H14   H     H_    0.907815 0.218091 0.773030 0.173518
H15   H     H_    0.846258 0.374255 0.784854 0.213681
H16   H     H_    0.846457 0.134063 0.818285 0.188733
N3    N     N_2   0.420407 0.195654 0.913099 -0.490448
H17   H     H_    0.441983 0.066335 0.918763 0.287697
C59   C     C_3   0.380625 0.240709 0.819253 -0.476660
H18   H     H_    0.411591 0.268075 0.776344 0.175839
H19   H     H_    0.349982 0.365171 0.817525 0.187748
H20   H     H_    0.347786 0.122111 0.789109 0.211723
N4    N     N_2   0.581949 0.796094 0.097052 -0.490618
H21   H     H_    0.559091 0.919820 0.101458 0.295871
C60   C     C_3   0.627043 0.738619 0.186051 -0.466270
H22   H     H_    0.600605 0.682989 0.230734 0.174728
H23   H     H_    0.656687 0.859995 0.220869 0.205537
H24   H     H_    0.660765 0.629817 0.178187 0.184720
N5    N     N_2   0.946128 0.677154 0.051188 -0.519713
H25   H     H_    0.906428 0.619769 0.001732 0.295468
C61   C     C_3   0.950990 0.649188 0.145987 -0.496447
H26   H     H_    0.977740 0.517178 0.171692 0.187819
H27   H     H_    0.901859 0.636729 0.150234 0.214180
H28   H     H_    0.976190 0.767742 0.190060 0.186106
N6    N     N_2   0.054033 0.323327 0.949728 -0.519189
H29   H     H_    0.093791 0.379925 0.999394 0.296737
C62   C     C_3   0.049220 0.352821 0.855048 -0.497343
H30   H     H_    0.022614 0.485269 0.829872 0.186674
H31   H     H_    0.023918 0.235010 0.810494 0.186275
H32   H     H_    0.098371 0.365353 0.850879 0.214011
N7    N     N_2   0.556328 0.167990 0.963263 -0.511377
H33   H     H_    0.597113 0.122792 0.015384 0.300914
C63   C     C_3   0.549727 0.110325 0.870825 -0.500402
H34   H     H_    0.519937 0.981433 0.853210 0.193433
H35   H     H_    0.598154 0.076719 0.867414 0.183653
H36   H     H_    0.526800 0.221910 0.820141 0.184779
N8    N     N_2   0.448438 0.814296 0.062363 -0.524375
H37   H     H_    0.408889 0.876310 0.014322 0.295092
C64   C     C_3   0.446227 0.805710 0.154609 -0.492021
H38   H     H_    0.494717 0.767595 0.203198 0.186861
H39   H     H_    0.411100 0.698370 0.159625 0.222492
H40   H     H_    0.431618 0.944283 0.173468 0.183305
N9    N     N_2   0.387053 0.722756 0.310667 -0.544784
H41   H     H_    0.433478 0.674874 0.343142 0.258337
C65   C     C_3   0.341656 0.585380 0.322178 -0.468631
H42   H     H_    0.352414 0.447535 0.297595 0.184477
H43   H     H_    0.290661 0.622718 0.281994 0.213292
H44   H     H_    0.346682 0.573210 0.396285 0.194879
N10   N     N_2   0.600354 0.269411 0.701015 -0.552233
H45   H     H_    0.616128 0.298839 0.770153 0.266836
C66   C     C_3   0.608381 0.427048 0.646592 -0.484033
H46   H     H_    0.590412 0.556353 0.669863 0.183501
H47   H     H_    0.580082 0.406414 0.572410 0.209346
H48   H     H_    0.660607 0.445602 0.655278 0.202380
N11   N     N_2   0.109491 0.225072 0.697186 -0.537854
H49   H     H_    0.062468 0.179093 0.669709 0.255020
C67   C     C_3   0.152317 0.083411 0.682218 -0.454558
H50   H     H_    0.142718 0.947634 0.710387 0.183796
H51   H     H_    0.204206 0.119242 0.717141 0.212242
H52   H     H_    0.143299 0.067359 0.607110 0.189088
N12   N     N_2   0.889239 0.777994 0.302595 -0.537514
H53   H     H_    0.936071 0.825448 0.330206 0.254670
C68   C     C_3   0.845808 0.918606 0.316828 -0.453547
H54   H     H_    0.854874 0.054208 0.287991 0.184912
H55   H     H_    0.854723 0.935927 0.391841 0.187469
H56   H     H_    0.794080 0.880842 0.282063 0.212269
C69   C     C_1   0.219368 0.191594 0.266017 0.298615
N13   N     N_1   0.168508 0.249688 0.224136 -0.388619
C70   C     C_1   0.773146 0.811992 0.727244 0.314454
N14   N     N_1   0.824264 0.751876 0.766190 -0.387505
C71   C     C_1   0.276471 0.691581 0.728917 0.301586
N15   N     N_1   0.327495 0.750428 0.768821 -0.388547
C72   C     C_1   0.724393 0.303670 0.271174 0.301991
N16   N     N_1   0.674082 0.240608 0.231026 -0.384391
C73   C     C_1   0.712828 0.739310 0.535807 0.332176
N17   N     N_1   0.740184 0.653117 0.496955 -0.358878
C74   C     C_1   0.274942 0.267214 0.458613 0.330553
N18   N     N_1   0.245342 0.349558 0.495482 -0.361920
C75   C     C_1   0.781775 0.239639 0.464731 0.332670
N19   N     N_1   0.753876 0.154604 0.503390 -0.357050
C76   C     C_1   0.217988 0.763390 0.536250 0.329559
N20   N     N_1   0.246114 0.847662 0.497674 -0.360912

loop_
_geom_bond_atom_site_label_1
_geom_bond_atom_site_label_2
_ccdc_geom_bond_type
C34   C38   A    
C55   H3    S    
C74   N18   T    
O1    C5    A    
C71   N15   T    
C15   N7    S    
O19   V1    S    
O13   V1    S    
C73   N17   T    
O3    C7    A    
N2    H13   S    
C31   C72   S    
C56   H4    S    
C40   C48   A    
O15   V3    S    
C58   H16   S    
C66   H46   S    
C75   N19   T    
O7    C3    A    
N9    C65   S    
C21   C33   A    
C68   H54   S    
C7    C18   S    
C25   C41   A    
C9    C18   A    
C40   C44   A    
O9    V1    S    
C14   C18   A    
C60   H23   S    
C47   C52   A    
O4    C8    A    
C65   H44   S    
N12   C68   S    
N10   H45   S    
C58   H14   S    
O1    V3    S    
C38   C46   A    
O2    V4    S    
C67   H52   S    
O3    V1    S    
C62   H32   S    
C58   H15   S    
C1    O15   A    
N10   C66   S    
C70   N14   T    
C2    O16   A    
C61   H27   S    
C32   C71   S    
O2    C6    A    
C64   H40   S    
C67   H50   S    
C26   C74   S    
O14   V2    S    
N1    C57   S    
C52   H8    S    
C28   C44   A    
O11   C7    A    
C21   C29   A    
O12   C8    A    
C22   C34   A    
C12   N4    S    
C8    C17   S    
N4    C60   S    
C10   C17   A    
O10   V2    S    
C48   C51   A    
C66   H47   S    
C72   N16   T    
C24   C36   A    
O5    V1    S    
N6    C62   S    
C42   C54   A    
C39   C43   A    
N12   H53   S    
C41   C53   A    
C33   N10   S    
O8    V4    S    
N3    H17   S    
C12   C16   A    
O7    V3    S    
C10   N2    S    
C60   H24   S    
C57   H10   S    
C38   C42   A    
O18   V4    S    
C29   C70   S    
C15   C19   A    
C11   N3    S    
C9    C13   A    
C68   H55   S    
C11   C15   A    
C63   H35   S    
O5    C1    A    
N7    C63   S    
C9    N1    S    
C57   H11   S    
C5    C20   S    
C54   H2    S    
C76   N20   T    
C53   H1    S    
O8    C4    A    
C61   H28   S    
C22   C30   A    
C46   C49   A    
C12   C19   A    
O9    C5    A    
C45   C50   A    
C59   H19   S    
C27   C43   A    
C50   H6    S    
N6    H29   S    
C33   C37   A    
C11   C20   A    
C26   C42   A    
C28   C76   S    
C49   H5    S    
C62   H30   S    
C14   N6    S    
C34   N9    S    
C51   H7    S    
O6    V2    S    
C16   N8    S    
C39   C47   A    
C68   H56   S    
C64   H38   S    
N4    H21   S    
C63   H34   S    
C59   H18   S    
C66   H48   S    
C23   C31   A    
N5    H25   S    
O16   V4    S    
C37   C45   A    
C24   C32   A    
C3    O13   A    
C35   N12   S    
C10   C14   A    
O17   V3    S    
C52   C56   A    
C4    C21   S    
N8    C64   S    
C6    C19   S    
C57   H12   S    
O6    C2    A    
C37   C41   A    
C65   H42   S    
N2    C58   S    
O11   V3    S    
O12   V4    S    
N9    H41   S    
C35   C39   A    
C36   C40   A    
O10   C6    A    
N11   C67   S    
C63   H36   S    
C47   C48   A    
C26   C30   A    
C69   N13   T    
N11   H49   S    
C44   C56   A    
C25   C73   S    
C65   H43   S    
C61   H26   S    
N7    H33   S    
C25   C29   A    
O20   V2    S    
C59   H20   S    
C27   C31   A    
C36   N11   S    
C67   H51   S    
C30   C69   S    
C13   C17   A    
C45   C46   A    
C62   H31   S    
C27   C75   S    
C23   C35   A    
C28   C32   A    
C16   C20   A    
C13   N5    S    
C1    C24   S    
N3    C59   S    
C50   C54   A    
C4    O14   A    
C2    C23   S    
C64   H39   S    
C49   C53   A    
C3    C22   S    
N1    H9    S    
C60   H22   S    
C51   C55   A    
C43   C55   A    
O4    V2    S    
N8    H37   S    
N5    C61   S    
