data_mof_unit_26020.cif
_audit_creation_date              2012-12-10T18:21:18-0500
_audit_creation_method            fapswitch 2.2
_symmetry_space_group_name_H-M    P1
_symmetry_Int_Tables_number       1
_space_group_crystal_system       triclinic
_cell_length_a                    9.447383
_cell_length_b                    10.603467
_cell_length_c                    17.187313
_cell_angle_alpha                 89.830884
_cell_angle_beta                  86.731958
_cell_angle_gamma                 88.448912
_cell_volume                      1718.30781891

loop_
_atom_site_label
_atom_site_type_symbol
_atom_type_description
_atom_site_fract_x
_atom_site_fract_y
_atom_site_fract_z
_atom_type_partial_charge
C1    C     C_R   0.498633 0.740505 0.499033 0.781450
C2    C     C_R   0.501368 0.259495 0.500960 0.781231
C3    C     C_3   0.376328 0.964748 0.472813 -0.153382
C4    C     C_3   0.623674 0.035253 0.527171 -0.153430
C5    C     C_3   0.487970 0.044583 0.427433 -0.170646
C6    C     C_3   0.512031 0.955419 0.572550 -0.170801
C7    C     C_3   0.503289 0.122451 0.501205 0.024376
C8    C     C_3   0.496713 0.877550 0.498779 0.024292
C9    C     C_3   0.391560 0.044869 0.546682 -0.154888
C10   C     C_3   0.608442 0.955132 0.453301 -0.154794
C11   C     C_3   0.957894 0.397030 0.471362 0.211272
C12   C     C_3   0.042105 0.602970 0.528639 0.211880
C13   C     C_3   0.049796 0.407500 0.541413 -0.077766
C14   C     C_3   0.950202 0.592498 0.458587 -0.078246
C15   C     C_3   0.058635 0.488916 0.429710 -0.078418
C16   C     C_3   0.941359 0.511083 0.570293 -0.078749
C17   C     C_R   0.482522 0.496368 0.649949 0.779092
C18   C     C_R   0.517487 0.503456 0.349984 0.782184
C19   C     C_R   0.476753 0.481318 0.734584 -0.022679
C20   C     C_R   0.523325 0.517593 0.265181 -0.026431
C21   C     C_R   0.596367 0.432018 0.770369 -0.195886
C22   C     C_R   0.650897 0.497028 0.220512 -0.212111
C23   C     C_R   0.593194 0.416595 0.850632 -0.207050
C24   C     C_R   0.653758 0.510939 0.139777 -0.198043
C25   C     C_R   0.471274 0.451745 0.895947 0.168290
C26   C     C_R   0.529676 0.546839 0.103730 0.202652
C27   C     C_R   0.350741 0.499307 0.860791 -0.175975
C28   C     C_R   0.403511 0.570650 0.148143 -0.170069
C29   C     C_R   0.352954 0.513054 0.780063 -0.213108
C30   C     C_R   0.400032 0.555550 0.228409 -0.209221
C31   C     C_2   0.475525 0.448972 0.980980 0.043806
C32   C     C_2   0.527695 0.549158 0.018500 0.050520
Cu1   Cu    Cu3+1 0.356850 0.500010 0.499980 0.917807
Cu2   Cu    Cu3+1 0.643150 0.499990 0.500020 0.917108
H1    H     H_    0.692447 0.405160 0.736340 0.143029
H2    H     H_    0.747268 0.468299 0.247735 0.146277
H3    H     H_    0.111538 0.479216 0.370631 0.112583
H4    H     H_    0.888420 0.520717 0.629374 0.114010
H5    H     H_    0.300732 0.573892 0.261594 0.144420
H6    H     H_    0.259606 0.550904 0.753465 0.142318
H7    H     H_    0.256703 0.528099 0.895969 0.131599
H8    H     H_    0.307387 0.598363 0.120338 0.126562
H9    H     H_    0.751381 0.491488 0.105249 0.129977
H10   H     H_    0.686872 0.380590 0.877759 0.124679
H11   H     H_    0.478584 0.084356 0.368065 0.122316
H12   H     H_    0.521417 0.915646 0.631919 0.122224
H13   H     H_    0.275608 0.934951 0.449387 0.129190
H14   H     H_    0.724392 0.065057 0.550595 0.129010
H15   H     H_    0.303228 0.084796 0.585154 0.128519
H16   H     H_    0.696775 0.915206 0.414829 0.128349
H17   H     H_    0.095990 0.329278 0.575729 0.115218
H18   H     H_    0.904007 0.670709 0.424262 0.114884
N1    N     N_3   0.141720 0.500030 0.499940 -0.173653
N2    N     N_3   0.858280 0.499970 0.500060 -0.173784
O1    O     O_R   0.379130 0.683150 0.499960 -0.598079
O2    O     O_R   0.620870 0.316850 0.500040 -0.598267
O3    O     O_R   0.620910 0.683140 0.500000 -0.584007
O4    O     O_R   0.379090 0.316860 0.500000 -0.584020
O5    O     O_R   0.365090 0.500030 0.613580 -0.586909
O6    O     O_R   0.634910 0.499970 0.386420 -0.588104
O7    O     O_R   0.606870 0.500020 0.613610 -0.587288
O8    O     O_R   0.393130 0.499980 0.386390 -0.586954
C33   C     C_3   0.911152 0.271972 0.438748 -0.387883
C34   C     C_3   0.038132 0.192037 0.405578 -0.389487
C35   C     C_3   0.991840 0.062241 0.380478 -0.879321
H19   H     H_    0.946811 0.009314 0.431553 0.252865
H20   H     H_    0.910965 0.071811 0.336233 0.256942
H21   H     H_    0.084857 0.007783 0.354633 0.240521
H22   H     H_    0.089179 0.240597 0.354355 0.220386
H23   H     H_    0.117780 0.179236 0.450356 0.231567
H24   H     H_    0.857958 0.218877 0.487076 0.210175
H25   H     H_    0.835984 0.290900 0.392424 0.214495
C36   C     C_3   0.088856 0.728045 0.561223 -0.387748
C37   C     C_3   0.961881 0.808029 0.594347 -0.389756
C38   C     C_3   0.008193 0.937843 0.619403 -0.879640
H26   H     H_    0.089069 0.928303 0.663650 0.256846
H27   H     H_    0.053229 0.990721 0.568310 0.252954
H28   H     H_    0.915186 0.992333 0.645232 0.240419
H29   H     H_    0.882256 0.820801 0.549554 0.231671
H30   H     H_    0.910802 0.759524 0.645581 0.220003
H31   H     H_    0.163999 0.709146 0.607564 0.213890
H32   H     H_    0.142076 0.781095 0.512884 0.210305
C39   C     C_3   0.578932 0.665440 0.973592 -0.402262
C40   C     C_3   0.625909 0.772864 0.024644 -0.845380
H33   H     H_    0.537352 0.804978 0.065766 0.255802
H34   H     H_    0.718307 0.742000 0.057748 0.252694
H35   H     H_    0.657935 0.853856 0.987142 0.236672
H36   H     H_    0.669805 0.637357 0.932868 0.206046
H37   H     H_    0.491812 0.703114 0.938630 0.210370
C41   C     C_3   0.429046 0.328183 0.021835 -0.389779
C42   C     C_3   0.267980 0.318156 0.025908 -0.846722
H38   H     H_    0.217117 0.401666 0.055937 0.244944
H39   H     H_    0.228620 0.311134 0.966472 0.250984
H40   H     H_    0.237243 0.232104 0.059004 0.240061
H41   H     H_    0.477120 0.245834 0.989212 0.198617
H42   H     H_    0.466364 0.320203 0.081728 0.210386

loop_
_geom_bond_atom_site_label_1
_geom_bond_atom_site_label_2
_ccdc_geom_bond_type
Cu1   O1    S    
Cu2   O2    S    
Cu1   O4    S    
C27   C29   A    
C1    C8    S    
C36   C37   S    
C2    C7    S    
C40   H35   S    
C6    C9    S    
C41   H41   S    
C20   C30   A    
C26   C32   S    
C39   C40   S    
C15   N1    S    
C19   C21   A    
C24   C26   A    
C11   C33   S    
C3    H13   S    
C15   H3    S    
C17   O7    A    
C13   H17   S    
C11   C15   S    
C14   H18   S    
C12   C16   S    
Cu1   O8    S    
C35   H20   S    
Cu2   O3    S    
C34   H23   S    
C12   N1    S    
C31   C41   S    
C39   H36   S    
Cu1   O5    S    
C37   H30   S    
C12   C36   S    
Cu2   O6    S    
C4    C7    S    
C36   H31   S    
C13   N1    S    
Cu1   N1    S    
C39   H37   S    
C37   C38   S    
C9    H15   S    
C40   H33   S    
C4    C6    S    
C3    C8    S    
C42   H38   S    
C5    C7    S    
C18   O8    A    
C6    C8    S    
C5    H11   S    
Cu2   O7    S    
C23   H10   S    
C38   H26   S    
C3    C9    S    
C1    O3    A    
C42   H39   S    
C27   H7    S    
C31   C32   D    
C35   H21   S    
Cu1   Cu2   S    
C34   H22   S    
C38   H27   S    
C33   H24   S    
C11   N2    S    
C17   O5    A    
C18   O6    A    
C14   N2    S    
C12   C14   S    
Cu2   N2    S    
C37   H29   S    
C21   C23   A    
C22   C24   A    
C4    C10   S    
C19   C29   A    
C36   H32   S    
C4    H14   S    
C7    C9    S    
C32   C39   S    
C6    H12   S    
C25   C31   S    
C20   C22   A    
C3    C5    S    
C2    O4    A    
C41   H42   S    
C21   H1    S    
C25   C27   A    
C22   H2    S    
C26   C28   A    
C34   C35   S    
C28   C30   A    
C1    O1    A    
C5    C10   S    
C2    O2    A    
C42   H40   S    
C11   C13   S    
C41   C42   S    
C29   H6    S    
C28   H8    S    
C17   C19   S    
C30   H5    S    
C18   C20   S    
C23   C25   A    
C38   H28   S    
C16   N2    S    
C33   C34   S    
C33   H25   S    
C8    C10   S    
C35   H19   S    
C13   C16   S    
C24   H9    S    
C14   C15   S    
C40   H34   S    
C16   H4    S    
C10   H16   S    
