data_mof_unit_39611.cif
_audit_creation_date              2012-12-10T18:04:29-0500
_audit_creation_method            fapswitch 2.2
_symmetry_space_group_name_H-M    P1
_symmetry_Int_Tables_number       1
_space_group_crystal_system       triclinic
_cell_length_a                    19.598273
_cell_length_b                    17.684577
_cell_length_c                    12.595656
_cell_angle_alpha                 89.936344
_cell_angle_beta                  98.818676
_cell_angle_gamma                 89.984671
_cell_volume                      4313.88281728

loop_
_atom_site_label
_atom_site_type_symbol
_atom_type_description
_atom_site_fract_x
_atom_site_fract_y
_atom_site_fract_z
_atom_type_partial_charge
C1    C     C_R   0.410633 0.102232 0.443748 0.851377
C2    C     C_R   0.409145 0.899526 0.442700 0.863483
C3    C     C_R   0.910633 0.602232 0.443748 0.851376
C4    C     C_R   0.909145 0.399526 0.442700 0.863483
C5    C     C_R   0.732700 0.236519 0.545452 0.078030
C6    C     C_R   0.727873 0.757687 0.543104 0.078539
C7    C     C_R   0.232700 0.736519 0.545452 0.078051
C8    C     C_R   0.227873 0.257687 0.543103 0.078538
C9    C     C_R   0.712912 0.295257 0.611168 0.180721
C10   C     C_R   0.765377 0.764450 0.648352 0.170474
C11   C     C_R   0.212910 0.795258 0.611164 0.180722
C12   C     C_R   0.265376 0.264448 0.648352 0.170475
C13   C     C_R   0.237285 0.868060 0.600079 -0.252466
C14   C     C_R   0.334021 0.242076 0.668030 -0.251623
C15   C     C_R   0.737287 0.368059 0.600084 -0.252464
C16   C     C_R   0.834023 0.742079 0.668029 -0.251623
C17   C     C_R   0.280188 0.882054 0.524634 -0.192370
C18   C     C_R   0.364822 0.214302 0.584230 -0.184127
C19   C     C_R   0.780189 0.382053 0.524637 -0.192369
C20   C     C_R   0.864822 0.714303 0.584229 -0.184126
C21   C     C_R   0.690271 0.173924 0.528619 -0.254674
C22   C     C_R   0.670832 0.803643 0.515833 -0.257831
C23   C     C_R   0.190273 0.673922 0.528622 -0.254689
C24   C     C_R   0.170832 0.303644 0.515833 -0.257831
C25   C     C_R   0.626312 0.214296 0.668355 -0.205119
C26   C     C_R   0.674010 0.840198 0.701637 -0.204041
C27   C     C_R   0.126309 0.714298 0.668351 -0.205118
C28   C     C_R   0.174008 0.340196 0.701637 -0.204041
C29   C     C_R   0.363671 0.835256 0.414116 -0.115842
C30   C     C_R   0.353564 0.153387 0.407599 -0.110410
C31   C     C_R   0.863671 0.335257 0.414115 -0.115842
C32   C     C_R   0.853564 0.653386 0.407598 -0.110409
C33   C     C_R   0.642456 0.999548 0.132007 -0.307617
C34   C     C_R   0.142456 0.499548 0.132007 -0.307617
C35   C     C_R   0.378991 0.001076 0.762734 0.038471
C36   C     C_R   0.878991 0.501076 0.762734 0.038472
C37   C     C_R   0.353302 0.001396 0.859284 -0.253890
C38   C     C_R   0.853302 0.501396 0.859284 -0.253891
C39   C     C_R   0.590276 0.899168 0.557184 0.867485
C40   C     C_R   0.589589 0.101592 0.556637 0.855329
C41   C     C_R   0.090276 0.399168 0.557184 0.867486
C42   C     C_R   0.089589 0.601591 0.556637 0.855333
C43   C     C_R   0.399228 0.000861 0.955058 -0.196665
C44   C     C_R   0.899228 0.500861 0.955058 -0.196664
C45   C     C_R   0.471399 0.000148 0.954053 0.016793
C46   C     C_R   0.971399 0.500148 0.954053 0.016793
C47   C     C_R   0.494752 0.999852 0.853503 0.231653
C48   C     C_R   0.994752 0.499852 0.853503 0.231653
C49   C     C_R   0.521100 0.999933 0.048081 -0.013485
C50   C     C_R   0.021100 0.499933 0.048081 -0.013485
C51   C     C_R   0.592755 0.999611 0.039824 0.196827
C52   C     C_R   0.092755 0.499611 0.039824 0.196827
C53   C     C_R   0.614080 0.999471 0.939749 -0.295887
C54   C     C_R   0.114080 0.499471 0.939749 -0.295888
C55   C     C_R   0.565574 0.999675 0.847880 -0.218416
C56   C     C_R   0.065574 0.499675 0.847880 -0.218415
C57   C     C_R   0.502765 0.000063 0.150866 -0.054823
C58   C     C_R   0.002765 0.500063 0.150866 -0.054823
C59   C     C_R   0.620755 0.999784 0.231349 0.010496
C60   C     C_R   0.120755 0.499784 0.231349 0.010497
C61   C     C_R   0.662988 0.281955 0.677660 -0.207085
C62   C     C_R   0.736030 0.801418 0.728781 -0.209244
C63   C     C_R   0.162984 0.781957 0.677654 -0.207083
C64   C     C_R   0.236028 0.301415 0.728781 -0.209244
C65   C     C_R   0.637435 0.162524 0.588661 -0.052396
C66   C     C_R   0.643970 0.844874 0.593481 -0.050720
C67   C     C_R   0.137434 0.662524 0.588661 -0.052402
C68   C     C_R   0.143970 0.344873 0.593481 -0.050720
C69   C     C_R   0.386681 0.777685 0.352512 -0.225575
C70   C     C_R   0.316545 0.142675 0.304811 -0.232447
C71   C     C_R   0.886680 0.277686 0.352509 -0.225579
C72   C     C_R   0.816544 0.642673 0.304812 -0.232448
C73   C     C_R   0.366830 0.703618 0.366661 -0.200010
C74   C     C_R   0.246588 0.159118 0.285039 -0.202870
C75   C     C_R   0.866827 0.203619 0.366656 -0.200002
C76   C     C_R   0.746587 0.659115 0.285041 -0.202869
C77   C     C_R   0.323134 0.685970 0.441589 0.174503
C78   C     C_R   0.212772 0.187448 0.367069 0.175011
C79   C     C_R   0.823132 0.185971 0.441585 0.174513
C80   C     C_R   0.712771 0.687446 0.367071 0.175011
C81   C     C_R   0.287441 0.746746 0.485728 0.061219
C82   C     C_R   0.254012 0.214703 0.463839 0.055850
C83   C     C_R   0.787440 0.246747 0.485727 0.061207
C84   C     C_R   0.754012 0.714702 0.463839 0.055851
C85   C     C_R   0.309471 0.821832 0.472837 0.061950
C86   C     C_R   0.324802 0.195513 0.484337 0.050554
C87   C     C_R   0.809470 0.321832 0.472837 0.061957
C88   C     C_R   0.824802 0.695513 0.484336 0.050554
H1    H     H_    0.585092 0.205979 0.715479 0.158507
H2    H     H_    0.653497 0.872160 0.762894 0.156544
H3    H     H_    0.085088 0.705983 0.715472 0.158506
H4    H     H_    0.153495 0.372157 0.762894 0.156545
H5    H     H_    0.668485 0.999266 0.932352 0.153355
H6    H     H_    0.168485 0.499266 0.932352 0.153356
H7    H     H_    0.697204 0.999357 0.127198 0.141344
H8    H     H_    0.197204 0.499356 0.127198 0.141344
H9    H     H_    0.450161 0.000176 0.165784 0.124058
H10   H     H_    0.950161 0.500176 0.165784 0.124058
H11   H     H_    0.343820 0.001934 0.687724 0.135982
H12   H     H_    0.843820 0.501934 0.687724 0.135981
H13   H     H_    0.376656 0.001245 0.027814 0.133767
H14   H     H_    0.876656 0.501245 0.027814 0.133766
H15   H     H_    0.298130 0.002169 0.859934 0.144793
H16   H     H_    0.798130 0.502169 0.859934 0.144793
H17   H     H_    0.585052 0.999827 0.773402 0.214149
H18   H     H_    0.085052 0.499827 0.773402 0.214149
H19   H     H_    0.219180 0.914961 0.643628 0.137757
H20   H     H_    0.365212 0.251456 0.745687 0.146937
H21   H     H_    0.719184 0.414959 0.643635 0.137757
H22   H     H_    0.865214 0.751460 0.745685 0.146936
H23   H     H_    0.649282 0.325458 0.731151 0.135983
H24   H     H_    0.763064 0.804518 0.810434 0.136913
H25   H     H_    0.149277 0.825462 0.731142 0.135982
H26   H     H_    0.263061 0.304513 0.810435 0.136913
H27   H     H_    0.692975 0.138536 0.459980 0.158397
H28   H     H_    0.652091 0.814409 0.432343 0.159863
H29   H     H_    0.192980 0.638530 0.459989 0.158403
H30   H     H_    0.152093 0.314411 0.432343 0.159863
H31   H     H_    0.427392 0.787999 0.304992 0.166839
H32   H     H_    0.338920 0.111746 0.244354 0.161405
H33   H     H_    0.927390 0.288000 0.304989 0.166839
H34   H     H_    0.838918 0.611744 0.244354 0.161404
H35   H     H_    0.392074 0.659332 0.327709 0.136528
H36   H     H_    0.217558 0.141505 0.208909 0.138108
H37   H     H_    0.892070 0.159334 0.327703 0.136528
H38   H     H_    0.717556 0.641500 0.208912 0.138108
H39   H     H_    0.292127 0.940511 0.509602 0.152235
H40   H     H_    0.420129 0.205378 0.599411 0.160484
H41   H     H_    0.792128 0.440510 0.509606 0.152234
H42   H     H_    0.920129 0.705379 0.599408 0.160482
H43   H     H_    0.658113 0.999773 0.304138 0.127685
H44   H     H_    0.158113 0.499773 0.304138 0.127685
N1    N     N_R   0.552340 0.000000 0.237260 -0.103008
N2    N     N_R   0.052340 0.500000 0.237260 -0.103008
N3    N     N_R   0.448170 0.000000 0.762060 -0.132598
N4    N     N_R   0.948170 0.500000 0.762060 -0.132598
O1    O     O_R   0.448200 0.076800 0.373930 -0.612028
O2    O     O_R   0.448200 0.923200 0.373930 -0.618534
O3    O     O_R   0.948200 0.576800 0.373930 -0.612027
O4    O     O_R   0.948200 0.423200 0.373930 -0.618535
O5    O     O_R   0.414750 0.076790 0.542400 -0.620332
O6    O     O_R   0.414750 0.923210 0.542400 -0.604915
O7    O     O_R   0.914750 0.576790 0.542400 -0.620332
O8    O     O_R   0.914750 0.423210 0.542400 -0.604915
O9    O     O_R   0.585240 0.923200 0.457600 -0.621834
O10   O     O_R   0.585240 0.076800 0.457600 -0.615241
O11   O     O_R   0.085240 0.423200 0.457600 -0.621835
O12   O     O_R   0.085240 0.576800 0.457600 -0.615239
O13   O     O_R   0.551780 0.923190 0.626070 -0.630967
O14   O     O_R   0.551780 0.076810 0.626070 -0.643402
O15   O     O_R   0.051780 0.423190 0.626070 -0.630968
O16   O     O_R   0.051780 0.576810 0.626070 -0.643402
Zn1   Zn    Zn3+2 0.522330 1.000000 0.387520 0.932598
Zn2   Zn    Zn3+2 0.022330 0.500000 0.387520 0.932599
Zn3   Zn    Zn3+2 0.477660 0.000000 0.612480 0.928435
Zn4   Zn    Zn3+2 0.977660 0.500000 0.612480 0.928435
C89   C     C_3   0.828096 0.105051 0.485129 -0.427118
C90   C     C_3   0.854053 0.102757 0.605899 -0.836337
H45   H     H_    0.903508 0.134183 0.624659 0.261163
H46   H     H_    0.815741 0.127601 0.652035 0.264650
H47   H     H_    0.863027 0.043136 0.632168 0.243498
H48   H     H_    0.779938 0.072298 0.465611 0.191309
H49   H     H_    0.865881 0.072023 0.446491 0.200255
C91   C     C_3   0.635025 0.672844 0.354550 -0.422574
C92   C     C_3   0.616109 0.622182 0.444080 -0.847094
H50   H     H_    0.646881 0.569158 0.449222 0.257136
H51   H     H_    0.625359 0.651361 0.522823 0.266234
H52   H     H_    0.560461 0.607321 0.426569 0.243796
H53   H     H_    0.603413 0.724726 0.347517 0.196436
H54   H     H_    0.617295 0.642710 0.277818 0.199700
C93   C     C_3   0.328099 0.605051 0.485135 -0.427107
C94   C     C_3   0.354041 0.602757 0.605911 -0.836368
H55   H     H_    0.403475 0.634216 0.624695 0.261177
H56   H     H_    0.315706 0.627564 0.652034 0.264650
H57   H     H_    0.363045 0.543140 0.632173 0.243499
H58   H     H_    0.279946 0.572293 0.465599 0.191303
H59   H     H_    0.365895 0.572027 0.446512 0.200259
C95   C     C_3   0.135026 0.172848 0.354546 -0.422573
C96   C     C_3   0.116108 0.122184 0.444073 -0.847098
H60   H     H_    0.146879 0.069159 0.449213 0.257136
H61   H     H_    0.125358 0.151361 0.522817 0.266233
H62   H     H_    0.060460 0.107325 0.426561 0.243797
H63   H     H_    0.103414 0.224730 0.347515 0.196437
H64   H     H_    0.117297 0.142715 0.277812 0.199701

loop_
_geom_bond_atom_site_label_1
_geom_bond_atom_site_label_2
_ccdc_geom_bond_type
C19   H41   S    
C74   H36   S    
C93   C94   S    
O8    Zn4   S    
C92   H50   S    
C76   H38   S    
C14   C18   A    
C91   H54   S    
C58   H10   S    
C21   H27   S    
C42   O12   A    
C60   H44   S    
C95   C96   S    
C16   H22   S    
C32   C72   A    
N2    Zn2   S    
C58   N2    A    
C15   C19   A    
C59   H43   S    
C5    C9    A    
C89   C90   S    
C55   H17   S    
C2    C29   S    
C9    C61   A    
C91   C92   S    
C28   C68   A    
C34   H8    S    
C19   C87   A    
N1    Zn1   S    
C12   C64   A    
C6    C22   A    
C36   N4    A    
C49   C57   A    
C45   C47   A    
C23   C67   A    
O11   Zn2   S    
C15   H21   S    
C80   C91   S    
C38   H16   S    
C90   H47   S    
C18   H40   S    
C90   H46   S    
C1    O5    A    
C22   C66   A    
O16   Zn4   S    
C70   H32   S    
C77   C93   S    
C49   C51   A    
C70   C74   A    
C50   C52   A    
C27   H3    S    
C45   C49   A    
O6    Zn3   S    
C30   C86   A    
C42   O16   A    
C89   H49   S    
C29   C85   A    
C95   H63   S    
C94   H57   S    
C72   C76   A    
C96   H62   S    
C72   H34   S    
C52   C54   A    
C31   C71   A    
C26   C62   A    
C3    O3    A    
C92   H51   S    
C34   C60   A    
C57   N1    A    
C91   H53   S    
C10   C62   A    
O12   Zn2   S    
C35   H11   S    
C33   H7    S    
C30   C70   A    
C94   H56   S    
C38   C44   A    
C41   C68   S    
C29   C69   A    
C53   C55   A    
C46   C48   A    
C71   C75   A    
C31   C87   A    
C53   H5    S    
C80   C84   A    
C2    O2    A    
C84   C88   A    
C3    O7    A    
C28   H4    S    
N3    Zn3   S    
C35   N3    A    
C37   H15   S    
C44   H14   S    
C17   H39   S    
C25   C61   A    
C44   C46   A    
O3    Zn2   S    
C73   H35   S    
C82   C86   A    
C59   N1    A    
C51   C53   A    
C5    C21   A    
C26   C66   A    
C23   H29   S    
C37   C43   A    
C7    C11   A    
C43   H13   S    
C79   C89   S    
C6    C84   A    
C4    O4    A    
C78   C82   A    
C41   O11   A    
C77   C81   A    
C16   C20   A    
C57   H9    S    
C39   O9    A    
C50   C58   A    
C40   O14   A    
C36   H12   S    
C18   C86   A    
O15   Zn4   S    
C69   C73   A    
C43   C45   A    
C56   H18   S    
C27   C63   A    
C28   C64   A    
O2    Zn1   S    
C7    C81   A    
C12   C14   A    
C92   H52   S    
O14   Zn3   S    
C90   H45   S    
C2    O6    A    
C39   C66   S    
C17   C85   A    
C26   H2    S    
C61   H23   S    
C60   N2    A    
C1    O1    A    
C94   H55   S    
C35   C37   A    
C47   C55   A    
C48   C56   A    
C46   C50   A    
O1    Zn1   S    
C21   C65   A    
C78   C95   S    
C22   H28   S    
C25   H1    S    
C48   N4    A    
O5    Zn3   S    
C76   C80   A    
C20   H42   S    
C54   C56   A    
C83   C87   A    
C4    O8    A    
C5    C83   A    
C41   O15   A    
C13   C17   A    
C33   C51   A    
C93   H58   S    
C39   O13   A    
C34   C52   A    
C40   O10   A    
C40   C65   S    
C36   C38   A    
O13   Zn3   S    
O9    Zn1   S    
C10   C16   A    
C79   C83   A    
C11   C13   A    
O7    Zn4   S    
C42   C67   S    
O10   Zn1   S    
C7    C23   A    
C20   C88   A    
C14   H20   S    
C1    C30   S    
C8    C24   A    
C69   H31   S    
C47   N3    A    
N4    Zn4   S    
C9    C15   A    
C3    C32   S    
C95   H64   S    
C54   H6    S    
C4    C31   S    
C27   C67   A    
C6    C10   A    
C24   C68   A    
C96   H60   S    
C63   H25   S    
C71   H33   S    
C8    C82   A    
C62   H24   S    
C64   H26   S    
C33   C59   A    
C74   C78   A    
C13   H19   S    
C25   C65   A    
C73   C77   A    
C93   H59   S    
C75   H37   S    
C24   H30   S    
C11   C63   A    
C75   C79   A    
C89   H48   S    
C81   C85   A    
C8    C12   A    
O4    Zn2   S    
C96   H61   S    
C32   C88   A    
