data_mof_unit_65789.cif
_audit_creation_date              2012-12-11T15:52:28-0500
_audit_creation_method            fapswitch 2.2
_symmetry_space_group_name_H-M    P1
_symmetry_Int_Tables_number       1
_space_group_crystal_system       triclinic
_cell_length_a                    11.890308
_cell_length_b                    11.292828
_cell_length_c                    18.579074
_cell_angle_alpha                 92.081959
_cell_angle_beta                  89.899295
_cell_angle_gamma                 120.680492
_cell_volume                      2143.68973049

loop_
_atom_site_label
_atom_site_type_symbol
_atom_type_description
_atom_site_fract_x
_atom_site_fract_y
_atom_site_fract_z
_atom_type_partial_charge
C1    C     C_R   0.522501 0.448164 0.144647 0.559242
C2    C     C_3   0.828746 0.550360 0.525609 -0.081357
C3    C     C_3   0.711254 0.021930 0.466482 -0.132455
C4    C     C_3   0.295255 0.450877 0.438931 -0.067802
C5    C     C_R   0.528109 0.465236 0.353819 0.548705
C6    C     C_R   0.548257 0.073151 0.354097 0.538490
C7    C     C_R   0.885129 0.454841 0.362870 0.558052
C8    C     C_R   0.455750 0.522045 0.645475 0.571467
C9    C     C_R   0.066291 0.535645 0.644603 0.556696
C10   C     C_R   0.475524 0.931405 0.646280 0.566213
C11   C     C_R   0.493317 0.993571 0.923569 -0.001930
C12   C     C_R   0.550831 0.068723 0.146615 0.544949
C13   C     C_R   0.990189 0.497040 0.917129 -0.030350
C14   C     C_R   0.502388 0.491303 0.917691 0.008139
C15   C     C_R   0.955885 0.493685 0.067181 -0.051410
C16   C     C_R   0.533311 0.014106 0.072663 -0.033574
C17   C     C_R   0.500985 0.463164 0.068237 -0.032221
C18   C     C_R   0.388621 0.934884 0.970502 0.069088
C19   C     C_R   0.008562 0.409058 0.960209 0.060012
C20   C     C_R   0.584245 0.602245 0.964340 0.047935
C21   C     C_R   0.985097 0.402761 0.032797 0.012115
C22   C     C_R   0.407955 0.950563 0.044046 0.064716
C23   C     C_R   0.923842 0.476090 0.143877 0.553350
C24   C     C_R   0.586043 0.586954 0.037639 0.046832
C25   C     C_R   0.643516 0.065661 0.024381 -0.030791
C26   C     C_R   0.933589 0.583897 0.023811 -0.002739
C27   C     C_R   0.418475 0.345854 0.021209 -0.030927
C28   C     C_R   0.931001 0.568187 0.947504 -0.023048
C29   C     C_R   0.618443 0.077863 0.951643 0.019013
C30   C     C_R   0.433052 0.358183 0.945504 -0.001293
C31   C     C_3   0.277525 0.790959 0.973590 -0.235271
C32   C     C_3   0.121611 0.387215 0.969391 -0.206066
C33   C     C_3   0.595578 0.739706 0.974327 -0.230782
C34   C     C_R   0.456814 0.518818 0.850752 0.566456
C35   C     C_3   0.095538 0.381280 0.049413 -0.235974
C36   C     C_3   0.300027 0.805772 0.054337 -0.274879
C37   C     C_3   0.595093 0.721349 0.054419 -0.255571
C38   C     C_R   0.487821 0.995675 0.576819 0.033277
C39   C     C_R   0.983473 0.439565 0.582438 0.055324
C40   C     C_R   0.506509 0.526177 0.572129 0.036888
C41   C     C_R   0.923624 0.442127 0.438630 0.070178
C42   C     C_R   0.518770 0.044210 0.428991 0.053494
C43   C     C_R   0.535485 0.548096 0.420657 0.041760
C44   C     C_R   0.602853 0.042113 0.543009 0.038770
C45   C     C_R   0.062804 0.542703 0.850931 0.503465
C46   C     C_R   0.863072 0.416359 0.566467 0.026794
C47   C     C_R   0.418527 0.452157 0.518373 -0.018431
C48   C     C_R   0.847838 0.441823 0.495568 -0.079663
C49   C     C_R   0.623585 0.079491 0.473634 0.000937
C50   C     C_R   0.429028 0.512987 0.455891 -0.021555
C51   C     C_R   0.391741 0.982906 0.457371 0.163460
C52   C     C_R   0.987891 0.367455 0.456030 0.147377
C53   C     C_R   0.648013 0.644949 0.465132 0.145723
C54   C     C_R   0.016730 0.362394 0.532238 0.168821
C55   C     C_R   0.381585 0.983023 0.534613 0.169387
C56   C     C_R   0.477559 0.933335 0.852036 0.552674
C57   C     C_R   0.631659 0.636633 0.545220 0.122752
C58   C     C_2   0.773199 0.074867 0.040686 0.572022
C59   C     C_2   0.943226 0.712663 0.054872 0.619104
C60   C     C_2   0.308460 0.215784 0.048907 0.653508
C61   C     C_2   0.875651 0.632740 0.899802 0.637845
C62   C     C_2   0.716574 0.180075 0.903874 0.624128
C63   C     C_2   0.367963 0.235794 0.894532 0.630022
C64   C     C_3   0.194447 0.907624 0.377439 -0.264594
C65   C     C_3   0.988934 0.186777 0.368791 -0.287992
C66   C     C_3   0.874629 0.856082 0.436682 -0.224512
C67   C     C_3   0.687033 0.983648 0.544547 -0.099751
C68   C     C_3   0.056932 0.211866 0.622106 -0.180126
C69   C     C_3   0.280740 0.059024 0.628477 -0.235231
C70   C     C_3   0.766904 0.720430 0.667350 -0.145524
C71   C     C_2   0.779405 0.060440 0.607386 0.582153
C72   C     C_2   0.665834 0.385484 0.614902 0.556292
C73   C     C_2   0.251437 0.226871 0.485769 0.526510
C74   C     C_2   0.957956 0.688420 0.525235 0.545765
C75   C     C_2   0.650912 0.898989 0.412144 0.566582
C76   C     C_2   0.268474 0.567662 0.450085 0.592761
C77   C     C_3   0.805557 0.489774 0.598947 -0.067731
C78   C     C_3   0.278430 0.369733 0.505600 -0.044439
Cr1   Cr    Cr6+3 0.769160 0.541570 0.250690 1.045788
Cr2   Cr    Cr6+3 0.458430 0.227590 0.250690 1.020608
Cr3   Cr    Cr6+3 0.772410 0.230840 0.250690 1.042883
Cr4   Cr    Cr6+3 0.541570 0.769160 0.749310 1.077713
Cr5   Cr    Cr6+3 0.227590 0.458430 0.749310 1.008668
Cr6   Cr    Cr6+3 0.230840 0.772410 0.749310 1.040388
H1    H     H_    0.298040 0.714782 0.946808 0.096013
H2    H     H_    0.175341 0.468311 0.081889 0.131267
H3    H     H_    0.334514 0.738563 0.074772 0.102493
H4    H     H_    0.507083 0.709309 0.081668 0.118749
H5    H     H_    0.628581 0.870535 0.550165 0.169664
H6    H     H_    0.861390 0.558090 0.645435 0.128654
H7    H     H_    0.237174 0.396457 0.550692 0.178325
H8    H     H_    0.741494 0.522980 0.496588 0.146866
H9    H     H_    0.808029 0.104863 0.454974 0.103143
H10   H     H_    0.272403 0.397057 0.385114 0.141918
H11   H     H_    0.890153 0.043567 0.106713 0.319128
H12   H     H_    0.217162 0.477583 0.955576 0.116678
H13   H     H_    0.871680 0.802346 0.120451 0.319902
H14   H     H_    0.149056 0.124857 0.110983 0.338692
H15   H     H_    0.819911 0.487231 0.818033 0.346274
H16   H     H_    0.857369 0.227246 0.830621 0.323725
H17   H     H_    0.201204 0.066709 0.858605 0.346261
H18   H     H_    0.319946 0.837687 0.374400 0.301752
H19   H     H_    0.238418 0.974736 0.331279 0.133407
H20   H     H_    0.111020 0.809498 0.355494 0.210055
H21   H     H_    0.155708 0.953155 0.415284 0.174826
H22   H     H_    0.084050 0.392653 0.358610 0.304741
H23   H     H_    0.507833 0.740419 0.954851 0.110660
H24   H     H_    0.893154 0.151172 0.342781 0.224644
H25   H     H_    0.054414 0.184883 0.326583 0.127999
H26   H     H_    0.982932 0.116349 0.408788 0.167060
H27   H     H_    0.802372 0.652922 0.403685 0.285656
H28   H     H_    0.898547 0.893452 0.381300 0.163175
H29   H     H_    0.966321 0.872146 0.457905 0.210274
H30   H     H_    0.850041 0.918478 0.471622 0.131368
H31   H     H_    0.971945 0.157581 0.519370 0.272618
H32   H     H_    0.029907 0.102285 0.621096 0.177800
H33   H     H_    0.016487 0.235311 0.670134 0.186735
H34   H     H_    0.057710 0.278242 0.071261 0.220204
H35   H     H_    0.159306 0.254286 0.627590 0.153431
H36   H     H_    0.196905 0.955114 0.531081 0.333729
H37   H     H_    0.267221 0.142858 0.610902 0.142582
H38   H     H_    0.377728 0.107580 0.655945 0.188918
H39   H     H_    0.206042 0.001554 0.669220 0.143969
H40   H     H_    0.802478 0.825207 0.570509 0.316985
H41   H     H_    0.871010 0.757907 0.677383 0.154647
H42   H     H_    0.710533 0.613500 0.684574 0.177886
H43   H     H_    0.748441 0.786839 0.704907 0.220271
H44   H     H_    0.819553 0.201307 0.689525 0.337947
H45   H     H_    0.219087 0.802021 0.085676 0.195993
H46   H     H_    0.485702 0.261134 0.574210 0.350847
H47   H     H_    0.327926 0.156346 0.413340 0.354123
H48   H     H_    0.049341 0.815823 0.609115 0.354292
H49   H     H_    0.485423 0.738533 0.371796 0.347158
H50   H     H_    0.258145 0.703601 0.519387 0.382106
H51   H     H_    0.687813 0.794571 0.082169 0.216470
H52   H     H_    0.185228 0.784123 0.956660 0.214005
H53   H     H_    0.101829 0.287140 0.944691 0.234170
H54   H     H_    0.690335 0.823805 0.954898 0.230249
N1    N     N_2   0.286350 0.879809 0.412642 -0.443242
N2    N     N_2   0.044920 0.325023 0.399526 -0.519254
N3    N     N_2   0.775059 0.712020 0.432732 -0.502831
N4    N     N_2   0.017427 0.241491 0.553800 -0.503520
N5    N     N_2   0.266737 0.966968 0.567435 -0.476843
N6    N     N_2   0.736602 0.735300 0.592640 -0.479455
O1    O     O_R   0.911480 0.572650 0.170990 -0.486136
O2    O     O_R   0.528970 0.640340 0.824320 -0.494295
O3    O     O_R   0.111370 0.471030 0.824320 -0.519795
O4    O     O_R   0.359660 0.888630 0.824320 -0.493205
O5    O     O_R   0.909980 0.572450 0.331530 -0.524023
O6    O     O_R   0.427550 0.337530 0.331530 -0.517839
O7    O     O_R   0.662470 0.090020 0.331530 -0.501186
O8    O     O_R   0.572450 0.909980 0.668470 -0.472633
O9    O     O_R   0.337530 0.427550 0.668470 -0.554033
O10   O     O_R   0.090020 0.662470 0.668470 -0.525134
O11   O     O_R   0.638950 0.528780 0.324500 -0.519907
O12   O     O_R   0.427350 0.338830 0.170990 -0.479322
O13   O     O_R   0.471220 0.110170 0.324500 -0.529234
O14   O     O_R   0.889830 0.361050 0.324500 -0.519054
O15   O     O_R   0.528780 0.638950 0.675500 -0.501885
O16   O     O_R   0.110170 0.471220 0.675500 -0.518588
O17   O     O_R   0.361050 0.889830 0.675500 -0.491190
O18   O     O_3   0.666667 0.333333 0.250560 -0.322517
O19   O     O_3   0.333333 0.666667 0.749440 -0.300038
O20   O     O_2   0.852242 0.102826 0.992805 -0.493746
O21   O     O_R   0.801818 0.036923 0.105782 -0.677627
O22   O     O_2   0.036819 0.824455 0.040465 -0.492928
O23   O     O_R   0.661170 0.088520 0.170990 -0.448143
O24   O     O_R   0.845617 0.708451 0.097963 -0.648958
O25   O     O_2   0.292494 0.104662 0.028459 -0.461562
O26   O     O_R   0.219566 0.219920 0.096562 -0.698867
O27   O     O_2   0.876983 0.737596 0.919659 -0.436607
O28   O     O_R   0.820856 0.575174 0.831605 -0.645535
O29   O     O_2   0.713442 0.284436 0.893799 -0.535580
O30   O     O_R   0.801369 0.151886 0.864662 -0.618028
O31   O     O_2   0.432484 0.220041 0.847945 -0.466181
O32   O     O_R   0.232979 0.144170 0.896723 -0.646074
O33   O     O_2   0.814355 0.998205 0.644576 -0.566282
O34   O     O_R   0.572650 0.911480 0.829010 -0.475876
O35   O     O_R   0.789667 0.181536 0.637153 -0.672321
O36   O     O_2   0.630284 0.361709 0.677189 -0.497165
O37   O     O_R   0.578482 0.313552 0.557857 -0.699182
O38   O     O_2   0.143026 0.126064 0.489326 -0.608857
O39   O     O_R   0.353600 0.212263 0.459670 -0.683217
O40   O     O_2   0.047693 0.704891 0.486818 -0.508954
O41   O     O_R   0.978821 0.794662 0.572752 -0.741459
O42   O     O_2   0.708785 0.900202 0.357515 -0.515131
O43   O     O_R   0.520691 0.796281 0.418281 -0.703522
O44   O     O_2   0.238497 0.610013 0.398486 -0.535556
O45   O     O_R   0.338830 0.427350 0.829010 -0.510247
O46   O     O_R   0.282556 0.630052 0.518643 -0.698429
O47   O     O_R   0.088520 0.661170 0.829010 -0.507219
O48   O     O_R   0.640340 0.528970 0.175680 -0.457630
O49   O     O_R   0.471030 0.111370 0.175680 -0.488931
O50   O     O_R   0.888630 0.359660 0.175680 -0.482833

loop_
_geom_bond_atom_site_label_1
_geom_bond_atom_site_label_2
_ccdc_geom_bond_type
C70   H43   S    
C44   C49   A    
C40   C47   A    
C11   C18   A    
C31   H1    S    
C66   H29   S    
C64   H19   S    
C12   O49   A    
C37   H4    S    
C33   H23   S    
C67   H5    S    
C58   O20   D    
C12   O23   A    
C3    C49   S    
C64   H21   S    
Cr1   O1    S    
C66   N3    S    
C56   O34   A    
Cr2   O6    S    
Cr2   O49   S    
C23   O1    A    
C60   O25   D    
C19   C21   A    
C72   O37   S    
C27   C60   S    
C59   O24   S    
C68   H35   S    
C73   O39   S    
C35   H2    S    
C39   C54   A    
C74   O40   D    
Cr4   O19   S    
C69   H39   S    
C62   O30   S    
C9    C39   S    
C51   C55   A    
Cr6   O47   S    
C4    C78   S    
Cr3   O18   S    
C71   O35   S    
C58   O21   S    
C15   C26   A    
C10   O8    A    
Cr3   O50   S    
C7    O5    A    
C65   N2    S    
Cr6   O10   S    
C45   O47   A    
C38   C55   A    
C12   C16   S    
C73   C78   S    
C37   H51   S    
C13   C28   A    
C68   N4    S    
C61   O27   D    
C3    C75   S    
C26   C59   S    
C65   H24   S    
C53   N3    S    
C2    C74   S    
C42   C51   A    
Cr1   O5    S    
C74   O41   S    
Cr4   O15   S    
C28   C61   S    
C70   H42   S    
C15   C23   S    
C5    C43   S    
H31   N4    S    
C18   C22   A    
C30   C63   S    
C27   C30   A    
H36   N5    S    
H47   O39   S    
C14   C30   A    
C66   H30   S    
C19   C32   S    
H11   O21   S    
Cr4   O2    S    
C52   C54   A    
Cr2   O12   S    
C47   C50   A    
Cr6   O4    S    
C36   H3    S    
C25   C29   A    
C46   C48   A    
C77   H6    S    
C17   C24   A    
C55   N5    S    
Cr5   O16   S    
C17   C27   A    
C32   C35   S    
C20   C24   A    
C63   O32   S    
C75   O43   S    
C7    O14   A    
H27   N3    S    
C13   C19   A    
H15   O28   S    
C9    O16   A    
C2    C48   S    
Cr3   O7    S    
C62   O29   D    
C43   C53   A    
C33   C37   S    
C5    O6    A    
C4    C50   S    
C56   O4    A    
C1    O12   A    
C38   C44   A    
C72   C77   S    
C14   C20   A    
C68   H33   S    
H22   N2    S    
C69   H37   S    
C33   H54   S    
Cr2   O18   S    
Cr4   O34   S    
C24   C37   S    
Cr3   O23   S    
H49   O43   S    
C3    H9    S    
H44   O35   S    
C2    H8    S    
C8    O9    A    
Cr6   O19   S    
C65   H25   S    
C59   O22   D    
C68   H32   S    
C39   C46   A    
Cr5   O3    S    
C6    O7    A    
C70   H41   S    
C54   N4    S    
C9    O10   A    
C10   O17   A    
Cr1   O48   S    
H16   O30   S    
C4    H10   S    
C75   O42   D    
C25   C58   S    
C20   C33   S    
Cr1   O18   S    
C40   C57   A    
C6    O13   A    
Cr5   O9    S    
C35   H34   S    
C16   C25   A    
C64   H20   S    
Cr5   O19   S    
C29   C62   S    
C16   C22   A    
Cr3   O14   S    
C41   C52   A    
C57   N6    S    
C32   H12   S    
C45   O3    A    
C26   C28   A    
Cr5   O45   S    
C34   O45   A    
C3    C67   S    
C31   H52   S    
C44   C67   S    
H46   O37   S    
C76   O44   D    
H48   O41   S    
C14   C34   S    
C46   C77   S    
C43   C50   A    
C63   O31   D    
C21   C35   S    
C78   H7    S    
C69   N5    S    
H13   O24   S    
C22   C36   S    
C70   N6    S    
C10   C38   S    
C60   O26   S    
H50   O46   S    
C32   H53   S    
C2    C77   S    
C5    O11   A    
C36   H45   S    
C13   C45   S    
C73   O38   D    
C34   O2    A    
C71   O33   D    
Cr2   O13   S    
C61   O28   S    
C69   H38   S    
C23   O50   A    
C52   N2    S    
C41   C48   A    
C53   C57   A    
C67   C71   S    
H18   N1    S    
C7    C41   S    
C65   H26   S    
C4    C76   S    
C76   O46   S    
C11   C56   S    
C42   C49   A    
Cr1   O11   S    
H14   O26   S    
C1    O48   A    
C15   C21   A    
C1    C17   S    
C11   C29   A    
C6    C42   S    
C72   O36   D    
C31   C36   S    
H40   N6    S    
H17   O32   S    
C18   C31   S    
C8    C40   S    
C47   C78   S    
C66   H28   S    
C8    O15   A    
Cr4   O8    S    
Cr6   O17   S    
C64   N1    S    
C51   N1    S    
