data_mof_unit_15564.cif
_audit_creation_date              2012-12-11T16:21:56-0500
_audit_creation_method            fapswitch 2.2
_symmetry_space_group_name_H-M    P1
_symmetry_Int_Tables_number       1
_space_group_crystal_system       triclinic
_cell_length_a                    13.50871
_cell_length_b                    14.027673
_cell_length_c                    30.030027
_cell_angle_alpha                 97.769674
_cell_angle_beta                  90.230927
_cell_angle_gamma                 118.699266
_cell_volume                      4930.07722033

loop_
_atom_site_label
_atom_site_type_symbol
_atom_type_description
_atom_site_fract_x
_atom_site_fract_y
_atom_site_fract_z
_atom_type_partial_charge
C1    C     C_R   0.722487 0.099629 0.568702 0.560511
C2    C     C_R   0.338140 0.647596 0.671194 0.033483
C3    C     C_R   0.249433 0.655992 0.651397 -0.108719
C4    C     C_R   0.260924 0.694596 0.610313 -0.113824
C5    C     C_R   0.218817 0.581466 0.820022 -0.132832
C6    C     C_R   0.204839 0.570696 0.864921 -0.134752
C7    C     C_R   0.406112 0.629642 0.878688 0.021277
C8    C     C_R   0.418967 0.635728 0.831764 0.045200
C9    C     C_R   0.323343 0.610368 0.803039 0.029904
C10   C     C_1   0.330306 0.618344 0.755909 -0.032949
C11   C     C_1   0.334235 0.628492 0.716837 -0.034975
C12   C     C_R   0.383522 0.788038 0.550849 0.555650
C13   C     C_R   0.295664 0.589905 0.894403 0.009705
C14   C     C_3   0.218201 0.165018 0.721507 -0.114189
C15   C     C_3   0.213279 0.080153 0.750942 -0.113758
C16   C     C_1   0.291432 0.202896 0.875027 0.010841
C17   C     C_1   0.360487 0.139044 0.612588 0.026773
C18   C     C_3   0.303765 0.260229 0.757570 -0.129903
C19   C     C_3   0.299397 0.175096 0.785997 0.020725
C20   C     C_3   0.403442 0.256204 0.733827 -0.061542
C21   C     C_3   0.317974 0.161230 0.698631 0.045343
C22   C     C_3   0.398561 0.171409 0.762910 -0.011567
C23   C     C_R   0.396918 0.119076 0.569353 0.577210
C24   C     C_3   0.313051 0.076216 0.727205 -0.068064
C25   C     C_1   0.294771 0.186490 0.834875 -0.029154
C26   C     C_1   0.336868 0.151104 0.650757 -0.013681
C27   C     C_3   0.901647 0.283773 0.732621 -0.168542
C28   C     C_3   0.805686 0.239594 0.764718 0.227026
C29   C     C_1   0.904732 0.207929 0.877190 0.055512
C30   C     C_1   0.778123 0.135572 0.612964 0.041783
C31   C     C_3   0.964139 0.234548 0.757228 -0.198268
C32   C     C_3   0.867265 0.191273 0.788875 -0.002465
C33   C     C_3   0.900053 0.124021 0.724185 -0.136258
C34   C     C_R   0.716909 0.093973 0.441749 0.539909
C35   C     C_3   0.837758 0.173325 0.700462 -0.043012
C36   C     C_3   0.804342 0.082521 0.756339 0.261778
C37   C     C_3   0.741960 0.130377 0.732277 0.290703
C38   C     C_1   0.883594 0.199640 0.837564 0.072016
C39   C     C_1   0.812273 0.157365 0.651947 0.017398
C40   C     C_3   0.255945 0.616693 0.258214 0.268867
C41   C     C_3   0.278305 0.705140 0.228604 -0.112116
C42   C     C_1   0.311634 0.609955 0.110886 -0.010932
C43   C     C_1   0.369777 0.740470 0.377791 0.046769
C44   C     C_3   0.324216 0.574339 0.229079 -0.080155
C45   C     C_R   0.382687 0.785054 0.424314 0.546131
C46   C     C_3   0.348693 0.664543 0.199914 0.002100
C47   C     C_3   0.432842 0.655941 0.259962 -0.121086
C48   C     C_3   0.362268 0.696365 0.288645 0.045711
C49   C     C_3   0.457336 0.745561 0.229838 -0.118453
C50   C     C_3   0.386898 0.786344 0.259389 -0.144116
C51   C     C_1   0.333310 0.640375 0.150799 -0.049402
C52   C     C_1   0.365542 0.715971 0.337693 0.035192
C53   C     C_R   0.358622 0.130582 0.400147 -0.023046
C54   C     C_R   0.384713 0.235735 0.390083 0.244812
C55   C     C_R   0.383740 0.250125 0.343975 0.297943
C56   C     C_R   0.395606 0.114871 0.443328 0.593623
C57   C     C_R   0.343204 0.155697 0.310343 0.007246
C58   C     C_R   0.304682 0.051440 0.321707 -0.180583
C59   C     C_R   0.313679 0.039027 0.366003 -0.180909
C60   C     C_R   0.242172 0.096606 0.148821 -0.121075
C61   C     C_R   0.231019 0.114677 0.105092 -0.120623
C62   C     C_R   0.418594 0.274711 0.116391 -0.130775
C63   C     C_R   0.429493 0.256342 0.160112 -0.099119
C64   C     C_R   0.339491 0.169936 0.176733 0.033161
C65   C     C_1   0.341557 0.164100 0.223627 0.040363
C66   C     C_1   0.342168 0.161354 0.263269 0.097406
C67   C     C_R   0.361916 0.726047 0.588859 0.031809
C68   C     C_R   0.316990 0.207036 0.089291 0.021567
C69   C     C_R   0.759970 0.125661 0.398058 -0.017778
C70   C     C_R   0.795143 0.062634 0.369033 -0.122341
C71   C     C_R   0.807768 0.076946 0.323877 -0.147408
C72   C     C_R   0.782948 0.152384 0.307214 0.030556
C73   C     C_R   0.751205 0.218497 0.336251 0.214527
C74   C     C_R   0.743172 0.206744 0.381634 -0.108811
C75   C     C_R   0.837013 0.276391 0.159578 -0.072428
C76   C     C_R   0.877709 0.293426 0.117060 -0.134208
C77   C     C_R   0.842420 0.104821 0.102421 -0.119232
C78   C     C_R   0.447626 0.710249 0.607603 -0.077703
C79   C     C_R   0.803506 0.088686 0.144976 -0.127753
C80   C     C_R   0.805556 0.175794 0.174215 0.045334
C81   C     C_1   0.792503 0.166463 0.220791 0.056080
C82   C     C_1   0.787372 0.159174 0.260106 0.074209
C83   C     C_R   0.885704 0.209098 0.089031 0.022658
C84   C     C_R   0.283047 0.233542 0.921587 0.551042
C85   C     C_R   0.266139 0.546925 0.937710 0.530213
C86   C     C_R   0.946485 0.222669 0.922627 0.545404
C87   C     C_R   0.293044 0.242991 0.048790 0.547401
C88   C     C_R   0.275516 0.558858 0.065055 0.545704
C89   C     C_R   0.435725 0.671320 0.648696 -0.087463
C90   C     C_R   0.952102 0.231816 0.049321 0.546203
Cr1   Cr    Cr6+3 0.583430 0.162610 0.509470 1.095300
Cr2   Cr    Cr6+3 0.584210 0.916680 0.495400 1.063926
Cr3   Cr    Cr6+3 0.332380 0.920740 0.495100 1.061813
Cr4   Cr    Cr6+3 0.086810 0.177030 0.983130 1.040629
Cr5   Cr    Cr6+3 0.337180 0.419300 0.994610 1.013677
Cr6   Cr    Cr6+3 0.084840 0.422330 0.995830 1.041027
H1    H     H_    0.120146 0.540994 0.875907 0.169064
H2    H     H_    0.145084 0.163273 0.703735 0.115739
H3    H     H_    0.316503 0.000135 0.713983 0.149328
H4    H     H_    0.471819 0.173941 0.780733 0.243714
H5    H     H_    0.480966 0.328953 0.726115 0.165542
H6    H     H_    0.299420 0.335838 0.770852 0.113580
H7    H     H_    0.941535 0.366687 0.722437 0.132137
H8    H     H_    0.937685 0.075306 0.707043 0.147054
H9    H     H_    0.146213 0.563627 0.797990 0.138787
H10   H     H_    0.055903 0.277552 0.768150 0.134450
H11   H     H_    0.214240 0.724613 0.215469 0.118980
H12   H     H_    0.412884 0.873641 0.272487 0.124075
H13   H     H_    0.540506 0.799009 0.217461 0.121314
H14   H     H_    0.496255 0.636244 0.273539 0.143091
H15   H     H_    0.297377 0.486712 0.216287 0.148409
H16   H     H_    0.152054 0.060809 0.084908 0.131761
H17   H     H_    0.172415 0.029308 0.161653 0.111645
H18   H     H_    0.273188 0.979513 0.295800 0.133932
H19   H     H_    0.173731 0.638022 0.668796 0.116198
H20   H     H_    0.292024 0.957821 0.373110 0.163956
H21   H     H_    0.505290 0.313055 0.181706 0.162081
H22   H     H_    0.486479 0.346075 0.105025 0.136605
H23   H     H_    0.909351 0.374116 0.107415 0.128403
H24   H     H_    0.836601 0.343500 0.181979 0.175533
H25   H     H_    0.715175 0.255639 0.403417 0.183533
H26   H     H_    0.807581 0.999049 0.380637 0.155356
H27   H     H_    0.193325 0.705515 0.596700 0.140546
H28   H     H_    0.778575 0.010388 0.156059 0.104430
H29   H     H_    0.845628 0.037547 0.081279 0.133736
H30   H     H_    0.832343 0.025917 0.301495 0.125617
H31   H     H_    0.526288 0.733512 0.591834 0.149484
H32   H     H_    0.504750 0.664974 0.663930 0.138962
H33   H     H_    0.135216 0.007865 0.758648 0.146522
O1    O     O_R   0.493980 0.188910 0.559650 -0.479082
O2    O     O_R   0.480180 0.824400 0.444640 -0.495869
O3    O     O_R   0.308310 0.808540 0.439800 -0.498654
O4    O     O_R   0.340740 0.020600 0.455570 -0.509663
O5    O     O_3   0.500010 0.000010 0.499990 -0.270572
O6    O     O_R   0.969650 0.150960 0.933380 -0.494943
O7    O     O_R   0.187740 0.180870 0.937580 -0.489274
O8    O     O_R   0.358510 0.327410 0.940870 -0.518088
O9    O     O_R   0.324180 0.507870 0.953930 -0.505407
O10   O     O_R   0.170560 0.527890 0.952050 -0.509863
O11   O     O_R   0.987620 0.318470 0.945550 -0.493869
O12   O     O_R   0.678640 0.153520 0.554450 -0.490151
O13   O     O_R   0.976400 0.159270 0.031530 -0.520711
O14   O     O_R   0.194000 0.188570 0.028560 -0.501939
O15   O     O_R   0.365260 0.335720 0.039020 -0.512659
O16   O     O_R   0.330440 0.515580 0.044910 -0.495649
O17   O     O_R   0.177310 0.536200 0.050190 -0.506491
O18   O     O_R   0.993870 0.326170 0.036530 -0.497955
O19   O     O_3   0.169610 0.339550 0.991190 -0.250574
O20   O     O_R   0.698130 0.004030 0.549500 -0.496334
O21   O     O_R   0.481060 0.827210 0.535360 -0.493903
O22   O     O_R   0.309260 0.811560 0.537660 -0.509756
O23   O     O_R   0.341620 0.023400 0.546290 -0.494668
O24   O     O_R   0.493030 0.185890 0.461780 -0.454425
O25   O     O_R   0.677760 0.150720 0.463730 -0.511548
O26   O     O_R   0.697180 0.001010 0.451640 -0.505310
S1    S     S_3+6 0.748749 0.319915 0.793348 0.031786
O27   O     O_2   0.666532 0.254911 0.825264 -0.235734
O28   O     O_2   0.843022 0.423301 0.819669 -0.294222
O29   O     O_3   0.682082 0.353081 0.755991 -0.509601
H34   H     H_    0.738029 0.386417 0.733844 0.339924
S2    S     S_3+6 0.594818 0.059363 0.713864 0.022632
O30   O     O_2   0.563767 0.136851 0.695627 -0.280847
O31   O     O_2   0.571457 0.965341 0.677133 -0.319622
O32   O     O_3   0.518341 0.011149 0.757579 -0.496943
H35   H     H_    0.452737 0.939662 0.744593 0.349605
S3    S     S_3+6 0.743575 0.950200 0.773274 0.023453
O33   O     O_2   0.835207 0.935645 0.794626 -0.268516
O34   O     O_2   0.658947 0.941113 0.807104 -0.279716
O35   O     O_3   0.680144 0.852145 0.728012 -0.516556
H36   H     H_    0.600396 0.836396 0.726365 0.365067
S4    S     S_3+6 0.121990 0.531939 0.277647 0.023895
O36   O     O_2   0.133871 0.461900 0.308671 -0.199749
O37   O     O_2   0.079294 0.603411 0.302663 -0.286970
O38   O     O_3   0.030453 0.450411 0.233448 -0.504858
H37   H     H_    0.033993 0.501222 0.212814 0.325558
S5    S     S_3+6 0.409255 0.343024 0.435264 0.081326
O39   O     O_2   0.356562 0.295584 0.476537 -0.296706
O40   O     O_2   0.534673 0.415017 0.446109 -0.220884
O41   O     O_3   0.352001 0.419099 0.421129 -0.447282
H38   H     H_    0.379303 0.482341 0.445893 0.364802
S6    S     S_3+6 0.433999 0.382733 0.327438 0.103003
O42   O     O_2   0.335218 0.403013 0.322357 -0.250397
O43   O     O_2   0.521933 0.472625 0.361600 -0.167228
O44   O     O_3   0.492975 0.388654 0.277948 -0.496733
H39   H     H_    0.496995 0.453985 0.267155 0.342878
S7    S     S_3+6 0.712527 0.309869 0.315958 0.043154
O45   O     O_2   0.615031 0.245809 0.280717 -0.259117
O46   O     O_2   0.678255 0.367880 0.353400 -0.227652
O47   O     O_3   0.822365 0.403427 0.292336 -0.437582
H40   H     H_    0.883353 0.441119 0.317044 0.392741
C91   C     C_3   0.531303 0.665896 0.811340 -0.239227
C92   C     C_3   0.533504 0.563472 0.787603 -0.426252
H41   H     H_    0.514031 0.502717 0.810906 0.164662
H42   H     H_    0.470728 0.524057 0.757884 0.144482
H43   H     H_    0.618813 0.587029 0.775773 0.190123
H44   H     H_    0.544806 0.721956 0.786577 0.211533
H45   H     H_    0.605157 0.712250 0.836315 0.180636
C93   C     C_3   0.508415 0.670447 0.912194 -0.268023
C94   C     C_3   0.554152 0.589230 0.910748 -0.391798
H46   H     H_    0.602045 0.603684 0.943343 0.142023
H47   H     H_    0.484285 0.503013 0.904788 0.199022
H48   H     H_    0.612927 0.600473 0.883863 0.154750
H49   H     H_    0.576332 0.752299 0.906519 0.152210
H50   H     H_    0.486983 0.686468 0.947059 0.151568

loop_
_geom_bond_atom_site_label_1
_geom_bond_atom_site_label_2
_ccdc_geom_bond_type
C8    C9    A    
C7    C13   A    
S3    O34   D    
C21   C26   S    
C33   H8    S    
O35   H36   S    
C14   C18   S    
Cr5   O16   S    
C57   C66   S    
S4    O36   D    
C49   C50   S    
Cr6   O10   S    
C73   S7    S    
C53   C59   A    
C7    C8    A    
C47   C49   S    
Cr1   O1    S    
C5    H9    S    
S6    O42   D    
C15   C19   S    
S4    O37   D    
C46   C49   S    
C17   C23   S    
Cr4   O14   S    
C32   C36   S    
C14   C21   S    
C37   S2    S    
O32   H35   S    
C35   C37   S    
Cr1   O24   S    
Cr3   O4    S    
O29   H34   S    
C18   H6    S    
C5    C6    A    
C63   H21   S    
C43   C52   T    
S6    O44   S    
C78   H31   S    
C8    C91   S    
C24   H3    S    
C16   C84   S    
C33   C36   S    
O44   H39   S    
C23   O23   A    
C18   C19   S    
C73   C74   A    
C54   S5    S    
C83   C90   S    
O38   H37   S    
C91   H44   S    
S5    O41   S    
C47   C48   S    
C59   H20   S    
C29   C38   T    
C94   H48   S    
Cr4   O7    S    
C88   O16   A    
C31   C33   S    
C71   H30   S    
C1    O20   A    
C70   C71   A    
C32   C38   S    
C87   O15   A    
Cr3   O3    S    
C75   C80   A    
C85   O10   A    
C18   C20   S    
C44   C47   S    
C86   O11   A    
C42   C51   T    
C48   C50   S    
Cr5   O15   S    
C50   H12   S    
C93   H49   S    
C12   O22   A    
C60   H17   S    
O47   H40   S    
C67   C78   A    
C56   O4    A    
C2    C11   S    
C76   C83   A    
S2    O31   D    
C44   C46   S    
C14   H2    S    
C34   O25   A    
C78   C89   A    
Cr4   O19   S    
Cr6   O19   S    
C12   C67   S    
Cr5   O8    S    
C76   H23   S    
C22   H4    S    
Cr5   O19   S    
C63   C64   A    
C27   C31   S    
C91   C92   S    
Cr4   O13   S    
C92   H43   S    
C12   O21   A    
C28   C32   S    
C19   C22   S    
S4    O38   S    
Cr1   O25   S    
Cr3   O5    S    
S6    O43   D    
C80   C81   S    
C20   H5    S    
C27   C35   S    
C58   C59   A    
C34   O26   A    
C46   C51   S    
C81   C82   T    
O41   H38   S    
C4    H27   S    
C60   C61   A    
C92   H42   S    
C2    C89   A    
C35   C39   S    
C75   C76   A    
C6    H1    S    
C5    C9    A    
C90   O18   A    
C70   H26   S    
C31   C32   S    
C15   H33   S    
C40   C44   S    
C41   C46   S    
C28   S1    S    
Cr2   O2    S    
C62   C63   A    
C36   S3    S    
Cr4   O6    S    
C55   S6    S    
C77   C79   A    
C69   C74   A    
C15   C24   S    
C43   C45   S    
C34   C69   S    
C29   C86   S    
C93   C94   S    
S3    O35   S    
C56   O24   A    
C40   C41   S    
C20   C22   S    
C84   O8    A    
C45   O2    A    
C55   C57   A    
Cr2   O21   S    
S3    O33   D    
C31   H10   S    
C22   C24   S    
Cr3   O22   S    
C42   C88   S    
C17   C26   T    
S7    O46   D    
C3    C4    A    
C41   C50   S    
Cr2   O20   S    
S2    O32   S    
C77   H29   S    
C49   H13   S    
C9    C10   S    
C53   C56   S    
C16   C25   T    
C40   C48   S    
Cr6   O18   S    
C54   C55   A    
C84   O7    A    
Cr5   O9    S    
C88   O17   A    
C41   H11   S    
S1    O29   S    
Cr2   O5    S    
C75   H24   S    
C91   H45   S    
C72   C73   A    
Cr6   O11   S    
C4    C67   A    
C53   C54   A    
C90   O13   A    
C47   H14   S    
Cr6   O17   S    
C79   H28   S    
C62   C68   A    
C60   C64   A    
C64   C65   S    
C27   H7    S    
C7    C93   S    
S5    O39   D    
C2    C3    A    
C71   C72   A    
S2    O30   D    
C92   H41   S    
C6    C13   A    
C93   H50   S    
C61   C68   A    
C57   C58   A    
Cr1   O5    S    
C28   C37   S    
S7    O47   S    
S1    O28   D    
C1    C30   S    
C33   C35   S    
C30   C39   T    
Cr2   O26   S    
C94   H46   S    
C69   C70   A    
C19   C25   S    
C62   H22   S    
C1    O12   A    
C10   C11   T    
C58   H18   S    
C79   C80   A    
C44   H15   S    
C86   O6    A    
C48   C52   S    
C74   H25   S    
S1    O27   D    
C20   C21   S    
C23   O1    A    
C45   O3    A    
C36   C37   S    
C65   C66   T    
C21   C24   S    
C13   C85   S    
C27   C28   S    
C94   H47   S    
C68   C87   S    
C77   C83   A    
C14   C15   S    
Cr3   O23   S    
C3    H19   S    
C87   O14   A    
S7    O45   D    
C61   H16   S    
C85   O9    A    
C40   S4    S    
C72   C82   S    
S5    O40   D    
Cr1   O12   S    
C89   H32   S    
