data_mof_unit_13938.cif
_audit_creation_date              2013-03-05T16:00:44-0500
_audit_creation_method            fapswitch 2.2
_symmetry_space_group_name_H-M    P1
_symmetry_Int_Tables_number       1
_space_group_crystal_system       triclinic
_cell_length_a                    21.101327
_cell_length_b                    21.274291
_cell_length_c                    13.992094
_cell_angle_alpha                 90.116415
_cell_angle_beta                  89.921768
_cell_angle_gamma                 89.953602
_cell_volume                      6281.2507727

loop_
_atom_site_label
_atom_site_type_symbol
_atom_site_description
_atom_site_fract_x
_atom_site_fract_y
_atom_site_fract_z
_atom_type_partial_charge
O1    O     O_R   0.066090 0.433930 0.580280 -0.624913
O2    O     O_R   0.933910 0.566070 0.419720 -0.633030
O3    O     O_R   0.933910 0.566070 0.580280 -0.626361
O4    O     O_R   0.066090 0.433930 0.419720 -0.625727
O5    O     O_R   0.933910 0.433930 0.419720 -0.628341
O6    O     O_R   0.066090 0.566070 0.580280 -0.623636
O7    O     O_R   0.066090 0.566070 0.419720 -0.626343
O8    O     O_R   0.933910 0.433930 0.580280 -0.623919
O9    O     O_R   0.566090 0.933930 0.580280 -0.630077
O10   O     O_R   0.433910 0.066070 0.419720 -0.623073
O11   O     O_R   0.433910 0.066070 0.580280 -0.624023
O12   O     O_R   0.566090 0.933930 0.419720 -0.624979
O13   O     O_R   0.433910 0.933930 0.419720 -0.625448
O14   O     O_R   0.566090 0.066070 0.580280 -0.630611
O15   O     O_R   0.566090 0.066070 0.419720 -0.626715
O16   O     O_R   0.433910 0.933930 0.580280 -0.628147
C1    C     C_R   0.086815 0.413415 0.499885 0.888030
C2    C     C_R   0.913423 0.586878 0.500089 0.891948
C3    C     C_R   0.913169 0.413308 0.499976 0.892250
C4    C     C_R   0.087023 0.586439 0.500039 0.888585
C5    C     C_R   0.586709 0.913253 0.499928 0.893359
C6    C     C_R   0.413209 0.086615 0.500050 0.887206
C7    C     C_R   0.412837 0.913709 0.499986 0.889445
C8    C     C_R   0.587288 0.086193 0.500086 0.890755
Zn1   Zn    Zn3+2 1.000000 0.500000 0.607200 0.948709
Zn2   Zn    Zn3+2 0.000000 0.500000 0.392800 0.946737
Zn3   Zn    Zn3+2 0.500000 0.000000 0.607200 0.945025
Zn4   Zn    Zn3+2 0.500000 0.000000 0.392800 0.947471
C9    C     C_R   0.141768 0.672425 0.419798 -0.236274
C10   C     C_R   0.850818 0.334439 0.414521 -0.222393
C11   C     C_R   0.855838 0.670068 0.417244 -0.235642
C12   C     C_R   0.137717 0.323504 0.423364 -0.240883
C13   C     C_R   0.651911 0.162788 0.586248 -0.242054
C14   C     C_R   0.356719 0.829034 0.580980 -0.235816
C15   C     C_R   0.363214 0.177473 0.575320 -0.235473
C16   C     C_R   0.645109 0.830812 0.583058 -0.238857
C17   C     C_R   0.134852 0.634313 0.500101 -0.088900
C18   C     C_R   0.865371 0.365288 0.499864 -0.099913
C19   C     C_R   0.866089 0.635239 0.500250 -0.090659
C20   C     C_R   0.134760 0.365754 0.499564 -0.078672
C21   C     C_R   0.636264 0.132955 0.500538 -0.088988
C22   C     C_R   0.364221 0.866628 0.500258 -0.086481
C23   C     C_R   0.365591 0.134609 0.499930 -0.085193
C24   C     C_R   0.634615 0.865454 0.499948 -0.089347
C25   C     C_R   0.172965 0.642239 0.580601 -0.217489
C26   C     C_R   0.834660 0.350146 0.585086 -0.218112
C27   C     C_R   0.831176 0.646357 0.583288 -0.219787
C28   C     C_R   0.177411 0.362708 0.575356 -0.216493
C29   C     C_R   0.667318 0.147657 0.415462 -0.219076
C30   C     C_R   0.325500 0.859356 0.420265 -0.217639
C31   C     C_R   0.323190 0.137865 0.423783 -0.216628
C32   C     C_R   0.670014 0.854868 0.417216 -0.219428
C33   C     C_R   0.218928 0.688570 0.581176 0.075488
C34   C     C_R   0.788800 0.303872 0.585673 0.074040
C35   C     C_R   0.785086 0.692484 0.583909 0.078550
C36   C     C_R   0.224388 0.317333 0.575017 0.083430
C37   C     C_R   0.713400 0.193759 0.414871 0.086493
C38   C     C_R   0.278624 0.813872 0.420441 0.081774
C39   C     C_R   0.276755 0.183794 0.423323 0.072200
C40   C     C_R   0.716539 0.809139 0.416825 0.081920
C41   C     C_R   0.225566 0.727982 0.500684 -0.007011
C42   C     C_R   0.773676 0.272568 0.499618 -0.008929
C43   C     C_R   0.774194 0.727765 0.500202 -0.003958
C44   C     C_R   0.227200 0.273690 0.499018 -0.000418
C45   C     C_R   0.727832 0.225719 0.500441 0.000712
C46   C     C_R   0.271660 0.774734 0.501118 -0.001815
C47   C     C_R   0.273951 0.227476 0.499269 -0.008536
C48   C     C_R   0.727479 0.773890 0.500530 -0.002726
C49   C     C_R   0.186193 0.720420 0.419738 0.024276
C50   C     C_R   0.805067 0.287656 0.413184 0.033552
C51   C     C_R   0.809817 0.716577 0.416110 0.025580
C52   C     C_R   0.183100 0.276229 0.423016 0.005390
C53   C     C_R   0.697160 0.209944 0.587125 0.016944
C54   C     C_R   0.311224 0.782064 0.581845 0.014522
C55   C     C_R   0.318209 0.225096 0.575064 0.022593
C56   C     C_R   0.691671 0.784873 0.584500 0.021289
C57   C     C_R   0.258200 0.695891 0.660893 -0.313852
C58   C     C_R   0.758615 0.288083 0.671336 -0.312385
C59   C     C_R   0.749598 0.703331 0.666765 -0.324734
C60   C     C_R   0.268721 0.315456 0.649063 -0.334289
C61   C     C_R   0.745232 0.207796 0.329959 -0.348305
C62   C     C_R   0.239009 0.806879 0.341093 -0.334219
C63   C     C_R   0.233213 0.186442 0.348234 -0.307223
C64   C     C_R   0.752212 0.798477 0.334094 -0.329925
C65   C     C_R   0.790573 0.255975 0.327372 0.474598
C66   C     C_R   0.191559 0.761177 0.340997 0.486391
C67   C     C_R   0.185319 0.231486 0.348567 0.484969
C68   C     C_R   0.798282 0.751398 0.332480 0.451165
C69   C     C_R   0.305113 0.741875 0.661199 0.462397
C70   C     C_R   0.712348 0.241548 0.672652 0.458495
C71   C     C_R   0.703364 0.750128 0.668164 0.455890
C72   C     C_R   0.317171 0.270728 0.648036 0.490657
H1    H     H_    0.111556 0.665216 0.358211 0.196784
H2    H     H_    0.875545 0.346819 0.349291 0.204903
H3    H     H_    0.883857 0.660838 0.353727 0.197585
H4    H     H_    0.103792 0.327051 0.365519 0.185845
H5    H     H_    0.628011 0.149829 0.651888 0.193469
H6    H     H_    0.387425 0.835686 0.642207 0.193086
H7    H     H_    0.397262 0.174101 0.633024 0.193676
H8    H     H_    0.616784 0.839662 0.646388 0.197293
H9    H     H_    0.167402 0.611799 0.642177 0.150087
H10   H     H_    0.846267 0.374466 0.651003 0.157020
H11   H     H_    0.839415 0.618691 0.647155 0.151147
H12   H     H_    0.174766 0.396497 0.633452 0.143554
H13   H     H_    0.655680 0.123228 0.349645 0.154144
H14   H     H_    0.331409 0.889540 0.358473 0.147957
H15   H     H_    0.325696 0.103916 0.365891 0.145263
H16   H     H_    0.661658 0.882490 0.353341 0.152737
H17   H     H_    0.252835 0.665761 0.722774 0.162503
H18   H     H_    0.771252 0.311399 0.737605 0.159349
H19   H     H_    0.757548 0.675468 0.730451 0.158714
H20   H     H_    0.266253 0.349042 0.707345 0.154973
H21   H     H_    0.735018 0.180684 0.266269 0.151833
H22   H     H_    0.244843 0.836713 0.278968 0.156874
H23   H     H_    0.235940 0.153180 0.289564 0.158910
H24   H     H_    0.744434 0.826691 0.270738 0.155999
C73   C     C_R   0.943878 0.505068 0.798188 -0.064743
C74   C     C_R   0.056112 0.495214 0.201795 -0.047983
C75   C     C_R   0.056119 0.495252 0.797946 -0.053049
C76   C     C_R   0.943890 0.505159 0.202086 -0.067477
C77   C     C_R   0.443719 0.998210 0.798182 -0.052703
C78   C     C_R   0.556327 0.001578 0.201834 -0.065771
C79   C     C_R   0.556320 0.001670 0.797926 -0.068697
C80   C     C_R   0.443712 0.998286 0.202035 -0.054338
N1    N     N_R   1.000000 0.500000 0.750030 -0.102190
N2    N     N_R   1.000000 0.500000 0.249970 -0.106339
N3    N     N_R   0.500000 0.000000 0.750030 -0.107181
N4    N     N_R   0.500000 0.000000 0.249970 -0.102098
C81   C     C_R   0.057468 0.495239 0.898639 0.015013
C82   C     C_R   0.942527 0.505499 0.101392 0.017171
C83   C     C_R   0.942515 0.505447 0.898907 0.019460
C84   C     C_R   0.057467 0.495233 0.101100 0.014210
C85   C     C_R   0.557709 0.001672 0.898622 0.015239
C86   C     C_R   0.442373 0.998136 0.101337 0.015038
C87   C     C_R   0.442376 0.998090 0.898875 0.012952
C88   C     C_R   0.557722 0.001589 0.101111 0.017219
C89   C     C_R   0.999990 0.500375 0.949379 0.086887
C90   C     C_R   0.999993 0.500390 0.050640 0.084900
C91   C     C_R   0.500051 0.999849 0.949354 0.082608
C92   C     C_R   0.500053 0.999846 0.050618 0.086317
C93   C     C_R   0.114618 0.490222 0.949537 -0.202375
C94   C     C_R   0.885393 0.510710 0.050506 -0.204617
C95   C     C_R   0.885381 0.510698 0.950101 -0.214913
C96   C     C_R   0.114616 0.490211 0.049930 -0.186514
C97   C     C_R   0.615044 0.003497 0.949530 -0.201414
C98   C     C_R   0.385037 0.996345 0.050416 -0.204371
C99   C     C_R   0.385040 0.996306 0.950024 -0.188653
C100  C     C_R   0.615064 0.003367 0.049935 -0.214597
H25   H     H_    0.900259 0.508812 0.757919 0.125469
H26   H     H_    0.099728 0.491394 0.242042 0.139661
H27   H     H_    0.099746 0.491483 0.757496 0.123670
H28   H     H_    0.900277 0.508980 0.242549 0.134425
H29   H     H_    0.399961 0.996889 0.757909 0.140473
H30   H     H_    0.600081 0.002855 0.242133 0.126141
H31   H     H_    0.600069 0.003003 0.757459 0.138267
H32   H     H_    0.399945 0.997030 0.242480 0.123273
H33   H     H_    0.159287 0.486253 0.911731 0.138572
H34   H     H_    0.840747 0.514768 0.088338 0.139018
H35   H     H_    0.840713 0.514802 0.912537 0.139156
H36   H     H_    0.159284 0.486232 0.087522 0.146706
H37   H     H_    0.659846 0.005000 0.911717 0.142992
H38   H     H_    0.340217 0.994987 0.088205 0.138332
H39   H     H_    0.340222 0.994919 0.912415 0.147212
H40   H     H_    0.659897 0.004683 0.087513 0.141700
O17   O     O_3   0.826281 0.268746 0.245777 -0.657724
C101  C     C_3   0.789378 0.271298 0.161328 0.076957
H41   H     H_    0.800830 0.316028 0.124285 0.158362
H42   H     H_    0.737163 0.272523 0.173853 0.124164
C102  C     C_3   0.807825 0.216775 0.095220 -0.351082
H43   H     H_    0.857766 0.222925 0.071654 0.231014
H44   H     H_    0.804545 0.171516 0.134334 0.221052
C103  C     C_3   0.765019 0.213686 0.007598 -0.926642
H45   H     H_    0.715605 0.203348 0.029900 0.254122
H46   H     H_    0.781394 0.175525 0.959245 0.278900
H47   H     H_    0.766289 0.258867 0.967955 0.267921
O18   O     O_3   0.154086 0.752804 0.260694 -0.646054
C104  C     C_3   0.108190 0.801303 0.254673 0.068425
H48   H     H_    0.098273 0.809269 0.177684 0.175432
H49   H     H_    0.124645 0.847306 0.284005 0.122242
C105  C     C_3   0.046475 0.781220 0.303896 -0.377935
H50   H     H_    0.030888 0.735094 0.274811 0.238156
H51   H     H_    0.054762 0.776069 0.381885 0.216477
C106  C     C_3   0.993775 0.829285 0.288514 -0.894293
H52   H     H_    0.007922 0.875751 0.317854 0.252872
H53   H     H_    0.950111 0.813470 0.325771 0.287510
H54   H     H_    0.983204 0.834080 0.211118 0.264688
O19   O     O_3   0.143398 0.233629 0.272615 -0.645118
C107  C     C_3   0.086380 0.202517 0.297468 0.072696
H55   H     H_    0.047078 0.226804 0.259762 0.178513
H56   H     H_    0.074826 0.205043 0.375339 0.123942
C108  C     C_3   0.088254 0.133860 0.264354 -0.357504
H57   H     H_    0.100100 0.131921 0.186974 0.236706
H58   H     H_    0.125411 0.108040 0.304490 0.210618
C109  C     C_3   0.024649 0.101504 0.280779 -0.940206
H59   H     H_    0.012274 0.102178 0.357972 0.266795
H60   H     H_    0.027611 0.051844 0.256577 0.261281
H61   H     H_    0.986719 0.125500 0.239640 0.270148
O20   O     O_3   0.835136 0.742254 0.251635 -0.653896
C110  C     C_3   0.798378 0.712181 0.180715 0.059492
H62   H     H_    0.760756 0.744422 0.154072 0.146912
H63   H     H_    0.776066 0.668502 0.209233 0.134300
C111  C     C_3   0.841363 0.694145 0.097015 -0.301850
H64   H     H_    0.865442 0.736902 0.069416 0.227956
H65   H     H_    0.878205 0.660622 0.122120 0.226966
C112  C     C_3   0.803773 0.663788 0.016037 -0.987462
H66   H     H_    0.779936 0.620408 0.041569 0.262489
H67   H     H_    0.836372 0.651113 0.956668 0.271390
H68   H     H_    0.767528 0.697000 0.988443 0.263941
O21   O     O_3   0.342601 0.749505 0.741388 -0.639927
C113  C     C_3   0.398012 0.712811 0.730494 0.052471
H69   H     H_    0.419961 0.719079 0.658475 0.134518
H70   H     H_    0.386442 0.662222 0.740898 0.145111
C114  C     C_3   0.446360 0.733108 0.805738 -0.330547
H71   H     H_    0.455675 0.784325 0.798543 0.228604
H72   H     H_    0.426736 0.724326 0.878254 0.230451
C115  C     C_3   0.508791 0.697531 0.794616 -0.913696
H73   H     H_    0.500852 0.646155 0.801913 0.254136
H74   H     H_    0.542405 0.712916 0.850963 0.273294
H75   H     H_    0.530288 0.707395 0.723685 0.282303
O22   O     O_3   0.686815 0.223219 0.759286 -0.644930
C116  C     C_3   0.631585 0.258835 0.777204 0.047079
H76   H     H_    0.595572 0.250328 0.720526 0.150746
H77   H     H_    0.642746 0.310021 0.780251 0.137800
C117  C     C_3   0.603994 0.238873 0.873532 -0.309481
H78   H     H_    0.598815 0.186866 0.875331 0.237301
H79   H     H_    0.636970 0.253212 0.931319 0.218859
C118  C     C_3   0.539466 0.268862 0.891958 -0.967406
H80   H     H_    0.542746 0.320876 0.887425 0.257022
H81   H     H_    0.522694 0.255950 0.964553 0.271100
H82   H     H_    0.504493 0.251398 0.839091 0.278786
O23   O     O_3   0.666667 0.758801 0.749184 -0.654046
C119  C     C_3   0.701117 0.795463 0.815372 0.059293
H83   H     H_    0.714600 0.841528 0.783259 0.138949
H84   H     H_    0.744709 0.770207 0.838753 0.144579
C120  C     C_3   0.659576 0.807886 0.902981 -0.314854
H85   H     H_    0.616044 0.833490 0.880780 0.229807
H86   H     H_    0.645226 0.762328 0.935241 0.220669
C121  C     C_3   0.694606 0.846784 0.977890 -0.976352
H87   H     H_    0.737501 0.821345 0.002887 0.261114
H88   H     H_    0.663007 0.855328 0.040134 0.269764
H89   H     H_    0.708939 0.892856 0.947544 0.266078
O24   O     O_3   0.361307 0.269199 0.721266 -0.648903
C122  C     C_3   0.404323 0.319941 0.711607 0.069277
H90   H     H_    0.424651 0.329487 0.783332 0.176195
H91   H     H_    0.381188 0.364573 0.688669 0.125962
C123  C     C_3   0.458447 0.302824 0.642905 -0.372018
H92   H     H_    0.480612 0.257923 0.665709 0.221047
H93   H     H_    0.439354 0.296373 0.569584 0.221011
C124  C     C_3   0.508970 0.354061 0.640408 -0.972758
H94   H     H_    0.488210 0.398925 0.614671 0.269503
H95   H     H_    0.547711 0.339834 0.591082 0.264695
H96   H     H_    0.529328 0.361371 0.712709 0.259988

loop_
_geom_bond_atom_site_label_1
_geom_bond_atom_site_label_2
_geom_bond_distance
_ccdc_geom_bond_type
C84   C96   1.405491 A    
C109  H60   1.110455 S    
C123  H93   1.110986 S    
O17   C101  1.417132 S    
C8    C21   1.435066 S    
O2    C2    1.282097 A    
C78   H30   1.082819 S    
C102  H43   1.111683 S    
C63   C67   1.392146 A    
C14   C22   1.394205 A    
C115  H75   1.111117 S    
C73   H25   1.082802 S    
C88   C92   1.408427 A    
C44   C52   1.415147 A    
C23   C31   1.394035 A    
C117  H78   1.112217 S    
C97   C100  1.404887 A    
C111  H65   1.112331 S    
C47   C55   1.415035 A    
C29   C37   1.381713 A    
C12   C52   1.388166 A    
C79   H31   1.082751 S    
C114  H71   1.112092 S    
O10   C6    1.281232 A    
C87   C91   1.408462 A    
C98   H38   1.083344 S    
C121  H89   1.110983 S    
C15   C55   1.388082 A    
C124  H94   1.110738 S    
O7    Zn2   2.016158 S    
C77   H29   1.082714 S    
C32   C40   1.381547 A    
C79   C85   1.409285 A    
C107  C108  1.531911 S    
C76   C82   1.409276 A    
C13   C53   1.385561 A    
C54   C69   1.408587 A    
C27   C35   1.381071 A    
C39   C63   1.397871 A    
C53   C70   1.408898 A    
C77   N3    1.365208 A    
C116  C117  1.528578 S    
C38   C62   1.398435 A    
C113  H69   1.116750 S    
C86   C92   1.408607 A    
C76   N2    1.365672 A    
C114  C115  1.526405 S    
C109  H61   1.111009 S    
C81   C93   1.405467 A    
C84   C90   1.408481 A    
C122  H90   1.110361 S    
C46   C54   1.413943 A    
C45   C53   1.415095 A    
O13   C7    1.282593 A    
O3    C2    1.282512 A    
C107  H56   1.117379 S    
Zn2   N2    1.998492 S    
C68   O20   1.385159 S    
C43   C51   1.415026 A    
C74   H26   1.082711 S    
C2    C19   1.433341 S    
Zn1   N1    1.998491 S    
C16   C56   1.385462 A    
C39   C47   1.411394 A    
C121  H87   1.111458 S    
C33   C41   1.412325 A    
C41   C46   1.391723 A    
C38   C46   1.411642 A    
C118  H80   1.110713 S    
C105  H51   1.111008 S    
C104  H49   1.116307 S    
C111  C112  1.526555 S    
C35   C43   1.411388 A    
C110  C111  1.528468 S    
C73   N1    1.365813 A    
C120  H85   1.112496 S    
C36   C44   1.411420 A    
O13   Zn4   2.016516 S    
O20   C110  1.412779 S    
O14   Zn3   2.016513 S    
C96   H36   1.083346 S    
C15   C23   1.393801 A    
C70   O22   1.382843 S    
C105  C106  1.525871 S    
C80   N4    1.365318 A    
C10   H2    1.083767 S    
C104  C105  1.533761 S    
O16   Zn3   2.016161 S    
C114  H72   1.111593 S    
C109  H59   1.110918 S    
C25   C33   1.383398 A    
C110  H62   1.113829 S    
C64   H24   1.084195 S    
O1    Zn1   2.013872 S    
O8    Zn1   2.016161 S    
C120  H86   1.112070 S    
C42   C50   1.415679 A    
C26   C34   1.381028 A    
Zn3   N3    1.998491 S    
O14   C8    1.281921 A    
C94   H34   1.083297 S    
C15   H7    1.083963 S    
C21   C29   1.394267 A    
O22   C116  1.411437 S    
C10   C50   1.387250 A    
C103  H46   1.110352 S    
O21   C113  1.413268 S    
C31   C39   1.383236 A    
C9    C49   1.386678 A    
C112  H67   1.110481 S    
C75   H27   1.082829 S    
C86   C98   1.405412 A    
C121  H88   1.110727 S    
O4    Zn2   2.015651 S    
C76   H28   1.082746 S    
O8    C3    1.283048 A    
C124  H95   1.110593 S    
C111  H64   1.111912 S    
C108  H57   1.111545 S    
C100  H40   1.083311 S    
C44   C47   1.392219 A    
C63   H23   1.084158 S    
O3    Zn1   2.015652 S    
C101  H42   1.115701 S    
C27   H11   1.085189 S    
C115  H73   1.110767 S    
C62   H22   1.084275 S    
O2    Zn2   2.013872 S    
C106  H54   1.110845 S    
C16   H8    1.084252 S    
C93   C96   1.404703 A    
C67   O19   1.384442 S    
C34   C42   1.411849 A    
C122  H91   1.115283 S    
C112  H66   1.110828 S    
O12   C5    1.282712 A    
O7    C4    1.282804 A    
C119  C120  1.528488 S    
C58   C70   1.391115 A    
O5    Zn2   2.016516 S    
C71   O23   1.383953 S    
C107  H55   1.111163 S    
C1    C20   1.431777 S    
C30   C38   1.384285 A    
C60   C72   1.396148 A    
C33   C57   1.398972 A    
C106  H52   1.110860 S    
C108  H58   1.110669 S    
C116  H76   1.113760 S    
C83   C89   1.408436 A    
C3    C18   1.436168 S    
C75   C81   1.409241 A    
C5    C24   1.433275 S    
C35   C59   1.397960 A    
C79   N3    1.365605 A    
C6    C23   1.431960 S    
O11   Zn3   2.015652 S    
C122  C123  1.534900 S    
C57   C69   1.392322 A    
C60   H20   1.084302 S    
C119  H84   1.114720 S    
O24   C122  1.417509 S    
C58   H18   1.084416 S    
C77   C87   1.409167 A    
C57   H17   1.084212 S    
C7    C22   1.434331 S    
C78   C88   1.409591 A    
C13   C21   1.395846 A    
C88   C100  1.405734 A    
C25   H9    1.085163 S    
C55   C72   1.407585 A    
C14   C54   1.386300 A    
O4    C1    1.281756 A    
C75   N1    1.365373 A    
C93   H33   1.083387 S    
O18   C104  1.417244 S    
C118  H81   1.110310 S    
C22   C30   1.395098 A    
C85   C91   1.408366 A    
O16   C7    1.282465 A    
C87   C99   1.405418 A    
C80   H32   1.082849 S    
C101  H41   1.111146 S    
C120  C121  1.526218 S    
C37   C61   1.396969 A    
C16   C24   1.395842 A    
C85   C97   1.405323 A    
C17   C25   1.394934 A    
C82   C90   1.408407 A    
C117  C118  1.524626 S    
C52   C67   1.410369 A    
C83   C95   1.405756 A    
C103  H45   1.110287 S    
O9    Zn3   2.013872 S    
C19   C27   1.394592 A    
C98   C99   1.404700 A    
C102  H44   1.110640 S    
C112  H68   1.110987 S    
O10   Zn4   2.013872 S    
C28   C36   1.383077 A    
C123  H92   1.110833 S    
O15   C8    1.283566 A    
C124  H96   1.110321 S    
C42   C45   1.389555 A    
C12   H4    1.083972 S    
C59   C71   1.393434 A    
C64   C68   1.395338 A    
C37   C45   1.409466 A    
C115  H74   1.110264 S    
C117  H79   1.109909 S    
C24   C32   1.394646 A    
C29   H13   1.085074 S    
C91   C92   1.416883 A    
C103  H47   1.111074 S    
C95   H35   1.083371 S    
O5    C3    1.282971 A    
C80   C86   1.409288 A    
C48   C56   1.414961 A    
C113  C114  1.528877 S    
O6    C4    1.282336 A    
C89   C90   1.416858 A    
C43   C48   1.390335 A    
O11   C6    1.282604 A    
C113  H70   1.113575 S    
C36   C60   1.397457 A    
C59   H19   1.084425 S    
C40   C48   1.411166 A    
C41   C49   1.414567 A    
C106  H53   1.110763 S    
C108  C109  1.526211 S    
C65   O17   1.394367 S    
O19   C107  1.416919 S    
C116  H77   1.115041 S    
C62   C66   1.396223 A    
C9    H1    1.083349 S    
C4    C17   1.434427 S    
C40   C64   1.397986 A    
O9    C5    1.281864 A    
O15   Zn4   2.016158 S    
C73   C83   1.409525 A    
C97   H37   1.083253 S    
C11   H3    1.084259 S    
C11   C51   1.385938 A    
C119  H83   1.115868 S    
C14   H6    1.083949 S    
C34   C58   1.398234 A    
C11   C19   1.395942 A    
C50   C65   1.409796 A    
C66   O18   1.386110 S    
C12   C20   1.394428 A    
C78   N4    1.365805 A    
C82   C94   1.405413 A    
C110  H63   1.116276 S    
C18   C26   1.394774 A    
C74   C84   1.409189 A    
C49   C66   1.407902 A    
C56   C71   1.407719 A    
C51   C68   1.407590 A    
O6    Zn1   2.016513 S    
C118  H82   1.109360 S    
C81   C89   1.408593 A    
O1    C1    1.281976 A    
O12   Zn4   2.015651 S    
C101  C102  1.531824 S    
C31   H15   1.085364 S    
C104  H48   1.110961 S    
C9    C17   1.394492 A    
O23   C119  1.412184 S    
C30   H14   1.085143 S    
C69   O21   1.383075 S    
C94   C95   1.404876 A    
C32   H16   1.085166 S    
C99   H39   1.083297 S    
C102  C103  1.525160 S    
C74   N2    1.365295 A    
C10   C18   1.396107 A    
C13   H5    1.083457 S    
C61   H21   1.082544 S    
C72   O24   1.386007 S    
C20   C28   1.393418 A    
C61   C65   1.403180 A    
C105  H50   1.111750 S    
Zn4   N4    1.998492 S    
C26   H10   1.085015 S    
C123  C124  1.525743 S    
C28   H12   1.085378 S    
