data_mof_unit_40314.cif
_audit_creation_date              2012-12-10T17:15:40-0500
_audit_creation_method            fapswitch 2.2
_symmetry_space_group_name_H-M    P1
_symmetry_Int_Tables_number       1
_space_group_crystal_system       triclinic
_cell_length_a                    16.019706
_cell_length_b                    12.972377
_cell_length_c                    11.730444
_cell_angle_alpha                 98.214173
_cell_angle_beta                  91.150812
_cell_angle_gamma                 93.060935
_cell_volume                      2408.34793237

loop_
_atom_site_label
_atom_site_type_symbol
_atom_type_description
_atom_site_fract_x
_atom_site_fract_y
_atom_site_fract_z
_atom_type_partial_charge
C1    C     C_R   0.496933 0.299821 0.480466 0.907854
C2    C     C_R   0.452383 0.864708 0.475874 0.404865
C3    C     C_R   0.538995 0.026322 0.519162 -0.033516
C4    C     C_R   0.462705 0.972958 0.478106 -0.000336
C5    C     C_R   0.446164 0.377305 0.030392 0.401540
C6    C     C_R   0.581778 0.602473 0.965686 0.388502
C7    C     C_R   0.446774 0.394185 0.150997 -0.103842
C8    C     C_R   0.570852 0.590495 0.844996 -0.107185
C9    C     C_R   0.528750 0.553453 0.154486 0.609912
C10   C     C_R   0.466980 0.452833 0.847720 0.606884
C11   C     C_R   0.532506 0.537333 0.030593 -0.220007
C12   C     C_R   0.503718 0.700128 0.519512 0.834086
C13   C     C_R   0.482477 0.454037 0.968564 -0.241461
C14   C     C_R   0.346482 0.505180 0.513451 0.901262
C15   C     C_R   0.653643 0.497743 0.486902 0.769001
C16   C     C_R   0.254534 0.528401 0.516062 -0.224086
C17   C     C_R   0.747941 0.510839 0.487591 -0.243631
C18   C     C_R   0.203732 0.517094 0.412047 -0.084468
C19   C     C_R   0.795428 0.528617 0.593435 -0.138041
C20   C     C_R   0.128346 0.571297 0.409018 -0.006048
C21   C     C_R   0.870819 0.593137 0.600661 0.060487
C22   C     C_R   0.103424 0.634815 0.508688 -0.153698
C23   C     C_R   0.514786 0.812388 0.526200 -0.203503
C24   C     C_R   0.908445 0.616042 0.498059 -0.086420
C25   C     C_R   0.147021 0.632259 0.612731 -0.232356
C26   C     C_R   0.871051 0.571247 0.391861 -0.285475
C27   C     C_R   0.220847 0.578909 0.618748 0.416722
C28   C     C_R   0.790647 0.521777 0.385624 0.430917
C29   C     C_2   0.047165 0.723688 0.501578 0.353186
C30   C     C_2   0.961953 0.714134 0.498015 0.396237
C31   C     C_2   0.231653 0.453217 0.305376 0.464929
C32   C     C_2   0.769448 0.472655 0.691394 0.303258
C33   C     C_3   0.478626 0.209023 0.979814 0.021388
C34   C     C_R   0.485429 0.187587 0.474151 -0.182532
C35   C     C_3   0.445608 0.101588 0.922167 -0.760196
C36   C     C_3   0.720770 0.659932 0.975819 0.065121
C37   C     C_3   0.786633 0.730315 0.049092 -0.783684
C38   C     C_3   0.767468 0.394946 0.232241 0.095263
C39   C     C_3   0.709183 0.359572 0.128363 -0.804275
C40   C     C_3   0.225693 0.553571 0.808955 0.120690
C41   C     C_3   0.265711 0.600056 0.924997 -0.705173
C42   C     C_3   0.893775 0.824292 0.397191 0.108400
C43   C     C_3   0.860503 0.932802 0.406597 -0.746265
C44   C     C_3   0.158757 0.850007 0.541557 0.113680
C45   C     C_R   0.397599 0.028574 0.440927 -0.293701
C46   C     C_3   0.181962 0.963713 0.532786 -0.763451
C47   C     C_2   0.902566 0.647179 0.714907 0.495024
C48   C     C_2   0.075737 0.565268 0.302259 0.422619
C49   C     C_3   0.382362 0.798246 0.306252 0.037909
C50   C     C_3   0.329210 0.701856 0.254711 -0.659371
C51   C     C_3   0.679396 0.174914 0.445732 0.012861
C52   C     C_3   0.769331 0.208193 0.483432 -0.770613
C53   C     C_2   0.660102 0.809965 0.616237 0.364212
C54   C     C_2   0.332679 0.187918 0.406967 0.304841
C55   C     C_3   0.381919 0.315948 0.745385 0.180696
C56   C     C_R   0.601571 0.972495 0.566456 -0.161327
C57   C     C_3   0.299903 0.259185 0.771218 -0.747899
C58   C     C_3   0.626478 0.676035 0.254117 0.218733
C59   C     C_3   0.646983 0.793302 0.264016 -0.839904
C60   C     C_R   0.407363 0.135302 0.439890 -0.058113
C61   C     C_R   0.590296 0.865667 0.571357 -0.110262
C62   C     C_R   0.551649 0.132998 0.511678 0.357803
Cu1   Cu    Cu3+1 0.505800 0.507690 0.615350 0.975198
Cu2   Cu    Cu3+1 0.494200 0.492310 0.384650 0.959151
H1    H     H_    0.605316 0.641406 0.795224 0.149214
H2    H     H_    0.535216 0.232568 0.933882 0.148486
H3    H     H_    0.431594 0.102581 0.829325 0.239032
H4    H     H_    0.493368 0.043848 0.930088 0.212716
H5    H     H_    0.387782 0.077268 0.964285 0.249934
H6    H     H_    0.725714 0.678859 0.886772 0.154126
H7    H     H_    0.736345 0.577417 0.977085 0.175504
H8    H     H_    0.792625 0.707422 0.136265 0.228761
H9    H     H_    0.848322 0.722986 0.008085 0.222512
H10   H     H_    0.769999 0.812969 0.056500 0.254121
H11   H     H_    0.756947 0.339148 0.295092 0.132237
H12   H     H_    0.417198 0.335922 0.196595 0.172291
H13   H     H_    0.833297 0.392699 0.203747 0.177884
H14   H     H_    0.718086 0.412838 0.062938 0.250016
H15   H     H_    0.722695 0.279320 0.089252 0.207927
H16   H     H_    0.643107 0.359648 0.155328 0.236333
H17   H     H_    0.230103 0.467712 0.797048 0.186535
H18   H     H_    0.158296 0.570206 0.812260 0.139814
H19   H     H_    0.236351 0.562226 0.994539 0.239984
H20   H     H_    0.333758 0.588301 0.926328 0.267577
H21   H     H_    0.256454 0.685068 0.941608 0.222097
H22   H     H_    0.842525 0.766921 0.362010 0.121310
H23   H     H_    0.129125 0.682585 0.688799 0.191254
H24   H     H_    0.946361 0.820303 0.336149 0.149339
H25   H     H_    0.910200 0.992401 0.442041 0.262852
H26   H     H_    0.840102 0.948687 0.320061 0.183511
H27   H     H_    0.806210 0.938430 0.464178 0.262542
H28   H     H_    0.208267 0.801608 0.500434 0.182982
H29   H     H_    0.155337 0.843443 0.634795 0.157518
H30   H     H_    0.133414 0.013976 0.573034 0.259745
H31   H     H_    0.242770 0.987633 0.578597 0.203590
H32   H     H_    0.186815 0.974657 0.440928 0.234810
H33   H     H_    0.859837 0.663675 0.784776 0.090993
H34   H     H_    0.898094 0.588854 0.312506 0.144546
H35   H     H_    0.048508 0.634708 0.279724 0.026740
H36   H     H_    0.446589 0.791174 0.272885 0.202584
H37   H     H_    0.355653 0.866023 0.273978 0.133779
H38   H     H_    0.264367 0.706881 0.286019 0.236776
H39   H     H_    0.327647 0.695536 0.159344 0.195884
H40   H     H_    0.356350 0.631214 0.279268 0.284799
H41   H     H_    0.657981 0.225760 0.383460 0.141863
H42   H     H_    0.678862 0.092824 0.401277 0.146261
H43   H     H_    0.791207 0.160010 0.547922 0.265351
H44   H     H_    0.810270 0.197546 0.407861 0.197559
H45   H     H_    0.337047 0.989999 0.417402 0.169679
H46   H     H_    0.773968 0.291478 0.521894 0.240956
H47   H     H_    0.657076 0.725692 0.609186 0.059106
H48   H     H_    0.283763 0.144114 0.352095 0.084168
H49   H     H_    0.436406 0.269977 0.762089 0.140797
H50   H     H_    0.376449 0.319415 0.652582 0.201275
H51   H     H_    0.247047 0.287806 0.724086 0.215010
H52   H     H_    0.302764 0.174229 0.741786 0.201760
H53   H     H_    0.286424 0.272083 0.864259 0.296696
H54   H     H_    0.672708 0.632003 0.201138 0.197451
H55   H     H_    0.633434 0.657600 0.342245 0.157480
H56   H     H_    0.659814 0.013597 0.598813 0.226996
H57   H     H_    0.604687 0.836024 0.325185 0.227594
H58   H     H_    0.712184 0.812174 0.296153 0.198339
H59   H     H_    0.638923 0.821533 0.179951 0.295713
H60   H     H_    0.259477 0.379874 0.310028 0.119197
H61   H     H_    0.715325 0.418138 0.682429 0.144165
H62   H     H_    0.496696 0.202298 0.070593 0.140823
N1    N     N_R   0.514530 0.519260 0.788680 -0.234912
N2    N     N_R   0.485470 0.480740 0.211320 -0.250327
O1    O     O_R   0.504120 0.354440 0.581590 -0.599765
O2    O     O_2   0.811430 0.479533 0.780393 -0.582780
O3    O     O_3   0.415977 0.281289 0.974911 -0.581518
O4    O     O_3   0.639763 0.678320 0.018620 -0.585516
O5    O     O_3   0.750158 0.497403 0.279538 -0.615492
O6    O     O_3   0.268630 0.595694 0.720274 -0.558721
O7    O     O_3   0.920002 0.805822 0.507697 -0.514627
O8    O     O_3   0.080690 0.822092 0.484817 -0.571432
O9    O     O_2   0.976283 0.673998 0.732637 -0.591917
O10   O     O_2   0.058979 0.481913 0.241484 -0.512569
O11   O     O_3   0.380416 0.809005 0.428242 -0.604240
O12   O     O_R   0.495880 0.645560 0.418410 -0.545621
O13   O     O_3   0.628344 0.184716 0.543219 -0.589101
O14   O     O_2   0.722821 0.857833 0.661197 -0.535940
O15   O     O_2   0.322374 0.278349 0.445388 -0.627440
O16   O     O_3   0.386920 0.418807 0.804976 -0.572731
O17   O     O_3   0.543356 0.654418 0.211221 -0.583839
O18   O     O_R   0.494320 0.341440 0.386760 -0.589362
O19   O     O_R   0.505680 0.658560 0.613240 -0.584114
O20   O     O_R   0.391870 0.507230 0.608700 -0.487509
O21   O     O_R   0.608130 0.492770 0.391300 -0.548187
O22   O     O_R   0.382070 0.494240 0.413880 -0.586388
O23   O     O_R   0.617930 0.505760 0.586120 -0.606455
O24   O     O_2   0.226633 0.483508 0.211746 -0.552778

loop_
_geom_bond_atom_site_label_1
_geom_bond_atom_site_label_2
_ccdc_geom_bond_type
C44   O8    S    
C37   H10   S    
C45   C60   A    
C50   H40   S    
C22   C29   S    
C58   H54   S    
C15   O23   A    
C58   O17   S    
C57   H51   S    
C54   C60   S    
C12   C23   S    
C43   H25   S    
C2    O11   S    
C12   O19   A    
C36   C37   S    
C19   C21   A    
C24   C26   A    
C31   H60   S    
C5    O3    S    
C1    O1    A    
C36   O4    S    
C49   H37   S    
C38   C39   S    
C45   H45   S    
C3    C62   A    
C41   H19   S    
C14   O20   A    
C34   C62   A    
C53   O14   D    
C38   O5    S    
Cu1   O19   S    
C49   C50   S    
C33   H62   S    
C44   H29   S    
C27   O6    S    
C17   C19   A    
C53   C61   S    
C46   H31   S    
C52   H43   S    
C36   H6    S    
Cu2   N2    S    
C22   C25   A    
C1    C34   S    
C12   O12   A    
C42   H22   S    
C35   H3    S    
C7    N2    A    
C5    C13   A    
C44   H28   S    
C36   H7    S    
C4    C45   A    
C53   H47   S    
C59   H58   S    
C54   O15   D    
C50   H39   S    
C34   C60   A    
C56   H56   S    
C14   O22   A    
C1    O18   A    
C19   C32   S    
C32   O2    D    
C44   C46   S    
C33   H2    S    
C57   H52   S    
C38   H11   S    
C51   O13   S    
C59   H59   S    
C43   H26   S    
C51   C52   S    
C9    N2    A    
C39   H14   S    
C40   H18   S    
C6    O4    S    
C6    C11   A    
C5    C7    A    
C6    C8    A    
C55   H49   S    
C58   C59   S    
C41   H20   S    
C40   O6    S    
C43   H27   S    
C28   O5    S    
Cu2   O22   S    
C42   O7    S    
C39   H15   S    
C32   H61   S    
C2    C4    A    
C29   C30   D    
C3    C56   A    
C8    N1    A    
C46   H30   S    
C52   H46   S    
C51   H41   S    
C47   O9    D    
C54   H48   S    
C10   O16   S    
C9    C11   A    
Cu1   O23   S    
C20   C48   S    
C26   H34   S    
C40   C41   S    
C38   H13   S    
C20   C22   A    
C50   H38   S    
C55   C57   S    
C14   C16   S    
C21   C24   A    
C42   H24   S    
C42   C43   S    
C62   O13   S    
C10   N1    A    
Cu1   O20   S    
C15   O21   A    
C57   H53   S    
Cu2   O12   S    
C23   C61   A    
C15   C17   S    
C48   H35   S    
C37   H9    S    
C55   O16   S    
Cu2   O18   S    
C17   C28   A    
C40   H17   S    
C10   C13   A    
C7    H12   S    
C55   H50   S    
C25   C27   A    
C41   H21   S    
C26   C28   A    
C47   H33   S    
C48   O10   D    
Cu2   O21   S    
C39   H16   S    
C49   O11   S    
C49   H36   S    
C31   O24   D    
C11   C13   A    
C33   O3    S    
C35   H4    S    
C16   C27   A    
C51   H42   S    
C9    O17   S    
C58   H55   S    
C33   C35   S    
C18   C20   A    
Cu1   O1    S    
C24   C30   S    
Cu1   Cu2   S    
C25   H23   S    
C8    H1    S    
C29   O8    S    
C46   H32   S    
C35   H5    S    
C16   C18   A    
C30   O7    S    
C37   H8    S    
C2    C23   A    
C56   C61   A    
C52   H44   S    
C18   C31   S    
C59   H57   S    
Cu1   N1    S    
C3    C4    A    
C21   C47   S    
