data_mof_unit_62068.cif
_audit_creation_date              2012-12-10T17:55:48-0500
_audit_creation_method            fapswitch 2.2
_symmetry_space_group_name_H-M    P1
_symmetry_Int_Tables_number       1
_space_group_crystal_system       triclinic
_cell_length_a                    18.357139
_cell_length_b                    18.324955
_cell_length_c                    26.035858
_cell_angle_alpha                 90.000072
_cell_angle_beta                  89.999565
_cell_angle_gamma                 90.173236
_cell_volume                      8758.25977217

loop_
_atom_site_label
_atom_site_type_symbol
_atom_type_description
_atom_site_fract_x
_atom_site_fract_y
_atom_site_fract_z
_atom_type_partial_charge
C1    C     C_R   0.139507 0.859178 0.249275 0.873629
C2    C     C_R   0.227031 0.781000 0.200588 0.342633
C3    C     C_R   0.728392 0.826121 0.747137 0.337385
C4    C     C_R   0.773813 0.780260 0.200477 0.342387
C5    C     C_R   0.727042 0.281012 0.299412 0.342891
C6    C     C_R   0.771162 0.325767 0.739048 0.336248
C7    C     C_R   0.273822 0.280251 0.299522 0.342131
C8    C     C_R   0.228392 0.326122 0.752858 0.337448
C9    C     C_R   0.781040 0.227148 0.299428 0.342943
C10   C     C_R   0.824463 0.271603 0.737371 0.348294
C11   C     C_R   0.219719 0.226280 0.299538 0.342222
C12   C     C_R   0.140947 0.860714 0.749254 0.862720
C13   C     C_R   0.174455 0.272039 0.753491 0.346027
C14   C     C_R   0.324463 0.771603 0.762628 0.348120
C15   C     C_R   0.281027 0.727134 0.200573 0.342596
C16   C     C_R   0.674455 0.772038 0.746503 0.346109
C17   C     C_R   0.719708 0.726291 0.200460 0.342566
C18   C     C_R   0.801640 0.194111 0.252663 -0.147919
C19   C     C_R   0.806368 0.199151 0.751355 -0.179438
C20   C     C_R   0.198353 0.194046 0.252655 -0.146826
C21   C     C_R   0.194578 0.197978 0.751861 -0.167017
C22   C     C_R   0.306368 0.699150 0.748646 -0.179520
C23   C     C_R   0.860541 0.859210 0.249271 0.873449
C24   C     C_R   0.301640 0.694112 0.247339 -0.148049
C25   C     C_R   0.694578 0.697978 0.748138 -0.166891
C26   C     C_R   0.698353 0.694045 0.247342 -0.146692
C27   C     C_R   0.934023 0.999767 0.026812 -0.144838
C28   C     C_R   0.934024 0.999807 0.973206 -0.159413
C29   C     C_R   0.065979 0.999756 0.026811 -0.144581
C30   C     C_R   0.065978 0.999795 0.973205 -0.155692
C31   C     C_R   0.434024 0.499808 0.526794 -0.159423
C32   C     C_R   0.434023 0.499767 0.473189 -0.144843
C33   C     C_R   0.565978 0.499795 0.526794 -0.155681
C34   C     C_R   0.859562 0.860240 0.749631 0.870569
C35   C     C_R   0.565979 0.499756 0.473188 -0.144578
C36   C     C_R   0.000001 0.999865 0.945869 -0.015012
C37   C     C_R   0.000001 0.999807 0.054144 -0.017582
C38   C     C_R   0.500000 0.499807 0.445856 -0.017581
C39   C     C_R   0.500001 0.499865 0.554131 -0.015014
C40   C     C_R   0.859219 0.139523 0.250790 0.852236
C41   C     C_R   0.860515 0.140938 0.750387 0.877666
C42   C     C_R   0.140747 0.139477 0.250792 0.851684
C43   C     C_R   0.139696 0.140575 0.750421 0.871034
C44   C     C_R   0.360515 0.640938 0.749614 0.877587
C45   C     C_R   0.640948 0.360714 0.750746 0.862486
C46   C     C_R   0.359219 0.639523 0.249210 0.852162
C47   C     C_R   0.639696 0.640575 0.749579 0.871126
C48   C     C_R   0.640747 0.639477 0.249207 0.851761
C49   C     C_R   0.000000 0.999923 0.110826 0.804346
C50   C     C_R   0.000000 0.999966 0.889178 0.787723
C51   C     C_R   0.500000 0.499966 0.610822 0.787729
C52   C     C_R   0.500000 0.499923 0.389174 0.804342
C53   C     C_R   0.000467 0.999954 0.388593 0.873522
C54   C     C_R   0.999526 0.999948 0.611403 0.860234
C55   C     C_R   0.500468 0.499951 0.888597 0.860679
C56   C     C_R   0.639506 0.359177 0.250726 0.873839
C57   C     C_R   0.499532 0.499951 0.111407 0.873331
C58   C     C_2   0.001605 0.059913 0.528118 -0.132570
C59   C     C_2   0.998236 0.059903 0.471862 -0.095175
C60   C     C_2   0.501725 0.559914 0.028137 -0.095697
C61   C     C_2   0.498350 0.559901 0.971882 -0.131881
C62   C     C_2   0.995879 0.998705 0.555997 -0.288582
C63   C     C_2   0.004099 0.998741 0.443991 -0.293385
C64   C     C_2   0.495893 0.498715 0.056009 -0.293122
C65   C     C_2   0.504105 0.498731 0.944003 -0.289465
C66   C     C_R   0.766437 0.213014 0.206927 -0.221473
C67   C     C_R   0.359562 0.360240 0.750369 0.870791
C68   C     C_R   0.735321 0.182015 0.766755 -0.196048
C69   C     C_R   0.232772 0.213714 0.206768 -0.221172
C70   C     C_R   0.268101 0.178264 0.752444 -0.195788
C71   C     C_R   0.235320 0.682013 0.733247 -0.196045
C72   C     C_R   0.266451 0.713030 0.293078 -0.221373
C73   C     C_R   0.768102 0.678264 0.747560 -0.195728
C74   C     C_R   0.732782 0.713703 0.293228 -0.221275
C75   C     C_R   0.181954 0.735256 0.733189 -0.219000
C76   C     C_R   0.213055 0.766330 0.293096 -0.221594
C77   C     C_R   0.821666 0.731791 0.747437 -0.216436
C78   C     C_R   0.360540 0.359211 0.250728 0.873242
C79   C     C_R   0.786275 0.767096 0.293247 -0.221404
C80   C     C_R   0.713040 0.266313 0.206909 -0.221467
C81   C     C_R   0.681955 0.235258 0.766814 -0.219109
C82   C     C_R   0.286265 0.267108 0.206749 -0.221532
C83   C     C_R   0.321666 0.231791 0.752568 -0.216396
C84   C     C_R   0.199019 0.806816 0.747709 -0.159968
C85   C     C_R   0.194024 0.801524 0.247375 -0.153092
C86   C     C_R   0.802206 0.805523 0.748290 -0.151934
C87   C     C_R   0.806046 0.801527 0.247379 -0.152282
C88   C     C_R   0.694022 0.301522 0.252627 -0.153372
C89   C     C_R   0.271162 0.825766 0.760950 0.336299
C90   C     C_R   0.699020 0.306816 0.752291 -0.159920
C91   C     C_R   0.306045 0.301528 0.252618 -0.152005
C92   C     C_R   0.302206 0.305523 0.751710 -0.151968
Cl1   Cl    Cl    0.297363 0.917646 0.772588 -0.495514
Cl2   Cl    Cl    0.913515 0.297240 0.718671 -0.395861
Cl3   Cl    Cl    0.182559 0.196754 0.358829 -0.496626
Cl4   Cl    Cl    0.082503 0.297552 0.760677 -0.430191
Cl5   Cl    Cl    0.413515 0.797242 0.781324 -0.396103
Cl6   Cl    Cl    0.318971 0.698727 0.141315 -0.493362
Cl7   Cl    Cl    0.582505 0.797550 0.739313 -0.430109
Cl8   Cl    Cl    0.682532 0.696783 0.141171 -0.499525
Cl9   Cl    Cl    0.198452 0.818877 0.141338 -0.493889
Cl10  Cl    Cl    0.702989 0.919130 0.743314 -0.508385
Cl11  Cl    Cl    0.803495 0.817362 0.141197 -0.496697
Cl12  Cl    Cl    0.698479 0.318905 0.358661 -0.493871
Cl13  Cl    Cl    0.797363 0.417646 0.727407 -0.495532
Cl14  Cl    Cl    0.303515 0.317342 0.358803 -0.496709
Cl15  Cl    Cl    0.202987 0.419130 0.756675 -0.508342
Cl16  Cl    Cl    0.819004 0.198763 0.358684 -0.496253
H1    H     H_    0.007913 0.112483 0.546919 0.199516
H2    H     H_    0.720540 0.126828 0.777591 0.216905
H3    H     H_    0.217129 0.188741 0.170669 0.183120
H4    H     H_    0.284002 0.121357 0.751983 0.210184
H5    H     H_    0.220539 0.626826 0.722413 0.216897
H6    H     H_    0.281403 0.687527 0.329104 0.183174
H7    H     H_    0.784002 0.621357 0.748025 0.210174
H8    H     H_    0.717147 0.688721 0.329326 0.183151
H9    H     H_    0.126876 0.720155 0.722537 0.196314
H10   H     H_    0.187581 0.781222 0.329135 0.183838
H11   H     H_    0.878423 0.715697 0.747758 0.186233
H12   H     H_    0.991816 0.112420 0.453055 0.212324
H13   H     H_    0.811230 0.782671 0.329357 0.184088
H14   H     H_    0.687556 0.281193 0.170872 0.184080
H15   H     H_    0.626877 0.220156 0.777467 0.196326
H16   H     H_    0.311212 0.282692 0.170638 0.183846
H17   H     H_    0.378423 0.215698 0.752251 0.186224
H18   H     H_    0.882294 0.999733 0.046812 0.183403
H19   H     H_    0.882295 0.999813 0.953210 0.176609
H20   H     H_    0.117707 0.999713 0.046811 0.184408
H21   H     H_    0.117707 0.999790 0.953207 0.179818
H22   H     H_    0.382295 0.499813 0.546792 0.176601
H23   H     H_    0.508126 0.612473 0.046944 0.212223
H24   H     H_    0.382294 0.499733 0.453189 0.183398
H25   H     H_    0.617707 0.499790 0.546791 0.179826
H26   H     H_    0.617707 0.499712 0.453188 0.184413
H27   H     H_    0.492017 0.612430 0.953080 0.199912
H28   H     H_    0.986717 0.945717 0.538850 0.156610
H29   H     H_    0.013355 0.945828 0.461142 0.152088
H30   H     H_    0.486652 0.445742 0.038859 0.152550
H31   H     H_    0.513287 0.445802 0.961150 0.156031
H32   H     H_    0.781378 0.187500 0.170902 0.183210
O1    O     O_3   0.000000 1.000000 0.250030 -0.519440
O2    O     O_R   0.585480 0.353820 0.219950 -0.646950
O3    O     O_R   0.414520 0.353820 0.780050 -0.646479
O4    O     O_R   0.414520 0.353820 0.219950 -0.647123
O5    O     O_R   0.914530 0.146170 0.280090 -0.593017
O6    O     O_R   0.914530 0.146170 0.719910 -0.581640
O7    O     O_R   0.085470 0.146170 0.280090 -0.593195
O8    O     O_R   0.085470 0.146170 0.719910 -0.589158
O9    O     O_R   0.414530 0.646170 0.780090 -0.582054
O10   O     O_R   0.414530 0.646170 0.219910 -0.592767
O11   O     O_R   0.585470 0.646170 0.780090 -0.588720
O12   O     O_3   0.000000 1.000000 0.749970 -0.520052
O13   O     O_R   0.585470 0.646170 0.219910 -0.593452
O14   O     O_R   0.146180 0.085440 0.219990 -0.649335
O15   O     O_R   0.146180 0.085440 0.780010 -0.627026
O16   O     O_R   0.853820 0.085440 0.219990 -0.649777
O17   O     O_R   0.853820 0.085440 0.780010 -0.634989
O18   O     O_R   0.646180 0.585440 0.719990 -0.627147
O19   O     O_R   0.646180 0.585440 0.280010 -0.649295
O20   O     O_R   0.353820 0.585440 0.719990 -0.634883
O21   O     O_R   0.353820 0.585440 0.280010 -0.649813
O22   O     O_R   0.853820 0.914550 0.219980 -0.590651
O23   O     O_3   0.500000 0.500000 0.750030 -0.520068
O24   O     O_R   0.853820 0.914550 0.780020 -0.596579
O25   O     O_R   0.146180 0.914550 0.219980 -0.589908
O26   O     O_R   0.146180 0.914550 0.780020 -0.589280
O27   O     O_R   0.353820 0.414550 0.719980 -0.596663
O28   O     O_R   0.353820 0.414550 0.280020 -0.590640
O29   O     O_R   0.646180 0.414550 0.719980 -0.589209
O30   O     O_R   0.646180 0.414550 0.280020 -0.589916
O31   O     O_R   0.060720 0.999990 0.135450 -0.628908
O32   O     O_R   0.060720 0.999990 0.864550 -0.636526
O33   O     O_R   0.939280 0.999990 0.135450 -0.629014
O34   O     O_3   0.500000 0.500000 0.249970 -0.519437
O35   O     O_R   0.939280 0.999990 0.864550 -0.642180
O36   O     O_R   0.560720 0.499990 0.635450 -0.636509
O37   O     O_R   0.560720 0.499990 0.364550 -0.628915
O38   O     O_R   0.439280 0.499990 0.635450 -0.642191
O39   O     O_R   0.439280 0.499990 0.364550 -0.629009
O40   O     O_R   0.000000 0.939270 0.364600 -0.652667
O41   O     O_R   0.000000 0.939270 0.635400 -0.639072
O42   O     O_R   0.500000 0.439270 0.864600 -0.638962
O43   O     O_R   0.500000 0.439270 0.135400 -0.652695
O44   O     O_R   1.000000 0.060730 0.364620 -0.600219
O45   O     O_R   0.085480 0.853820 0.280050 -0.647311
O46   O     O_R   0.000000 0.060730 0.635380 -0.633447
O47   O     O_R   0.500000 0.560730 0.864620 -0.633581
O48   O     O_R   0.500000 0.560730 0.135380 -0.600142
O49   O     O_R   0.085480 0.853820 0.719950 -0.654395
O50   O     O_R   0.914520 0.853820 0.280050 -0.646762
O51   O     O_R   0.914520 0.853820 0.719950 -0.646924
O52   O     O_R   0.585480 0.353820 0.780050 -0.654830
Zn1   Zn    Zn3+2 0.000000 0.086760 0.292960 1.060421
Zn2   Zn    Zn3+2 0.586770 0.499990 0.292890 1.027093
Zn3   Zn    Zn3+2 0.413230 0.499990 0.707110 1.026329
Zn4   Zn    Zn3+2 0.413230 0.499990 0.292890 1.025995
Zn5   Zn    Zn3+2 1.000000 0.913240 0.292940 0.997845
Zn6   Zn    Zn3+2 0.000000 0.913240 0.707060 0.990112
Zn7   Zn    Zn3+2 0.500000 0.413240 0.792940 0.990144
Zn8   Zn    Zn3+2 0.500000 0.413240 0.207060 0.997845
Zn9   Zn    Zn3+2 0.000000 0.086760 0.707040 1.067174
Zn10  Zn    Zn3+2 0.500000 0.586760 0.792960 1.067138
Zn11  Zn    Zn3+2 0.500000 0.586760 0.207040 1.060441
Zn12  Zn    Zn3+2 0.086770 0.999990 0.207110 1.026979
Zn13  Zn    Zn3+2 0.086770 0.999990 0.792890 1.032656
Zn14  Zn    Zn3+2 0.913230 0.999990 0.207110 1.026099
Zn15  Zn    Zn3+2 0.913230 0.999990 0.792890 1.026238
Zn16  Zn    Zn3+2 0.586770 0.499990 0.707110 1.032547

loop_
_geom_bond_atom_site_label_1
_geom_bond_atom_site_label_2
_ccdc_geom_bond_type
O49   Zn6   S    
C58   C62   D    
O19   Zn2   S    
C39   C51   S    
C48   O13   A    
C8    Cl15  S    
O23   Zn10  S    
O34   Zn4   S    
C59   H12   S    
C58   H1    S    
C53   C63   S    
O12   Zn15  S    
O17   Zn15  S    
O1    Zn12  S    
O35   Zn15  S    
C72   C76   A    
C67   O3    A    
C78   O28   A    
O29   Zn16  S    
C49   O33   A    
C66   C80   A    
C4    C87   A    
C64   H30   S    
C50   O35   A    
C9    Cl16  S    
C7    C11   A    
C83   C92   A    
C79   H13   S    
O47   Zn10  S    
C12   C84   S    
C8    C13   A    
C40   O5    A    
C81   H15   S    
C17   C26   A    
O32   Zn13  S    
C42   O14   A    
O25   Zn12  S    
O6    Zn9   S    
C34   O24   A    
C12   O26   A    
C27   H18   S    
C75   C84   A    
C56   C88   S    
C38   C52   S    
C35   H26   S    
C10   Cl2   S    
C67   O27   A    
O44   Zn1   S    
C4    Cl11  S    
C72   H6    S    
O23   Zn16  S    
C42   O7    A    
C71   H5    S    
C2    C85   A    
C34   C86   S    
O52   Zn7   S    
C62   H28   S    
O31   Zn12  S    
C18   C40   S    
O1    Zn14  S    
C67   C92   S    
C57   O48   A    
C43   O8    A    
C26   C74   A    
C52   O37   A    
C5    C88   A    
C55   O42   A    
C22   C44   S    
C41   O6    A    
C46   O21   A    
C75   H9    S    
O51   Zn6   S    
O7    Zn1   S    
O33   Zn14  S    
C8    C92   A    
O26   Zn13  S    
C32   C38   A    
C51   O38   A    
O16   Zn14  S    
C25   C47   S    
O5    Zn1   S    
C28   H19   S    
C26   C48   S    
C23   O22   A    
C56   O2    A    
C5    Cl12  S    
C74   H8    S    
C23   C87   S    
O22   Zn14  S    
C3    C86   A    
C63   H29   S    
C31   H22   S    
O1    Zn5   S    
O10   Zn11  S    
C83   H17   S    
C43   O15   A    
O41   Zn6   S    
C60   H23   S    
C79   C87   A    
C55   C65   S    
O8    Zn9   S    
O39   Zn4   S    
C24   C72   A    
C1    C85   S    
C48   O19   A    
C11   C20   A    
C7    Cl14  S    
O37   Zn2   S    
C13   Cl4   S    
O12   Zn6   S    
O12   Zn13  S    
C35   C38   A    
C53   O44   A    
O30   Zn2   S    
C80   H14   S    
C54   C62   S    
C2    Cl9   S    
O15   Zn13  S    
C58   C59   S    
C6    C90   A    
C76   H10   S    
C82   C91   A    
O46   Zn9   S    
O21   Zn4   S    
C60   C61   S    
C4    C17   A    
C14   C89   A    
C5    C9    A    
C29   C30   A    
C45   C90   S    
C78   O4    A    
C37   C49   S    
C45   O52   A    
O14   Zn12  S    
C31   C32   A    
O4    Zn8   S    
C57   C64   S    
O23   Zn3   S    
C10   C19   A    
C7    C91   A    
C54   O41   A    
C13   C21   A    
C19   C68   A    
C68   H2    S    
C2    C15   A    
C70   C83   A    
C70   H4    S    
O20   Zn3   S    
C41   O17   A    
C81   C90   A    
C3    Cl10  S    
C15   C24   A    
C46   O10   A    
C47   O11   A    
C77   C86   A    
O34   Zn2   S    
C55   O47   A    
C74   C79   A    
C12   O49   A    
C54   O46   A    
C44   O20   A    
O27   Zn3   S    
O12   Zn9   S    
C84   C89   A    
C68   C81   A    
C15   Cl6   S    
C53   O40   A    
C22   C71   A    
C57   O43   A    
C36   C50   S    
C61   H27   S    
C14   Cl5   S    
C49   O31   A    
C82   H16   S    
O40   Zn5   S    
C11   Cl3   S    
C16   C25   A    
C34   O51   A    
C32   H24   S    
C56   O30   A    
C1    O25   A    
O2    Zn8   S    
O42   Zn7   S    
C44   O9    A    
C77   H11   S    
O24   Zn15  S    
C45   O29   A    
C6    C10   A    
C20   C42   S    
C16   Cl7   S    
C1    O45   A    
C78   C91   S    
C18   C66   A    
C30   H21   S    
O3    Zn7   S    
O38   Zn3   S    
O48   Zn11  S    
O34   Zn8   S    
O43   Zn8   S    
C73   H7    S    
C30   C36   A    
C21   C70   A    
C60   C64   D    
C24   C46   S    
C14   C22   A    
C52   O39   A    
O18   Zn16  S    
C80   C88   A    
C71   C75   A    
C69   H3    S    
O36   Zn16  S    
O1    Zn1   S    
C27   C37   A    
O9    Zn10  S    
O34   Zn11  S    
C33   C35   A    
C6    Cl13  S    
C31   C39   A    
C59   C63   D    
C69   C82   A    
C25   C73   A    
C61   C65   D    
C89   Cl1   S    
C51   O36   A    
C20   C69   A    
C17   Cl8   S    
C33   C39   A    
O23   Zn7   S    
C65   H31   S    
C33   H25   S    
C9    C18   A    
C66   H32   S    
C28   C36   A    
O28   Zn4   S    
C29   H20   S    
C29   C37   A    
C27   C28   A    
C73   C77   A    
C40   O16   A    
C50   O32   A    
O11   Zn10  S    
O45   Zn5   S    
C76   C85   A    
C23   O50   A    
C21   C43   S    
C3    C16   A    
C19   C41   S    
O50   Zn5   S    
O13   Zn11  S    
C47   O18   A    
