data_mof_unit_16056.cif
_audit_creation_date              2012-12-10T17:27:52-0500
_audit_creation_method            fapswitch 2.2
_symmetry_space_group_name_H-M    P1
_symmetry_Int_Tables_number       1
_space_group_crystal_system       triclinic
_cell_length_a                    10.80354
_cell_length_b                    12.050228
_cell_length_c                    12.857929
_cell_angle_alpha                 91.858824
_cell_angle_beta                  92.854338
_cell_angle_gamma                 83.673492
_cell_volume                      1661.04051446

loop_
_atom_site_label
_atom_site_type_symbol
_atom_type_description
_atom_site_fract_x
_atom_site_fract_y
_atom_site_fract_z
_atom_type_partial_charge
C1    C     C_R   0.489178 0.521205 0.700583 0.861035
C2    C     C_R   0.952660 0.416751 0.574843 -0.148310
C3    C     C_R   0.878945 0.493783 0.509470 -0.224813
C4    C     C_R   0.934694 0.584096 0.471533 0.292870
C5    C     C_R   0.052691 0.603651 0.508298 0.337841
C6    C     C_R   0.132230 0.512351 0.544001 -0.259011
C7    C     C_R   0.532422 0.468262 0.187684 -0.322584
C8    C     C_R   0.460825 0.531363 0.810885 -0.236783
C9    C     C_R   0.395983 0.630779 0.967314 -0.082716
C10   C     C_R   0.411612 0.632294 0.861217 0.432881
C11   C     C_R   0.481568 0.432796 0.868283 -0.049198
C12   C     C_R   0.742210 0.497410 0.500457 0.932049
C13   C     C_R   0.480702 0.436335 0.976529 -0.060895
C14   C     C_R   0.452098 0.541600 0.025134 -0.116683
C15   C     C_R   0.499391 0.561742 0.125332 0.378990
C16   C     C_R   0.566030 0.362022 0.141055 0.297571
C17   C     C_R   0.528635 0.342825 0.035966 0.343969
C18   C     C_R   0.432741 0.953214 0.375436 -0.163049
C19   C     C_R   0.416411 0.843640 0.395016 0.556080
C20   C     C_R   0.541014 0.855256 0.551637 0.052819
C21   C     C_R   0.538636 0.973261 0.541696 -0.023059
C22   C     C_R   0.481727 0.023215 0.451969 -0.126724
C23   C     C_R   0.514615 0.479334 0.299914 1.032803
C24   C     C_R   0.466533 0.141920 0.443135 0.559527
C25   C     C_R   0.578077 0.159195 0.606773 0.149310
C26   C     C_R   0.587770 0.042613 0.619375 -0.129622
C27   C     C_R   0.262894 0.503977 0.517989 0.962839
C28   C     C_R   0.905661 0.330629 0.627397 0.283196
C29   C     C_R   0.945610 0.323652 0.734415 0.228430
C30   C     C_R   0.057366 0.368704 0.765442 0.119492
C31   C     C_R   0.138806 0.378379 0.686217 0.302019
C32   C     C_R   0.081051 0.427013 0.594106 -0.036681
H1    H     H_    0.516740 0.356266 0.829791 0.256969
H2    H     H_    0.612451 0.212372 0.667894 0.200332
H3    H     H_    0.396772 0.983816 0.301150 0.256565
H4    H     H_    0.631215 0.007402 0.690393 0.216111
H5    H     H_    0.592027 0.814416 0.616677 0.175620
H6    H     H_    0.356361 0.705386 0.007392 0.232144
N1    N     N_R   0.523130 0.207800 0.519340 -0.153663
N2    N     N_R   0.476870 0.792180 0.480660 -0.153956
O1    O     O_R   0.506170 0.421690 0.658830 -0.631318
O2    O     O_R   0.491330 0.609320 0.646410 -0.585176
O3    O     O_R   0.690660 0.406170 0.506210 -0.590718
O4    O     O_R   0.675810 0.593790 0.493790 -0.602384
O5    O     O_R   0.508670 0.390680 0.353590 -0.553728
O6    O     O_R   0.493830 0.578310 0.341170 -0.555619
O7    O     O_R   0.324190 0.406210 0.506210 -0.521937
O8    O     O_R   0.309340 0.593830 0.493790 -0.549889
Zn1   Zn    Zn3+2 0.509910 0.374720 0.508290 1.129536
Zn2   Zn    Zn3+2 0.490090 0.625280 0.491710 1.135127
S1    S     S_3+6 0.872882 0.658844 0.362308 0.130117
O9    O     O_2   0.809790 0.579416 0.291173 -0.220433
O10   O     O_2   0.781131 0.755021 0.394828 -0.228696
O11   O     O_3   0.988061 0.707661 0.300167 -0.447818
H7    H     H_    0.945643 0.750211 0.241502 0.395893
S2    S     S_3+6 0.520981 0.203807 0.983835 0.124974
O12   O     O_2   0.389426 0.194792 0.943443 -0.236257
O13   O     O_2   0.605765 0.180307 0.895284 -0.215118
O14   O     O_3   0.560187 0.104474 0.071823 -0.419337
H8    H     H_    0.539534 0.034069 0.036605 0.412400
S3    S     S_3+6 0.393132 0.767108 0.806622 0.081427
O15   O     O_2   0.520357 0.804922 0.799993 -0.313533
O16   O     O_2   0.329870 0.766828 0.700344 -0.217347
O17   O     O_3   0.308230 0.858656 0.883536 -0.493575
H9    H     H_    0.315282 0.932852 0.854731 0.424937
S4    S     S_3+6 0.352021 0.195035 0.341391 0.101827
O18   O     O_2   0.238181 0.134593 0.348609 -0.244958
O19   O     O_2   0.306143 0.316299 0.339655 -0.232958
O20   O     O_3   0.409030 0.161719 0.224344 -0.511103
H10   H     H_    0.336229 0.172300 0.174300 0.411904
S5    S     S_3+6 0.297041 0.792736 0.310933 0.112525
O21   O     O_2   0.276320 0.672747 0.318193 -0.244521
O22   O     O_2   0.177363 0.863290 0.333765 -0.208754
O23   O     O_3   0.327968 0.816177 0.187371 -0.532062
H11   H     H_    0.246608 0.818300 0.147988 0.395117
S6    S     S_3+6 0.911295 0.203593 0.551807 0.123614
O24   O     O_2   0.786386 0.187362 0.501893 -0.267613
O25   O     O_2   0.999358 0.208908 0.465598 -0.210337
O26   O     O_3   0.962170 0.092994 0.624985 -0.440598
H12   H     H_    0.005206 0.037590 0.576702 0.425032
S7    S     S_3+6 0.867802 0.252211 0.824552 0.155302
O27   O     O_2   0.797917 0.165057 0.769953 -0.215682
O28   O     O_2   0.958251 0.195076 0.903549 -0.129855
O29   O     O_3   0.767746 0.345799 0.885971 -0.554746
H13   H     H_    0.820761 0.391296 0.931121 0.388255
Br1   Br    Br    0.120082 0.382105 0.907406 -0.300502
S8    S     S_3+6 0.239983 0.252935 0.675648 0.088883
O30   O     O_2   0.369369 0.273199 0.710288 -0.306921
O31   O     O_2   0.200206 0.165560 0.744252 -0.209919
O32   O     O_3   0.237211 0.203368 0.552876 -0.480016
H14   H     H_    0.242697 0.121127 0.558343 0.385552
S9    S     S_3+6 0.064714 0.735000 0.571911 0.121476
O33   O     O_2   0.090982 0.716593 0.686327 -0.275904
O34   O     O_2   0.168706 0.790679 0.530516 -0.168679
O35   O     O_3   0.931898 0.820978 0.556968 -0.464071
H15   H     H_    0.873414 0.792991 0.604292 0.355009
S10   S     S_3+6 0.590506 0.678319 0.139810 0.121791
O36   O     O_2   0.541181 0.775216 0.073412 -0.250062
O37   O     O_2   0.600413 0.721129 0.250077 -0.202157
O38   O     O_3   0.733411 0.632659 0.099588 -0.487262
H16   H     H_    0.777647 0.700332 0.098291 0.395966
S11   S     S_3+6 0.692840 0.275248 0.200300 0.170510
O39   O     O_2   0.647557 0.187794 0.264898 -0.182739
O40   O     O_2   0.773710 0.219301 0.117735 -0.161014
O41   O     O_3   0.779642 0.353854 0.278230 -0.518337
H17   H     H_    0.852993 0.302534 0.301492 0.422765

loop_
_geom_bond_atom_site_label_1
_geom_bond_atom_site_label_2
_ccdc_geom_bond_type
C27   O8    A    
C6    C32   A    
C21   C26   A    
C23   O5    A    
C1    C8    S    
S4    O19   D    
O35   H15   S    
S6    O26   S    
S8    O30   D    
S10   O38   S    
S10   O36   D    
O7    Zn1   S    
S11   O39   D    
C28   C29   A    
S6    O25   D    
C12   O3    A    
C5    C6    A    
C20   N2    A    
N2    Zn2   S    
S4    O20   S    
O4    Zn2   S    
C26   H4    S    
C24   N1    A    
S2    O12   D    
S11   O41   S    
C2    C32   A    
C18   C19   A    
S3    O16   D    
S9    O33   D    
C3    C12   S    
S10   O37   D    
C19   S5    S    
C31   C32   A    
C16   C17   A    
C30   Br1   S    
C18   H3    S    
C24   S4    S    
C25   H2    S    
C7    C15   A    
S4    O18   D    
O14   H8    S    
C23   O6    A    
C21   C22   A    
O20   H10   S    
C15   S10   S    
O1    Zn1   S    
S7    O28   D    
S7    O27   D    
O38   H16   S    
C31   S8    S    
O23   H11   S    
C4    S1    S    
S1    O9    D    
C11   H1    S    
S6    O24   D    
S5    O22   D    
O3    Zn1   S    
C25   C26   A    
S9    O35   S    
S1    O10   D    
S3    O17   S    
C9    C14   A    
C29   S7    S    
C29   C30   A    
C6    C27   S    
O5    Zn1   S    
S9    O34   D    
O29   H13   S    
S11   O40   D    
C17   S2    S    
O2    Zn2   S    
C1    O1    A    
C7    C16   A    
N1    Zn1   S    
S8    O31   D    
C22   C24   A    
C10   S3    S    
C3    C4    A    
C28   S6    S    
S7    O29   S    
C9    C10   A    
C16   S11   S    
O11   H7    S    
C18   C22   A    
C4    C5    A    
S5    O23   S    
O41   H17   S    
O6    Zn2   S    
C27   O7    A    
S2    O14   S    
C13   C17   A    
S1    O11   S    
O17   H9    S    
C2    C3    A    
S5    O21   D    
C12   O4    A    
C25   N1    A    
C20   H5    S    
C11   C13   A    
O32   H14   S    
C30   C31   A    
C8    C11   A    
C7    C23   S    
O8    Zn2   S    
C9    H6    S    
S2    O13   D    
S3    O15   D    
C5    S9    S    
C19   N2    A    
O26   H12   S    
C1    O2    A    
C20   C21   A    
C8    C10   A    
S8    O32   S    
C14   C15   A    
C2    C28   A    
C13   C14   A    
