data_mof_unit_23852.cif
_audit_creation_date              2012-10-26T17:44:34-0400
_audit_creation_method            fapswitch 2.2
_symmetry_space_group_name_H-M    P1
_symmetry_Int_Tables_number       1
_space_group_crystal_system       triclinic
_cell_length_a                    28.711842
_cell_length_b                    18.322383
_cell_length_c                    18.346818
_cell_angle_alpha                 90.088121
_cell_angle_beta                  130.755612
_cell_angle_gamma                 89.933532
_cell_volume                      7311.16320079

loop_
_atom_site_label
_atom_site_type_symbol
_atom_type_description
_atom_site_fract_x
_atom_site_fract_y
_atom_site_fract_z
_atom_type_partial_charge
C1    C     C_R   0.500187 0.999932 0.360261 0.554129
C2    C     C_R   0.219217 0.043953 0.276343 -0.023823
C3    C     C_R   0.823581 0.420706 0.155120 0.039699
C4    C     C_R   0.655630 0.862288 0.869406 0.032843
C5    C     C_R   0.323291 0.902551 0.080979 0.029501
C6    C     C_R   0.177090 0.400311 0.919739 0.027174
C7    C     C_R   0.845613 0.363856 0.131015 0.032200
C8    C     C_R   0.647688 0.791853 0.832172 -0.111136
C9    C     C_R   0.344944 0.831554 0.118659 -0.098095
C10   C     C_R   0.156374 0.329237 0.881591 -0.098650
C11   C     C_R   0.856506 0.294134 0.171487 -0.105197
C12   C     C_R   0.783623 0.960300 0.829540 -0.160074
C13   C     C_R   0.280458 0.540401 0.721520 -0.019695
C14   C     C_R   0.216336 0.963104 0.167861 -0.151909
C15   C     C_R   0.283605 0.463764 0.833061 -0.165183
C16   C     C_R   0.716451 0.460073 0.170424 -0.159875
C17   C     C_3   0.886231 0.248352 0.622248 -0.256479
C18   C     C_3   0.832264 0.291791 0.534868 -0.310674
C19   C     C_3   0.854792 0.350456 0.505246 -0.430500
C20   C     C_3   0.114328 0.241355 0.385189 -0.257046
C21   C     C_3   0.168137 0.286664 0.470255 -0.310260
C22   C     C_3   0.145855 0.344367 0.501508 -0.429001
C23   C     C_3   0.395638 0.716536 0.612901 -0.257488
C24   C     C_R   0.718878 0.547252 0.273498 -0.023184
C25   C     C_3   0.463236 0.696686 0.668388 -0.305136
C26   C     C_3   0.489225 0.739300 0.630587 -0.443284
C27   C     C_3   0.613966 0.749027 0.378114 -0.256419
C28   C     C_3   0.668072 0.792379 0.465523 -0.310848
C29   C     C_3   0.645787 0.850875 0.495908 -0.430375
C30   C     C_3   0.680917 0.998303 0.875321 -0.250886
C31   C     C_3   0.741286 0.011589 0.978144 -0.301930
C32   C     C_3   0.747355 0.091373 0.007333 -0.450539
C33   C     C_3   0.293094 0.030122 0.097405 -0.251085
C34   C     C_3   0.225308 0.043996 0.008087 -0.293576
C35   C     C_R   0.716057 0.044570 0.660030 -0.033459
C36   C     C_3   0.203341 0.118394 0.012938 -0.443498
C37   C     C_3   0.205883 0.529022 0.905147 -0.254504
C38   C     C_3   0.274177 0.544576 0.990451 -0.301015
C39   C     C_3   0.282656 0.618740 0.035842 -0.456815
C40   C     C_3   0.816374 0.498815 0.121039 -0.251143
C41   C     C_3   0.755459 0.509744 0.018104 -0.301739
C42   C     C_3   0.747092 0.589224 0.986738 -0.450876
C43   C     C_3   0.642662 0.871719 0.936950 -0.253127
C44   C     C_3   0.690528 0.830569 0.031879 -0.320859
C45   C     C_3   0.676149 0.835752 0.098386 -0.417407
C46   C     C_R   0.284283 0.040670 0.342639 -0.031977
C47   C     C_3   0.313949 0.927939 0.993068 -0.259838
C48   C     C_3   0.325467 0.870519 0.945085 -0.294487
C49   C     C_3   0.306810 0.899363 0.851150 -0.418898
C50   C     C_3   0.184186 0.425042 0.006052 -0.261010
C51   C     C_3   0.176777 0.365356 0.056762 -0.296666
C52   C     C_3   0.194940 0.393634 0.150650 -0.424505
C53   C     C_3   0.857306 0.373296 0.061927 -0.252400
C54   C     C_3   0.810068 0.329912 0.968685 -0.321191
C55   C     C_3   0.823339 0.334855 0.900778 -0.417354
C56   C     C_3   0.679441 0.084621 0.563780 -0.233065
C57   C     C_R   0.215398 0.537612 0.655790 -0.033828
C58   C     C_3   0.669849 0.165582 0.572681 -0.280136
C59   C     C_3   0.629101 0.202841 0.474546 -0.449590
C60   C     C_3   0.321293 0.077287 0.441241 -0.232408
C61   C     C_3   0.330171 0.159324 0.436843 -0.282792
C62   C     C_3   0.370288 0.193592 0.536904 -0.448871
C63   C     C_3   0.178124 0.572061 0.555972 -0.235105
C64   C     C_3   0.170842 0.654810 0.558506 -0.281297
C65   C     C_3   0.132057 0.687573 0.457827 -0.448609
C66   C     C_3   0.820498 0.584718 0.436306 -0.233227
C67   C     C_3   0.830032 0.665655 0.427474 -0.280196
C68   C     C_R   0.783911 0.544556 0.340023 -0.033703
C69   C     C_3   0.870759 0.703020 0.525640 -0.449615
C70   C     C_3   0.855997 0.095493 0.546868 -0.260033
C71   C     C_3   0.832081 0.018692 0.503692 -0.306251
C72   C     C_3   0.841299 0.001282 0.432442 -0.456797
C73   C     C_3   0.149334 0.089577 0.463907 -0.260284
C74   C     C_3   0.175837 0.013761 0.508647 -0.304844
C75   C     C_3   0.169750 0.996332 0.583454 -0.458666
C76   C     C_3   0.341700 0.567111 0.524010 -0.266182
C77   C     C_3   0.277979 0.578694 0.424970 -0.294490
C78   C     C_3   0.274440 0.545858 0.344981 -0.455247
C79   C     C_R   0.685865 0.000074 0.681544 -0.002864
C80   C     C_3   0.644098 0.596277 0.453365 -0.260059
C81   C     C_3   0.668011 0.519527 0.496548 -0.306193
C82   C     C_3   0.658851 0.502422 0.567879 -0.456870
C83   C     C_R   0.314248 0.000303 0.317331 0.002254
C84   C     C_R   0.185629 0.499874 0.683003 0.001244
C85   C     C_R   0.499841 0.000018 0.639768 0.553459
C86   C     C_R   0.814142 0.500088 0.318431 -0.002703
C87   C     C_R   0.720052 0.956567 0.765229 -0.051782
C88   C     C_R   0.279890 0.961902 0.229502 -0.045727
C89   C     C_R   0.220083 0.463005 0.771820 -0.047753
C90   C     C_R   0.780039 0.456531 0.234674 -0.051697
C91   C     C_R   0.822598 0.072795 0.644527 -0.085191
C92   C     C_R   0.179621 0.067778 0.361782 -0.086123
C93   C     C_R   0.317597 0.556453 0.631649 -0.097491
C94   C     C_R   0.677385 0.573104 0.355553 -0.085214
C95   C     C_R   0.847309 0.120397 0.616861 0.007103
C96   C     C_R   0.000162 0.499928 0.360235 0.550547
C97   C     C_R   0.155271 0.114646 0.390866 0.005727
C98   C     C_R   0.343761 0.598531 0.602580 0.005523
C99   C     C_R   0.652725 0.620900 0.383288 0.007077
C100  C     C_R   0.863876 0.192758 0.655221 0.039804
C101  C     C_R   0.136484 0.186431 0.351079 0.039315
C102  C     C_R   0.367995 0.668900 0.643933 0.045105
C103  C     C_R   0.636148 0.693200 0.344919 0.039860
C104  C     C_R   0.857460 0.213572 0.723052 0.105280
C105  C     C_R   0.140624 0.207460 0.280836 0.108129
C106  C     C_R   0.365571 0.694219 0.714765 0.110888
C107  C     C_R   0.999810 0.500023 0.639737 0.553921
C108  C     C_R   0.642459 0.713745 0.276959 0.105135
C109  C     C_R   0.833576 0.164457 0.749417 -0.068377
C110  C     C_R   0.165037 0.159425 0.254169 -0.065671
C111  C     C_R   0.338627 0.651070 0.741307 -0.058415
C112  C     C_R   0.666312 0.664454 0.250549 -0.068489
C113  C     C_R   0.618953 0.999937 0.618041 0.548294
C114  C     C_R   0.381064 0.000009 0.380843 0.553240
C115  C     C_R   0.118904 0.499928 0.619703 0.552387
C116  C     C_R   0.881053 0.499956 0.381972 0.549195
C117  C     C_R   0.813957 0.095320 0.707763 0.003982
C118  C     C_R   0.814208 0.005003 0.811412 -0.009462
C119  C     C_R   0.186620 0.090828 0.296854 0.004712
C120  C     C_R   0.313074 0.583251 0.698103 0.008371
C121  C     C_R   0.685979 0.595390 0.292255 0.004099
C122  C     C_1   0.500843 0.999764 0.283418 -0.072941
C123  C     C_1   0.499124 0.999998 0.716546 -0.080733
C124  C     C_1   0.000892 0.499758 0.283471 -0.082941
C125  C     C_1   0.999155 0.500009 0.716580 -0.073428
C126  C     C_1   0.501112 0.999687 0.218382 -0.068592
C127  C     C_1   0.498860 0.999896 0.781587 -0.076046
C128  C     C_1   0.001160 0.499696 0.218434 -0.077467
C129  C     C_R   0.185882 0.004325 0.189163 -0.013569
C130  C     C_1   0.998885 0.499892 0.781616 -0.069618
C131  C     C_R   0.000004 0.139933 0.000049 0.562982
C132  C     C_R   0.499978 0.639934 0.999997 0.563051
C133  C     C_R   0.881085 0.002988 0.880326 0.554705
C134  C     C_R   0.118954 0.002711 0.119824 0.553304
C135  C     C_R   0.380984 0.502133 0.880076 0.552141
C136  C     C_R   0.618924 0.502854 0.119686 0.554669
C137  C     C_R   0.999994 0.860128 0.999949 0.561939
C138  C     C_R   0.499998 0.360128 0.999953 0.562123
C139  C     C_R   0.499994 0.139686 0.999961 0.566146
C140  C     C_R   0.313970 0.503255 0.810451 -0.016092
C141  C     C_R   0.999995 0.639685 0.999966 0.566651
C142  C     C_R   0.500417 0.999765 0.140141 0.559532
C143  C     C_R   0.499578 0.999846 0.859851 0.559644
C144  C     C_R   0.000427 0.499778 0.140154 0.558577
C145  C     C_R   0.999582 0.499836 0.859858 0.560166
C146  C     C_R   0.499966 0.860304 0.999681 0.557154
C147  C     C_R   0.000021 0.360306 0.000122 0.554667
C148  C     C_1   0.000035 0.217433 0.000158 -0.048510
C149  C     C_1   0.499897 0.717438 0.999839 -0.046264
C150  C     C_R   0.661573 0.776799 0.773941 -0.142710
C151  C     C_R   0.685808 0.504813 0.188611 -0.009389
C152  C     C_R   0.347710 0.805990 0.192802 -0.136118
C153  C     C_R   0.153863 0.304887 0.807230 -0.136187
C154  C     C_R   0.843373 0.278804 0.230579 -0.136886
C155  C     C_1   0.499852 0.782775 0.999559 -0.057754
C156  C     C_1   0.000065 0.282770 0.000205 -0.063974
C157  C     C_1   0.999987 0.782583 0.999868 -0.057833
C158  C     C_1   0.499988 0.282584 0.999866 -0.057719
C159  C     C_1   0.499984 0.217232 0.999883 -0.056367
C160  C     C_1   0.999986 0.717231 0.999890 -0.056513
C161  C     C_R   0.683966 0.831578 0.751911 -0.087204
C162  C     C_R   0.781094 0.047323 0.726548 -0.023194
C163  C     C_R   0.327963 0.849694 0.229941 -0.081439
C164  C     C_R   0.172912 0.349953 0.770271 -0.081122
C165  C     C_R   0.818895 0.332598 0.250358 -0.086142
C166  C     C_R   0.691256 0.902875 0.785695 0.048906
C167  C     C_R   0.308145 0.921204 0.196923 0.037267
C168  C     C_R   0.192053 0.421519 0.803991 0.040604
C169  C     C_R   0.809179 0.403397 0.214029 0.047539
C170  C     C_R   0.675968 0.919875 0.843570 0.040514
C171  C     C_R   0.307590 0.949518 0.124219 0.025385
C172  C     C_R   0.192638 0.448493 0.877304 0.026866
Cu1   Cu    Cu3+1 0.500000 0.927480 0.500000 0.890902
Cu2   Cu    Cu3+1 0.438200 0.999990 0.938190 0.873646
Cu3   Cu    Cu3+1 0.061800 0.499990 0.061810 0.867766
Cu4   Cu    Cu3+1 0.938200 0.499990 0.938190 0.891293
Cu5   Cu    Cu3+1 1.000000 0.427480 0.500000 0.891366
Cu6   Cu    Cu3+1 0.500000 0.072500 0.500000 0.878289
Cu7   Cu    Cu3+1 1.000000 0.572500 0.500000 0.880014
Cu8   Cu    Cu3+1 0.999980 0.000040 0.072510 0.921273
Cu9   Cu    Cu3+1 0.000020 0.000040 0.927490 0.916218
Cu10  Cu    Cu3+1 0.499980 0.500040 0.072510 0.917364
Cu11  Cu    Cu3+1 0.500020 0.500040 0.927490 0.918381
Cu12  Cu    Cu3+1 0.561800 0.999990 0.061810 0.890517
H1    H     H_    0.630963 0.747822 0.849081 0.101746
H2    H     H_    0.363546 0.751011 0.219641 0.097229
H3    H     H_    0.297806 0.820728 0.927909 0.147427
H4    H     H_    0.265445 0.945610 0.937972 0.134449
H5    H     H_    0.344058 0.975578 0.013255 0.166652
H6    H     H_    0.244625 0.407602 0.202477 0.120429
H7    H     H_    0.167818 0.442937 0.137256 0.182850
H8    H     H_    0.186215 0.350751 0.183151 0.170164
H9    H     H_    0.128096 0.346946 0.008866 0.180124
H10   H     H_    0.206813 0.318015 0.074285 0.149343
H11   H     H_    0.230812 0.448418 0.060510 0.138892
H12   H     H_    0.150454 0.468901 0.982747 0.170886
H13   H     H_    0.138603 0.249880 0.779863 0.098283
H14   H     H_    0.824399 0.392751 0.884024 0.169240
H15   H     H_    0.868080 0.308459 0.934056 0.187709
H16   H     H_    0.786800 0.305911 0.832550 0.133386
H17   H     H_    0.810736 0.271375 0.985112 0.157262
H18   H     H_    0.763157 0.351426 0.931449 0.154379
H19   H     H_    0.855498 0.430970 0.042657 0.160404
H20   H     H_    0.904505 0.353591 0.097498 0.144974
H21   H     H_    0.650537 0.199298 0.441586 0.151628
H22   H     H_    0.583037 0.176710 0.425940 0.174880
H23   H     H_    0.623324 0.261304 0.483158 0.132541
H24   H     H_    0.851308 0.224539 0.259962 0.096737
H25   H     H_    0.648285 0.171380 0.605170 0.185370
H26   H     H_    0.714522 0.194480 0.619887 0.160076
H27   H     H_    0.702614 0.079788 0.533869 0.131570
H28   H     H_    0.634262 0.058078 0.508336 0.156113
H29   H     H_    0.348520 0.186667 0.569001 0.152548
H30   H     H_    0.416528 0.167845 0.584560 0.175685
H31   H     H_    0.375739 0.252841 0.531613 0.132624
H32   H     H_    0.352010 0.168541 0.405277 0.184812
H33   H     H_    0.285228 0.187726 0.390827 0.161040
H34   H     H_    0.298825 0.068738 0.471780 0.131242
H35   H     H_    0.696096 0.818356 0.708542 0.105295
H36   H     H_    0.366813 0.050835 0.494466 0.158225
H37   H     H_    0.154292 0.677722 0.426896 0.151016
H38   H     H_    0.085348 0.663056 0.409928 0.174659
H39   H     H_    0.127616 0.747371 0.461707 0.135261
H40   H     H_    0.148539 0.666838 0.588827 0.184568
H41   H     H_    0.216408 0.681850 0.604821 0.160612
H42   H     H_    0.199538 0.560296 0.524378 0.127568
H43   H     H_    0.132053 0.546598 0.504153 0.156387
H44   H     H_    0.849329 0.699550 0.558604 0.151588
H45   H     H_    0.916841 0.676913 0.574220 0.174786
H46   H     H_    0.327468 0.827465 0.284129 0.115162
H47   H     H_    0.876494 0.761464 0.517077 0.132582
H48   H     H_    0.851589 0.671379 0.394984 0.185428
H49   H     H_    0.785341 0.694530 0.380299 0.160207
H50   H     H_    0.797335 0.579949 0.466223 0.131641
H51   H     H_    0.865699 0.558216 0.491721 0.155982
H52   H     H_    0.815646 0.040828 0.371904 0.147746
H53   H     H_    0.890909 0.003492 0.468895 0.146670
H54   H     H_    0.823878 0.945524 0.402862 0.139473
H55   H     H_    0.857316 0.977192 0.561973 0.158873
H56   H     H_    0.782126 0.015115 0.465066 0.156280
H57   H     H_    0.173549 0.328668 0.715783 0.111924
H58   H     H_    0.832090 0.134653 0.486076 0.141916
H59   H     H_    0.905943 0.097040 0.585155 0.135380
H60   H     H_    0.195945 0.036510 0.643322 0.146185
H61   H     H_    0.120662 0.997401 0.549994 0.147520
H62   H     H_    0.188495 0.941011 0.613370 0.137618
H63   H     H_    0.150638 0.971244 0.451588 0.158885
H64   H     H_    0.225418 0.011921 0.544603 0.157036
H65   H     H_    0.173152 0.129678 0.523768 0.142780
H66   H     H_    0.099740 0.089302 0.427869 0.135262
H67   H     H_    0.308711 0.572104 0.343593 0.144110
H68   H     H_    0.807498 0.319139 0.294592 0.105016
H69   H     H_    0.283319 0.486192 0.356126 0.143702
H70   H     H_    0.227811 0.554911 0.274401 0.143443
H71   H     H_    0.242226 0.552665 0.423073 0.158565
H72   H     H_    0.267888 0.638088 0.411382 0.159717
H73   H     H_    0.377281 0.590969 0.524440 0.140367
H74   H     H_    0.352011 0.507682 0.536905 0.133306
H75   H     H_    0.684538 0.542074 0.628401 0.147583
H76   H     H_    0.609253 0.504725 0.531492 0.146734
H77   H     H_    0.676269 0.446694 0.597472 0.139444
H78   H     H_    0.642742 0.477931 0.438280 0.158936
H79   H     H_    0.809652 0.926162 0.893308 0.128918
H80   H     H_    0.717955 0.515865 0.535110 0.156291
H81   H     H_    0.668041 0.635540 0.514157 0.141924
H82   H     H_    0.594163 0.597913 0.415147 0.135505
H83   H     H_    0.190187 0.931277 0.102047 0.129097
H84   H     H_    0.309785 0.433480 0.900060 0.134260
H85   H     H_    0.359398 0.794533 0.090874 0.100727
H86   H     H_    0.690469 0.425875 0.106629 0.128038
H87   H     H_    0.808103 0.018131 0.615781 0.103918
H88   H     H_    0.195204 0.013375 0.390831 0.103988
H89   H     H_    0.298689 0.503099 0.599891 0.101803
H90   H     H_    0.691898 0.518484 0.384324 0.103919
H91   H     H_    0.884513 0.390359 0.564584 0.161425
H92   H     H_    0.881170 0.325259 0.486830 0.168369
H93   H     H_    0.814793 0.380091 0.441167 0.140230
H94   H     H_    0.800651 0.254554 0.472956 0.153522
H95   H     H_    0.805547 0.318541 0.551716 0.157112
H96   H     H_    0.142115 0.291400 0.908833 0.100337
H97   H     H_    0.919763 0.286598 0.681305 0.143252
H98   H     H_    0.912224 0.221550 0.604197 0.126030
H99   H     H_    0.114133 0.383197 0.441793 0.163835
H100  H     H_    0.121751 0.318130 0.523339 0.163235
H101  H     H_    0.185803 0.375431 0.563796 0.142644
H102  H     H_    0.201637 0.250505 0.532378 0.154940
H103  H     H_    0.192705 0.314471 0.450208 0.156539
H104  H     H_    0.079205 0.278392 0.325872 0.142025
H105  H     H_    0.090296 0.213780 0.406218 0.125815
H106  H     H_    0.460857 0.730205 0.552065 0.141381
H107  H     H_    0.874732 0.250812 0.156146 0.101367
H108  H     H_    0.490403 0.798495 0.644716 0.185698
H109  H     H_    0.536652 0.720384 0.667454 0.136502
H110  H     H_    0.490917 0.709242 0.746049 0.160813
H111  H     H_    0.467993 0.637422 0.661833 0.155129
H112  H     H_    0.368393 0.711509 0.534131 0.135344
H113  H     H_    0.392772 0.775252 0.624275 0.137076
H114  H     H_    0.615821 0.890797 0.436808 0.161478
H115  H     H_    0.619748 0.825518 0.514774 0.168769
H116  H     H_    0.685890 0.880517 0.559893 0.140229
H117  H     H_    0.699863 0.755073 0.527165 0.153598
H118  H     H_    0.827652 0.181531 0.799526 0.115208
H119  H     H_    0.694542 0.819265 0.448383 0.156989
H120  H     H_    0.580484 0.787327 0.319186 0.143115
H121  H     H_    0.587981 0.722425 0.396210 0.126182
H122  H     H_    0.920057 0.294092 0.802088 0.235533
H123  H     H_    0.847561 0.323815 0.710495 0.229319
H124  H     H_    0.074730 0.284562 0.200265 0.233316
H125  H     H_    0.146358 0.318178 0.289233 0.226785
H126  H     H_    0.434875 0.768283 0.790054 0.233963
H127  H     H_    0.363205 0.804793 0.707932 0.221719
H128  H     H_    0.579801 0.794193 0.197924 0.234802
H129  H     H_    0.169427 0.176822 0.202440 0.114105
H130  H     H_    0.652304 0.823998 0.289398 0.229409
H131  H     H_    0.747449 0.127400 0.958768 0.151521
H132  H     H_    0.708692 0.107037 0.004206 0.159094
H133  H     H_    0.791233 0.099324 0.082091 0.136837
H134  H     H_    0.743384 0.976922 0.029716 0.156890
H135  H     H_    0.780871 0.997190 0.983085 0.170163
H136  H     H_    0.678410 0.036887 0.826272 0.151340
H137  H     H_    0.640665 0.012846 0.868399 0.137132
H138  H     H_    0.205287 0.120631 0.075419 0.158584
H139  H     H_    0.232446 0.162555 0.019697 0.146902
H140  H     H_    0.336024 0.671462 0.794057 0.115930
H141  H     H_    0.155038 0.127533 0.946231 0.141121
H142  H     H_    0.219741 0.042771 0.942309 0.139747
H143  H     H_    0.195001 0.001228 0.000258 0.172953
H144  H     H_    0.305468 0.061439 0.159858 0.155940
H145  H     H_    0.323394 0.053358 0.085633 0.127317
H146  H     H_    0.263428 0.662778 0.981417 0.154368
H147  H     H_    0.259350 0.619495 0.065908 0.149965
H148  H     H_    0.332407 0.629428 0.095140 0.137283
H149  H     H_    0.294606 0.501770 0.046470 0.154847
H150  H     H_    0.300405 0.545274 0.965547 0.178607
H151  H     H_    0.672191 0.681343 0.200384 0.115137
H152  H     H_    0.191093 0.562448 0.842661 0.147841
H153  H     H_    0.176930 0.548780 0.921311 0.138793
H154  H     H_    0.746256 0.625314 0.034599 0.151374
H155  H     H_    0.785119 0.606297 0.988966 0.158579
H156  H     H_    0.702870 0.595456 0.911951 0.135704
H157  H     H_    0.754045 0.474935 0.967194 0.156461
H158  H     H_    0.716459 0.493916 0.013996 0.169870
H159  H     H_    0.818138 0.537660 0.169286 0.151359
H160  H     H_    0.856046 0.514682 0.127039 0.137659
H161  H     H_    0.673674 0.893745 0.113356 0.170948
H162  H     H_    0.655796 0.722029 0.746916 0.095915
H163  H     H_    0.631815 0.808174 0.064894 0.186180
H164  H     H_    0.712896 0.808128 0.167603 0.133695
H165  H     H_    0.691643 0.771891 0.017676 0.156784
H166  H     H_    0.736954 0.853754 0.069258 0.154717
H167  H     H_    0.642557 0.929532 0.954094 0.160931
H168  H     H_    0.595906 0.850157 0.901023 0.143275
H169  H     H_    0.256584 0.910240 0.798354 0.118959
H170  H     H_    0.331822 0.950611 0.864092 0.180988
H171  H     H_    0.317879 0.858068 0.820059 0.163780
H172  H     H_    0.375048 0.855818 0.994565 0.183468
N1    N     N_3   0.873528 0.285001 0.765022 -0.641628
N2    N     N_3   0.121393 0.277967 0.236315 -0.645096
N3    N     N_3   0.389075 0.764171 0.759950 -0.644265
N4    N     N_3   0.626326 0.785080 0.234915 -0.641872
O1    O     O_R   0.500010 0.938760 0.394210 -0.503432
O2    O     O_R   0.552210 1.000000 0.946390 -0.518172
O3    O     O_R   0.947790 0.500000 0.053610 -0.517185
O4    O     O_R   0.052210 0.500000 0.946390 -0.523432
O5    O     O_R   0.552190 0.894190 0.052180 -0.507539
O6    O     O_R   0.447810 0.894190 0.947820 -0.505822
O7    O     O_R   0.052190 0.394190 0.052180 -0.503284
O8    O     O_R   0.947810 0.394190 0.947820 -0.506593
O9    O     O_R   0.499990 0.061230 0.394210 -0.512479
O10   O     O_R   0.500010 0.061230 0.605790 -0.511553
O11   O     O_R   0.999990 0.561230 0.394210 -0.510668
O12   O     O_R   0.499990 0.938760 0.605790 -0.508430
O13   O     O_R   0.000010 0.561230 0.605790 -0.512495
O14   O     O_R   0.590180 0.938760 0.590180 -0.508031
O15   O     O_R   0.409820 0.938760 0.409820 -0.508646
O16   O     O_R   0.090180 0.438760 0.590180 -0.515490
O17   O     O_R   0.909820 0.438760 0.409820 -0.507580
O18   O     O_R   0.590160 0.061230 0.590180 -0.518248
O19   O     O_R   0.409840 0.061230 0.409820 -0.518402
O20   O     O_R   0.090160 0.561230 0.590180 -0.516465
O21   O     O_R   0.909840 0.561230 0.409820 -0.518038
O22   O     O_R   0.999970 0.105830 0.061210 -0.505195
O23   O     O_R   0.000010 0.438760 0.394210 -0.502891
O24   O     O_R   0.000030 0.105830 0.938790 -0.505886
O25   O     O_R   0.499970 0.605830 0.061210 -0.505425
O26   O     O_R   0.500030 0.605830 0.938790 -0.505780
O27   O     O_R   0.909810 0.000030 0.971060 -0.519391
O28   O     O_R   0.090190 0.000030 0.028940 -0.520913
O29   O     O_R   0.409810 0.500030 0.971060 -0.523358
O30   O     O_R   0.590190 0.500030 0.028940 -0.519982
O31   O     O_R   0.909820 1.000000 0.848600 -0.501446
O32   O     O_R   0.090180 1.000000 0.151400 -0.499728
O33   O     O_R   0.409820 0.500000 0.848600 -0.497887
O34   O     O_R   0.999990 0.438760 0.605790 -0.503577
O35   O     O_R   0.590180 0.500000 0.151400 -0.501280
O36   O     O_R   0.000000 0.894230 0.061260 -0.505476
O37   O     O_R   1.000000 0.894230 0.938740 -0.505629
O38   O     O_R   0.500000 0.394230 0.061260 -0.505149
O39   O     O_R   0.500000 0.394230 0.938740 -0.505691
O40   O     O_R   0.552180 0.105790 0.052210 -0.501742
O41   O     O_R   0.447820 0.105790 0.947790 -0.504810
O42   O     O_R   0.052180 0.605790 0.052210 -0.505436
O43   O     O_R   0.947820 0.605790 0.947790 -0.501312
O44   O     O_R   0.552180 0.999990 0.157990 -0.502899
O45   O     O_R   0.447820 0.999990 0.842010 -0.502857
O46   O     O_R   0.052180 0.499990 0.157990 -0.504630
O47   O     O_R   0.947820 0.499990 0.842010 -0.502293
O48   O     O_R   0.447790 0.000000 0.053610 -0.521692

loop_
_geom_bond_atom_site_label_1
_geom_bond_atom_site_label_2
_ccdc_geom_bond_type
C99   C103  A    
C105  C110  A    
C147  O7    A    
C49   H171  S    
C105  N2    S    
Cu2   O45   S    
C37   C172  S    
C79   C87   A    
C44   C45   S    
H124  N2    S    
C104  N1    S    
C141  O42   A    
C66   H50   S    
C114  O19   A    
C26   H108  S    
C92   C119  A    
C61   H33   S    
C116  O21   A    
C145  O4    A    
C76   C98   S    
H127  N3    S    
C100  C104  A    
C62   H31   S    
C1    C122  S    
C11   C154  A    
C131  O24   A    
C55   H15   S    
C26   H109  S    
C61   H32   S    
Cu3   O46   S    
C83   C88   A    
C139  C159  S    
C21   C22   S    
C62   H30   S    
C83   C114  S    
C77   H72   S    
C164  H57   S    
C65   H38   S    
C165  C169  A    
C45   H163  S    
C30   H137  S    
C82   H76   S    
C51   C52   S    
C35   C162  A    
C164  C168  A    
C15   H84   S    
C86   C90   A    
Cu2   Cu12  S    
Cu10  O25   S    
C3    C169  A    
C167  C171  A    
C39   H148  S    
Cu8   O27   S    
C72   H52   S    
C8    C150  A    
C43   C44   S    
C6    C10   A    
C37   C38   S    
C24   C151  A    
C30   H136  S    
C50   H11   S    
Cu3   Cu4   S    
C42   H154  S    
C82   H77   S    
C36   H139  S    
C127  C143  S    
C41   H158  S    
C128  C144  S    
C17   H98   S    
C59   H22   S    
Cu8   O36   S    
Cu1   O1    S    
C157  C160  T    
Cu9   O37   S    
C161  H35   S    
C158  C159  T    
C7    C53   S    
C23   H112  S    
C142  O48   A    
C150  C161  A    
Cu8   O22   S    
C109  H118  S    
C118  C162  A    
C44   H165  S    
C33   H144  S    
C46   C60   S    
C26   H106  S    
Cu6   O10   S    
C4    C43   S    
H123  N1    S    
C71   H56   S    
C60   H36   S    
C149  C155  T    
C14   C88   A    
C22   H100  S    
C29   H115  S    
Cu12  O2    S    
C136  O35   A    
C24   C121  S    
C85   C123  S    
C16   C151  A    
C17   C100  S    
C28   H117  S    
C18   H95   S    
Cu4   O43   S    
C20   C21   S    
C72   H53   S    
C112  H151  S    
C41   C42   S    
C47   H5    S    
C139  O40   A    
C111  H140  S    
C6    C172  A    
C53   C54   S    
C93   H89   S    
Cu1   O12   S    
C53   H19   S    
C4    C170  A    
C80   H82   S    
C18   C19   S    
C60   H34   S    
C20   H104  S    
C38   C39   S    
C13   C57   A    
C32   H132  S    
C2    C129  A    
C36   H141  S    
C137  O37   A    
C139  O41   A    
C132  O26   A    
C115  O20   A    
Cu10  Cu11  S    
C19   H92   S    
Cu5   Cu7   S    
C154  C165  A    
C38   H149  S    
C21   H102  S    
C146  O5    A    
C66   C67   S    
C131  O22   A    
C25   H111  S    
C143  O2    A    
C64   H41   S    
C92   C97   A    
C57   C63   S    
C73   H65   S    
C106  C111  A    
Cu4   O3    S    
C42   H155  S    
H126  N3    S    
C106  N3    S    
C107  C125  S    
C56   H27   S    
C152  H2    S    
C51   H9    S    
C20   C101  S    
C25   C26   S    
C34   H143  S    
C107  O13   A    
C129  C134  S    
C52   H7    S    
C27   H120  S    
C28   H119  S    
C5    C9    A    
C69   H45   S    
C70   H59   S    
C15   C89   A    
C74   H64   S    
C138  C158  S    
C123  C127  T    
C31   C32   S    
Cu11  O33   S    
Cu1   O15   S    
C17   C18   S    
C6    C50   S    
C75   H62   S    
C40   H159  S    
C85   O10   A    
C93   C120  A    
C32   H133  S    
C166  C170  A    
C138  O39   A    
C79   C113  S    
C80   C99   S    
C36   H138  S    
Cu12  O40   S    
C69   H44   S    
C13   C120  S    
C14   H83   S    
C58   H25   S    
C59   H23   S    
C9    H85   S    
C54   C55   S    
C49   H170  S    
C78   H69   S    
C110  C119  A    
C16   H86   S    
C96   O11   A    
C117  C162  S    
C54   H17   S    
C38   H150  S    
C76   H73   S    
C137  C157  S    
C66   H51   S    
Cu5   O17   S    
C112  C121  A    
C1    O9    A    
Cu1   Cu6   S    
C90   C169  S    
C35   C79   A    
Cu4   O8    S    
C56   C58   S    
C34   C36   S    
C61   C62   S    
C152  C163  A    
C91   C95   A    
C63   C64   S    
C142  O44   A    
Cu12  O5    S    
C134  O32   A    
C16   C90   A    
C78   H67   S    
C165  H68   S    
C73   C74   S    
C77   H71   S    
C163  H46   S    
C65   H37   S    
C43   H168  S    
C109  C117  A    
C77   C78   S    
C145  O47   A    
C33   H145  S    
C28   C29   S    
Cu7   O13   S    
C3    C7    A    
C69   H47   S    
C30   C31   S    
C92   H88   S    
Cu11  O39   S    
C64   H40   S    
Cu3   O4    S    
C30   C170  S    
C75   H60   S    
C50   H12   S    
C85   O12   A    
C146  C155  S    
Cu12  O44   S    
C91   C117  A    
C110  H129  S    
C70   C71   S    
C41   H157  S    
Cu10  O35   S    
Cu6   O18   S    
C124  C128  T    
Cu11  O26   S    
C17   H97   S    
C59   H21   S    
C11   H107  S    
C35   C56   S    
Cu9   O28   S    
C147  O8    A    
C130  C145  S    
C132  C149  S    
C10   C153  A    
C135  C140  S    
C44   H166  S    
C141  O43   A    
C113  O14   A    
Cu5   O16   S    
C13   C140  A    
C48   H3    S    
C115  O16   A    
C133  O31   A    
C95   C100  A    
C144  O3    A    
C58   C59   S    
C126  C142  S    
C108  C112  A    
C1    O1    A    
C60   C61   S    
C71   H55   S    
C7    C11   A    
C89   C168  S    
C22   H101  S    
C29   H114  S    
C43   H167  S    
C55   H16   S    
H125  N2    S    
C88   C167  S    
C50   C51   S    
C57   C84   A    
C52   H6    S    
C147  C156  S    
C12   C118  A    
C48   C49   S    
C19   H93   S    
C67   H48   S    
C62   H29   S    
Cu3   O7    S    
C33   C171  S    
C65   H39   S    
C136  C151  S    
Cu8   Cu9   S    
C15   C140  A    
C39   H146  S    
C45   H164  S    
C82   H75   S    
Cu7   O11   S    
C113  O18   A    
C94   H90   S    
C63   H43   S    
Cu9   O31   S    
C64   C65   S    
C150  H162  S    
C98   C102  A    
C31   H134  S    
C37   H153  S    
C27   C103  S    
C135  O29   A    
C48   H172  S    
C137  O36   A    
C116  O17   A    
C24   C68   A    
C46   C83   A    
C87   C166  S    
C94   C121  A    
C168  C172  A    
H122  N1    S    
C148  C156  T    
C10   H96   S    
C154  H24   S    
C146  O6    A    
C96   O23   A    
C14   C129  A    
C66   C68   S    
C9    C152  A    
C25   H110  S    
C68   C86   A    
C4    C8    A    
Cu6   O9    S    
C81   C82   S    
Cu3   O42   S    
C2    C46   A    
C73   C97   S    
C5    C47   S    
C20   H105  S    
C86   C116  S    
C56   H28   S    
C91   H87   S    
C22   H99   S    
C29   H116  S    
C104  C109  A    
C23   C102  S    
C153  H13   S    
C136  O30   A    
C134  O28   A    
C52   H8    S    
C135  O33   A    
C18   H94   S    
Cu10  O29   S    
C125  C130  T    
C19   H91   S    
Cu1   O14   S    
C103  C108  A    
C161  C166  A    
C23   H113  S    
C40   H160  S    
C107  O34   A    
Cu2   O6    S    
C81   H78   S    
Cu10  O38   S    
C63   H42   S    
C58   H26   S    
C101  C105  A    
Cu8   O32   S    
C53   H20   S    
C74   C75   S    
C96   C124  S    
C153  C164  A    
C49   H169  S    
C80   H81   S    
C78   H70   S    
C143  O45   A    
C76   C77   S    
H128  N4    S    
C108  N4    S    
C32   H131  S    
C54   H18   S    
C76   H74   S    
C27   H121  S    
C111  C120  A    
C67   C69   S    
C12   H79   S    
C122  C126  T    
C163  C167  A    
C132  O25   A    
Cu7   O20   S    
Cu11  O30   S    
C141  C160  S    
C47   C48   S    
Cu5   O34   S    
C33   C34   S    
C5    C171  A    
C42   H156  S    
C131  C148  S    
C21   H103  S    
C118  C133  S    
C40   C41   S    
C84   C115  S    
Cu5   O23   S    
H130  N4    S    
C84   C89   A    
Cu7   O21   S    
C133  O27   A    
C73   H66   S    
Cu4   O47   S    
C67   H49   S    
C144  O46   A    
C12   C87   A    
C80   C81   S    
C51   H10   S    
C75   H61   S    
C3    C40   S    
Cu2   O48   S    
C2    C119  S    
Cu9   O24   S    
C39   H147  S    
C8    H1    S    
C45   H161  S    
C34   H142  S    
C114  O15   A    
C55   H14   S    
C70   C95   S    
C70   H58   S    
C74   H63   S    
C94   C99   A    
C102  C106  A    
C72   H54   S    
C23   C25   S    
C37   H152  S    
Cu2   O41   S    
C31   H135  S    
C71   C72   S    
C81   H80   S    
C138  O38   A    
C27   C28   S    
C47   H4    S    
C93   C98   A    
C97   C101  A    
Cu6   O19   S    
