data_mof_unit_63710.cif
_audit_creation_date              2012-10-26T18:35:17-0400
_audit_creation_method            fapswitch 2.2
_symmetry_space_group_name_H-M    P1
_symmetry_Int_Tables_number       1
_space_group_crystal_system       triclinic
_cell_length_a                    10.928377
_cell_length_b                    14.423357
_cell_length_c                    13.107004
_cell_angle_alpha                 89.63679
_cell_angle_beta                  89.574618
_cell_angle_gamma                 90.045679
_cell_volume                      2065.87767876

loop_
_atom_site_label
_atom_site_type_symbol
_atom_type_description
_atom_site_fract_x
_atom_site_fract_y
_atom_site_fract_z
_atom_type_partial_charge
Br1   Br    Br    0.153846 0.666640 0.597916 -0.332108
Br2   Br    Br    0.130261 0.646756 0.368599 -0.361839
Br3   Br    Br    0.870173 0.644839 0.636963 -0.358112
Br4   Br    Br    0.847085 0.670073 0.408665 -0.327900
C1    C     C_R   0.500827 0.328658 0.500180 0.649878
C2    C     C_R   0.741286 0.485789 0.499727 0.660987
C3    C     C_R   0.500048 0.671321 0.499722 0.603552
C4    C     C_3   0.068901 0.436550 0.604815 0.095476
C5    C     C_3   0.074648 0.427897 0.406305 0.082893
C6    C     C_3   0.925953 0.427341 0.597129 0.083116
C7    C     C_3   0.933112 0.441948 0.396804 0.094919
C8    C     C_3   0.073155 0.586467 0.496587 0.205473
C9    C     C_3   0.927404 0.586941 0.508482 0.206992
C10   C     C_3   0.122442 0.481978 0.502753 -0.123295
C11   C     C_3   0.878072 0.483011 0.499854 -0.119612
C12   C     C_1   0.501213 0.957565 0.499715 0.064480
C13   C     C_1   0.501522 0.227048 0.500548 0.108964
C14   C     C_1   0.501672 0.142254 0.500455 0.046480
C15   C     C_1   0.501506 0.042379 0.500086 0.061310
C16   C     C_1   0.500780 0.857674 0.499357 0.037185
C17   C     C_1   0.500411 0.772862 0.499285 0.054435
C18   C     C_1   0.499879 0.500014 0.173540 0.218403
C19   C     C_1   0.499956 0.499982 0.826453 0.204601
C20   C     C_1   0.499872 0.499974 0.050689 0.018184
C21   C     C_1   0.499901 0.499960 0.949308 0.014554
C22   C     C_R   0.258981 0.485446 0.500868 0.662389
Cu1   Cu    Cu3+1 0.500000 0.499990 0.592680 1.187580
Cu2   Cu    Cu3+1 0.500000 0.499990 0.407320 1.179783
H1    H     H_    0.083213 0.491076 0.663049 0.164424
H2    H     H_    0.113955 0.463486 0.338232 0.176969
H3    H     H_    0.890536 0.464418 0.664971 0.173947
H4    H     H_    0.925748 0.500353 0.341558 0.163695
H5    H     H_    0.142392 0.286958 0.824288 0.379440
H6    H     H_    0.227617 0.245307 0.259597 0.371952
H7    H     H_    0.848302 0.220977 0.754198 0.376199
H8    H     H_    0.879744 0.256260 0.205764 0.376971
N1    N     N_1   0.500000 0.500020 0.268070 -0.133047
N2    N     N_1   0.500000 0.500020 0.731930 -0.136017
O1    O     O_R   0.500000 0.376050 0.578280 -0.437543
O2    O     O_2   0.284085 0.351424 0.671252 -0.267767
O3    O     O_3   0.102469 0.341587 0.792713 -0.458221
O4    O     O_2   0.246884 0.295840 0.453854 -0.293352
O5    O     O_2   0.048298 0.235693 0.405518 -0.117786
O6    O     O_3   0.187210 0.306528 0.265320 -0.480181
O7    O     O_2   0.721365 0.318442 0.614968 -0.304254
O8    O     O_2   0.902509 0.238563 0.556356 -0.135373
O9    O     O_3   0.884458 0.283615 0.746059 -0.442731
O10   O     O_2   0.749938 0.406743 0.263254 -0.280022
O11   O     O_2   0.783664 0.287247 0.392033 -0.221527
O12   O     O_R   0.500000 0.376050 0.421720 -0.475018
O13   O     O_3   0.934519 0.301828 0.238499 -0.417596
O14   O     O_R   0.317680 0.499980 0.578260 -0.446015
O15   O     O_R   0.317680 0.499980 0.421740 -0.477473
O16   O     O_R   0.682320 0.499980 0.578260 -0.468387
O17   O     O_R   0.682320 0.499980 0.421740 -0.439080
O18   O     O_R   0.500000 0.623940 0.578240 -0.473366
O19   O     O_R   0.500000 0.623940 0.421760 -0.472767
O20   O     O_2   0.120199 0.247547 0.625414 -0.142510
S1    S     S_3+6 0.147973 0.340683 0.669885 0.107126
S2    S     S_3+6 0.138429 0.312377 0.387175 0.110218
S3    S     S_3+6 0.857143 0.314048 0.624450 0.103823
S4    S     S_3+6 0.845933 0.357007 0.324055 0.096501

loop_
_geom_bond_atom_site_label_1
_geom_bond_atom_site_label_2
_ccdc_geom_bond_type
O9    S3    S    
Cu2   O15   S    
C20   C21   T    
C22   O14   A    
C19   N2    T    
Br2   C8    S    
O10   S4    D    
Br3   C9    S    
C9    C11   S    
C2    O17   A    
C12   C16   S    
C7    S4    S    
H5    O3    S    
C16   C17   T    
C19   C21   S    
C13   C14   T    
O20   S1    D    
Cu1   O16   S    
H7    O9    S    
O2    S1    D    
Cu2   O19   S    
C10   C22   S    
C5    C7    S    
H8    O13   S    
C7    C11   S    
O5    S2    D    
C2    O16   A    
C12   C15   T    
O13   S4    S    
C4    H1    S    
C5    H2    S    
O7    S3    D    
Cu2   O17   S    
C8    C10   S    
C7    H4    S    
C3    O18   A    
C6    C11   S    
C1    O1    A    
C4    S1    S    
Cu1   O14   S    
C18   C20   S    
C1    O12   A    
O6    S2    S    
C6    S3    S    
C1    C13   S    
O8    S3    D    
Cu1   O1    S    
C22   O15   A    
Br4   C9    S    
H6    O6    S    
C8    C9    S    
O3    S1    S    
C4    C6    S    
C14   C15   S    
O4    S2    D    
Cu1   Cu2   S    
C5    C10   S    
Cu1   O18   S    
C4    C10   S    
O11   S4    D    
Cu1   N2    S    
C2    C11   S    
C3    C17   S    
C18   N1    T    
Cu2   O12   S    
C6    H3    S    
C3    O19   A    
Br1   C8    S    
Cu2   N1    S    
C5    S2    S    
