data_mof_unit_62472.cif
_audit_creation_date              2013-03-05T16:26:54-0500
_audit_creation_method            fapswitch 2.2
_symmetry_space_group_name_H-M    P1
_symmetry_Int_Tables_number       1
_space_group_crystal_system       triclinic
_cell_length_a                    19.475694
_cell_length_b                    18.273949
_cell_length_c                    15.048862
_cell_angle_alpha                 89.995819
_cell_angle_beta                  91.682773
_cell_angle_gamma                 89.947819
_cell_volume                      5353.54542093

loop_
_atom_site_label
_atom_site_type_symbol
_atom_site_description
_atom_site_fract_x
_atom_site_fract_y
_atom_site_fract_z
_atom_type_partial_charge
O1    O     O_R   0.400190 0.561980 0.499990 -0.566162
O2    O     O_R   0.599810 0.438020 0.500010 -0.568876
O3    O     O_R   0.599810 0.561980 0.500010 -0.568370
O4    O     O_R   0.400190 0.438020 0.499990 -0.561149
C1    C     C_R   0.367921 0.499864 0.499774 0.879507
C2    C     C_R   0.632206 0.499871 0.498512 0.889940
O5    O     O_R   0.499980 0.561960 0.370260 -0.546875
O6    O     O_R   0.500020 0.438040 0.629740 -0.554213
O7    O     O_R   0.500020 0.561960 0.629740 -0.542996
O8    O     O_R   0.499980 0.438040 0.370260 -0.554782
C3    C     C_R   0.499531 0.499934 0.329131 0.934591
C4    C     C_R   0.500929 0.499929 0.670936 0.943030
Cu1   Cu    Cu3+1 0.500000 0.573360 0.500000 1.108941
Cu2   Cu    Cu3+1 0.500000 0.426640 0.500000 1.104161
C5    C     C_R   0.564113 0.502292 0.815860 0.291277
C6    C     C_R   0.436587 0.500905 0.184435 0.301348
C7    C     C_R   0.501379 0.498995 0.767405 -0.234472
C8    C     C_R   0.499332 0.499015 0.232775 -0.229968
C9    C     C_R   0.438925 0.491308 0.810135 0.286600
C10   C     C_R   0.561966 0.492797 0.190177 0.280955
C11   C     C_R   0.438361 0.490269 0.903311 -0.025079
C12   C     C_R   0.562534 0.491143 0.097000 -0.026598
C13   C     C_R   0.501014 0.491628 0.953185 -0.011319
C14   C     C_R   0.499833 0.491661 0.047116 -0.011961
C15   C     C_R   0.564704 0.493263 0.909308 -0.086385
C16   C     C_R   0.436085 0.492536 0.090973 -0.087473
C17   C     C_R   0.376081 0.486763 0.947283 -0.161663
C18   C     C_R   0.624820 0.487654 0.053028 -0.163665
C19   C     C_R   0.374211 0.485276 0.039603 0.335018
C20   C     C_R   0.626642 0.486027 0.960623 0.334872
H1    H     H_    0.327769 0.483170 0.910173 0.227726
H2    H     H_    0.673073 0.483896 0.090296 0.226463
C21   C     C_R   0.741679 0.436439 0.465483 -0.053228
C22   C     C_R   0.255690 0.545271 0.440685 -0.077248
C23   C     C_R   0.257948 0.449311 0.551422 -0.066433
C24   C     C_R   0.745723 0.560743 0.520789 -0.090171
C25   C     C_R   0.813110 0.435517 0.462136 -0.131110
C26   C     C_R   0.184302 0.542883 0.436950 -0.130368
C27   C     C_R   0.186354 0.448372 0.549982 -0.131748
C28   C     C_R   0.817091 0.559165 0.520047 -0.135800
C29   C     C_R   0.851734 0.496687 0.490260 0.089097
C30   C     C_R   0.148628 0.495208 0.492552 0.079540
C31   C     C_R   0.707454 0.499089 0.494998 0.005302
C32   C     C_R   0.292875 0.498853 0.498094 -0.008926
C33   C     C_R   0.964355 0.560010 0.471797 -0.140026
C34   C     C_R   0.035968 0.430080 0.505973 -0.136304
C35   C     C_R   0.035789 0.559938 0.474124 -0.140485
C36   C     C_R   0.964413 0.430588 0.506143 -0.136289
H3    H     H_    0.937986 0.610798 0.456376 0.143179
H4    H     H_    0.062436 0.378693 0.517414 0.144914
H5    H     H_    0.062037 0.611270 0.463770 0.143139
H6    H     H_    0.938041 0.380129 0.520936 0.146565
C37   C     C_R   0.072543 0.494933 0.490793 0.101144
C38   C     C_R   0.927740 0.495584 0.488929 0.099465
C39   C     C_R   0.466612 0.722534 0.433157 0.480866
C40   C     C_R   0.540952 0.278202 0.559862 0.467681
C41   C     C_R   0.533221 0.722277 0.567259 0.470460
C42   C     C_R   0.459097 0.278173 0.440218 0.468123
C43   C     C_R   0.466423 0.799650 0.432637 -0.283505
C44   C     C_R   0.541124 0.201110 0.560888 -0.289085
C45   C     C_R   0.533800 0.799416 0.567745 -0.288746
C46   C     C_R   0.459148 0.201079 0.439179 -0.288849
H7    H     H_    0.440005 0.828248 0.378607 0.184067
H8    H     H_    0.572941 0.173085 0.610325 0.179984
H9    H     H_    0.559881 0.827867 0.622112 0.184633
H10   H     H_    0.427332 0.173031 0.389821 0.179883
C47   C     C_R   0.500294 0.839353 0.500103 -0.015616
C48   C     C_R   0.500194 0.161024 0.500033 -0.005312
N1    N     N_R   0.500000 0.683620 0.500000 -0.299356
N2    N     N_R   0.500000 0.316380 0.500000 -0.302729
C49   C     C_R   0.559782 0.961369 0.524762 -0.149979
C50   C     C_R   0.440595 0.038398 0.476034 -0.149191
C51   C     C_R   0.440733 0.961456 0.475663 -0.148716
C52   C     C_R   0.559882 0.038325 0.524306 -0.149637
C53   C     C_R   0.500232 0.078371 0.500117 0.152922
C54   C     C_R   0.500274 0.921675 0.500195 0.151428
N3    N     N_R   0.625655 0.521029 0.770603 0.161938
O9    O     O_R   0.646104 0.481681 0.704379 -0.302461
O10   O     O_R   0.660242 0.579155 0.793974 -0.244774
N4    N     N_R   0.374705 0.517052 0.230238 0.147856
O11   O     O_R   0.354344 0.474432 0.293436 -0.312949
O12   O     O_R   0.340103 0.576204 0.211096 -0.263317
H11   H     H_    0.606897 0.932833 0.542837 0.151724
H12   H     H_    0.393112 0.066453 0.458745 0.150992
H13   H     H_    0.393613 0.933003 0.457651 0.153563
H14   H     H_    0.607340 0.066333 0.541598 0.150001
N5    N     N_R   0.376054 0.485659 0.758350 0.091010
O13   O     O_R   0.354594 0.540460 0.709830 -0.368333
O14   O     O_R   0.341026 0.425081 0.758372 -0.365859
N6    N     N_R   0.624947 0.489717 0.242128 0.093692
O15   O     O_R   0.645378 0.546315 0.288127 -0.364093
O16   O     O_R   0.659777 0.429017 0.247398 -0.355537
N7    N     N_R   0.309665 0.469261 0.078846 0.164246
O17   O     O_R   0.254286 0.503140 0.051075 -0.286000
O18   O     O_R   0.303793 0.410818 0.127433 -0.247748
N8    N     N_R   0.691089 0.469589 0.921198 0.163932
O19   O     O_R   0.746995 0.501546 0.950463 -0.283681
O20   O     O_R   0.696047 0.412631 0.869875 -0.249184
H15   H     H_    0.713191 0.388502 0.443650 0.182812
H16   H     H_    0.281714 0.581470 0.396327 0.227565
H17   H     H_    0.286073 0.412196 0.595163 0.195670
H18   H     H_    0.720811 0.609982 0.542747 0.205453
H19   H     H_    0.837849 0.387122 0.436678 0.144939
H20   H     H_    0.157271 0.577792 0.389504 0.157904
H21   H     H_    0.160812 0.411621 0.594663 0.150289
H22   H     H_    0.844954 0.606789 0.543977 0.148400
N9    N     N_R   0.429859 0.686313 0.362893 0.150541
O21   O     O_R   0.455340 0.686936 0.283936 -0.316467
O22   O     O_R   0.364015 0.678200 0.369703 -0.352474
N10   N     N_R   0.584362 0.315619 0.622886 0.157626
O23   O     O_R   0.566712 0.317478 0.705559 -0.310667
O24   O     O_R   0.648661 0.324949 0.604894 -0.325560
N11   N     N_R   0.567263 0.685727 0.639674 0.151328
O25   O     O_R   0.543122 0.692672 0.718938 -0.317925
O26   O     O_R   0.630843 0.666005 0.631910 -0.337902
N12   N     N_R   0.415276 0.315558 0.377578 0.158647
O27   O     O_R   0.432448 0.317409 0.294722 -0.309795
O28   O     O_R   0.351077 0.324871 0.396222 -0.311361

loop_
_geom_bond_atom_site_label_1
_geom_bond_atom_site_label_2
_geom_bond_distance
_ccdc_geom_bond_type
C42   C46   1.408885 A    
N5    O13   1.300739 A    
C3    C8    1.450035 S    
N7    O17   1.301328 A    
C39   C43   1.409230 A    
C17   C19   1.391135 A    
Cu2   N2    2.014886 S    
O3    C2    1.298567 A    
N3    O9    1.300676 A    
C48   C53   1.510395 S    
C36   C38   1.405519 A    
O1    C1    1.297930 A    
C9    C11   1.402679 A    
C14   C16   1.423158 A    
C26   C30   1.406070 A    
C36   H6    1.082191 S    
C9    N5    1.435773 S    
C30   C37   1.481271 S    
C49   C54   1.407991 A    
C5    C15   1.415622 A    
N12   O27   1.300856 A    
C24   H18   1.078351 S    
O7    Cu1   1.963495 S    
N10   O23   1.300867 A    
C20   N8    1.435521 S    
C43   C47   1.397856 A    
N8    O20   1.301345 A    
C4    C7    1.451617 S    
C26   H20   1.082186 S    
N9    O21   1.301116 A    
O3    Cu1   1.954766 S    
C35   C37   1.405082 A    
N3    O10   1.301201 A    
C11   C17   1.400177 A    
N7    O18   1.301269 A    
C12   C18   1.400174 A    
Cu1   Cu2   2.681152 S    
C42   N12   1.426636 S    
N9    O22   1.298071 A    
O2    C2    1.295465 A    
C50   C53   1.410951 A    
C18   H2    1.082269 S    
C40   N10   1.426848 S    
O5    C3    1.291398 A    
C27   C30   1.407401 A    
C49   H11   1.082757 S    
C33   C35   1.390631 A    
C6    C16   1.414551 A    
C34   C36   1.393695 A    
C52   C53   1.411113 A    
C46   H10   1.082588 S    
C17   H1    1.082017 S    
C21   C31   1.402990 A    
C24   C28   1.390603 A    
C22   C32   1.397282 A    
C50   C51   1.406048 A    
N4    O12   1.301061 A    
O8    Cu2   1.963495 S    
C25   H19   1.082192 S    
N4    O11   1.300372 A    
C41   N11   1.424746 S    
C10   N6    1.436139 S    
C21   C25   1.393653 A    
C40   C44   1.408866 A    
C39   N9    1.423040 S    
C21   H15   1.083224 S    
C23   C27   1.393994 A    
C22   H16   1.077254 S    
C45   C47   1.398079 A    
N6    O16   1.300873 A    
C33   H3    1.082168 S    
O6    C4    1.289664 A    
N8    O19   1.301373 A    
C50   H12   1.082002 S    
C52   H14   1.082002 S    
C41   C45   1.409718 A    
C23   C32   1.399809 A    
C51   H13   1.082725 S    
C39   N1    1.378775 A    
C28   C29   1.405748 A    
C1    C32   1.461181 S    
C10   C12   1.402897 A    
C33   C38   1.404753 A    
C40   N2    1.375160 A    
C2    C31   1.468058 S    
C11   C13   1.413895 A    
C51   C54   1.408074 A    
C12   C14   1.414565 A    
O1    Cu1   1.955147 S    
C28   H22   1.082118 S    
N11   O25   1.301099 A    
C15   C20   1.419125 A    
C27   H21   1.082029 S    
O6    Cu2   1.963525 S    
C22   C26   1.390547 A    
C42   N2    1.374942 A    
O4    C1    1.292574 A    
C23   H17   1.082314 S    
C49   C52   1.406304 A    
C35   H5    1.082154 S    
C5    C7    1.405677 A    
C34   H4    1.082150 S    
C43   H7    1.083437 S    
C46   C48   1.403316 A    
C44   H8    1.082602 S    
C41   N1    1.380072 A    
C18   C20   1.392404 A    
O4    Cu2   1.954770 S    
C19   N7    1.434892 S    
N6    O15   1.300743 A    
C5    N3    1.437481 S    
Cu1   N1    2.014886 S    
C34   C37   1.405411 A    
C7    C9    1.399626 A    
N12   O28   1.300469 A    
C8    C10   1.399119 A    
C13   C15   1.422570 A    
C25   C29   1.406184 A    
O2    Cu2   1.955143 S    
O7    C4    1.291818 A    
N10   O24   1.300326 A    
C29   C38   1.481112 S    
O8    C3    1.289180 A    
C13   C14   1.414411 A    
C45   H9    1.083435 S    
O5    Cu1   1.963525 S    
C44   C48   1.403209 A    
C16   C19   1.418771 A    
C6    C8    1.404064 A    
N5    O14   1.300847 A    
C24   C31   1.400045 A    
C47   C54   1.504354 S    
C6    N4    1.436262 S    
N11   O26   1.297888 A    
