data_mof_unit_67522.cif
_audit_creation_date              2013-03-05T15:41:20-0500
_audit_creation_method            fapswitch 2.2
_symmetry_space_group_name_H-M    P1
_symmetry_Int_Tables_number       1
_space_group_crystal_system       triclinic
_cell_length_a                    10.588838
_cell_length_b                    8.703678
_cell_length_c                    7.470671
_cell_angle_alpha                 103.056498
_cell_angle_beta                  95.673101
_cell_angle_gamma                 92.205986
_cell_volume                      666.111006988

loop_
_atom_site_label
_atom_site_type_symbol
_atom_site_description
_atom_site_fract_x
_atom_site_fract_y
_atom_site_fract_z
_atom_type_partial_charge
O1    O     O_R   0.509190 0.286130 0.619780 -0.579684
O2    O     O_R   0.490810 0.713870 0.380220 -0.579688
O3    O     O_R   0.485310 0.256770 0.308360 -0.594917
O4    O     O_R   0.514690 0.743230 0.691640 -0.594918
C1    C     C_R   0.496149 0.199678 0.453181 0.873130
C2    C     C_R   0.503849 0.800322 0.546819 0.873141
O5    O     O_R   0.328790 0.514640 0.655680 -0.591614
O6    O     O_R   0.671210 0.485360 0.344320 -0.591604
O7    O     O_R   0.304910 0.485280 0.344260 -0.588699
O8    O     O_R   0.695090 0.514720 0.655740 -0.588716
C3    C     C_R   0.259349 0.492105 0.498227 0.772950
C4    C     C_R   0.740651 0.507879 0.501771 0.772969
Cu1   Cu    Cu3+1 0.514140 0.517380 0.684380 0.927037
Cu2   Cu    Cu3+1 0.485860 0.482620 0.315620 0.927046
N1    N     N_2   0.464560 0.456420 0.038510 -0.221224
N2    N     N_2   0.535440 0.543580 0.961490 -0.221228
C5    C     C_3   0.049282 0.438836 0.639787 -0.201737
C6    C     C_3   0.950717 0.561128 0.360203 -0.201713
C7    C     C_3   0.945041 0.355039 0.483544 -0.203621
C8    C     C_3   0.054958 0.644927 0.516448 -0.203603
H1    H     H_    0.896460 0.237034 0.468857 0.118283
H2    H     H_    0.103543 0.762926 0.531118 0.118277
H3    H     H_    0.094378 0.390672 0.753954 0.162464
H4    H     H_    0.905624 0.609289 0.246031 0.162469
C9    C     C_3   0.877578 0.510034 0.506015 -0.036158
C10   C     C_3   0.122421 0.489934 0.493979 -0.036167
C11   C     C_3   0.980042 0.593467 0.661454 0.068836
C12   C     C_3   0.019959 0.406500 0.338541 0.068844
H5    H     H_    0.399179 0.378766 0.947808 0.222101
H6    H     H_    0.600820 0.621236 0.052191 0.222097
C13   C     C_2   0.494003 0.031765 0.426933 -0.392209
C14   C     C_2   0.505993 0.968235 0.573067 -0.392199
H7    H     H_    0.482484 0.960046 0.286125 0.177279
H8    H     H_    0.517512 0.039954 0.713874 0.177283
C15   C     C_R   0.973183 0.702164 0.848188 0.091586
C16   C     C_R   0.079884 0.724933 0.981483 -0.143546
C17   C     C_R   0.077712 0.827586 0.154192 -0.134991
C18   C     C_R   0.968385 0.906715 0.196715 -0.117562
C19   C     C_R   0.862547 0.887003 0.064440 -0.131443
C20   C     C_R   0.865800 0.787837 0.889378 -0.128382
H9    H     H_    0.165435 0.664354 0.951375 0.147732
H10   H     H_    0.160778 0.845467 0.255069 0.130339
H11   H     H_    0.966419 0.984569 0.331217 0.109086
H12   H     H_    0.779100 0.951626 0.095993 0.127851
H13   H     H_    0.786094 0.782585 0.785915 0.137088
C21   C     C_R   0.026851 0.297789 0.151827 0.091567
C22   C     C_R   0.920175 0.274998 0.018484 -0.143561
C23   C     C_R   0.922385 0.172321 0.845792 -0.134984
C24   C     C_R   0.031732 0.093209 0.803329 -0.117551
C25   C     C_R   0.137541 0.112939 0.935656 -0.131423
C26   C     C_R   0.134242 0.212111 0.110708 -0.128316
H14   H     H_    0.834615 0.335575 0.048541 0.147721
H15   H     H_    0.839337 0.154415 0.744877 0.130317
H16   H     H_    0.033735 0.015353 0.668832 0.109075
H17   H     H_    0.220999 0.048316 0.904161 0.127856
H18   H     H_    0.213919 0.217357 0.214219 0.137036

loop_
_geom_bond_atom_site_label_1
_geom_bond_atom_site_label_2
_geom_bond_distance
_ccdc_geom_bond_type
C2    C14   1.428956 S    
O7    Cu2   1.949305 S    
C13   H7    1.087733 S    
C22   H14   1.082918 S    
C8    C11   1.537915 S    
O3    Cu2   1.953954 S    
C9    C11   1.536948 S    
C10   C12   1.536936 S    
C13   C14   1.328339 D    
C5    H3    1.107986 S    
C4    C9    1.446416 S    
O6    C4    1.294768 A    
C25   H17   1.082716 S    
C11   C15   1.508448 S    
Cu2   N1    2.019658 S    
C15   C20   1.405134 A    
C6    C12   1.541445 S    
C18   H11   1.080202 S    
O2    C2    1.291970 A    
Cu1   Cu2   2.687739 S    
O5    C3    1.294769 A    
C7    C12   1.537909 S    
O7    C3    1.280763 A    
C12   C21   1.508448 S    
C16   H9    1.082907 S    
C19   H12   1.082695 S    
C6    C9    1.530788 S    
C8    C10   1.534238 S    
O1    C1    1.291971 A    
C5    C10   1.530774 S    
O8    C4    1.280761 A    
C23   C24   1.396671 A    
C5    C7    1.552872 S    
C17   C18   1.396643 A    
C8    H2    1.108509 S    
N1    H5    1.029344 S    
C6    C8    1.552878 S    
C23   H15   1.082250 S    
O2    Cu2   1.958244 S    
C6    H4    1.107989 S    
C1    C13   1.428956 S    
O1    Cu1   1.958242 S    
C7    C9    1.534251 S    
N2    H6    1.029347 S    
N1    N2    1.307150 D    
C5    C11   1.541456 S    
C22   C23   1.396516 A    
O3    C1    1.285830 A    
O5    Cu1   1.951765 S    
C18   C19   1.396980 A    
C20   H13   1.078856 S    
O4    C2    1.285831 A    
C26   H18   1.078873 S    
Cu1   N2    2.019658 S    
C17   H10   1.082232 S    
C24   C25   1.396985 A    
C19   C20   1.399195 A    
C16   C17   1.396475 A    
O6    Cu2   1.951767 S    
C15   C16   1.406627 A    
C3    C10   1.446419 S    
C25   C26   1.399222 A    
C21   C22   1.406637 A    
C21   C26   1.405133 A    
C24   H16   1.080234 S    
O4    Cu1   1.953955 S    
C7    H1    1.108510 S    
O8    Cu1   1.949305 S    
C14   H8    1.087733 S    
