data_mof_unit_55844.cif
_audit_creation_date              2012-12-11T14:23:09-0500
_audit_creation_method            fapswitch 2.2
_symmetry_space_group_name_H-M    P1
_symmetry_Int_Tables_number       1
_space_group_crystal_system       triclinic
_cell_length_a                    11.088796
_cell_length_b                    11.055765
_cell_length_c                    18.689705
_cell_angle_alpha                 89.887348
_cell_angle_beta                  90.065465
_cell_angle_gamma                 59.804546
_cell_volume                      1980.36564499

loop_
_atom_site_label
_atom_site_type_symbol
_atom_type_description
_atom_site_fract_x
_atom_site_fract_y
_atom_site_fract_z
_atom_type_partial_charge
C1    C     C_R   0.240174 0.644272 0.610749 0.547394
C2    C     C_R   0.570000 0.164610 0.715167 0.315419
C3    C     C_R   0.573006 0.178554 0.787215 -0.140399
C4    C     C_R   0.654497 0.623078 0.599967 0.535099
C5    C     C_R   0.931282 0.139521 0.810606 0.282399
C6    C     C_R   0.043971 0.109882 0.765825 -0.190746
C7    C     C_R   0.038308 0.090883 0.693105 -0.139046
C8    C     C_R   0.920126 0.100152 0.662899 0.395544
C9    C     C_R   0.675236 0.159632 0.672646 0.025748
C10   C     C_R   0.194820 0.658262 0.838163 -0.010445
C11   C     C_R   0.201619 0.543924 0.800670 0.018660
C12   C     C_3   0.651169 0.569725 0.800496 -0.253981
C13   C     C_R   0.191922 0.549273 0.724888 0.016694
C14   C     C_R   0.225520 0.750465 0.727538 -0.152263
C15   C     C_R   0.217909 0.754174 0.801140 -0.160983
C16   C     C_R   0.630544 0.224073 0.601518 0.607158
C17   C     C_R   0.217130 0.424916 0.836873 -0.105312
C18   C     C_R   0.207943 0.320926 0.799960 -0.129179
C19   C     C_R   0.178295 0.335869 0.727164 -0.062641
C20   C     C_R   0.169643 0.449010 0.689767 -0.056273
C21   C     C_R   0.206273 0.653717 0.687681 0.003335
C22   C     C_R   0.682589 0.687560 0.177635 -0.005924
C23   C     C_3   0.699427 0.676844 0.811330 0.041276
C24   C     C_R   0.755821 0.554616 0.209230 0.047812
C25   C     C_R   0.690566 0.520259 0.262049 0.006713
C26   C     C_R   0.538616 0.764807 0.283930 -0.137839
C27   C     C_R   0.571026 0.794025 0.215770 -0.163092
C28   C     C_R   0.228158 0.648061 0.398290 0.566833
C29   C     C_R   0.900216 0.467305 0.202569 -0.092870
C30   C     C_R   0.967711 0.351932 0.247257 -0.164540
C31   C     C_R   0.892802 0.302701 0.283819 -0.115207
C32   C     C_R   0.749050 0.381801 0.282116 -0.075397
C33   C     C_R   0.606176 0.625616 0.309143 -0.013589
C34   C     C_3   0.670527 0.649320 0.675208 0.048453
C35   C     C_R   0.680824 0.095166 0.188481 -0.005706
C36   C     C_R   0.556344 0.132618 0.225154 0.014384
C37   C     C_R   0.562506 0.112607 0.299333 0.042547
C38   C     C_R   0.792669 0.078333 0.303276 -0.179760
C39   C     C_R   0.801742 0.060472 0.229007 -0.160036
C40   C     C_R   0.612538 0.591246 0.386107 0.540330
C41   C     C_R   0.426683 0.184764 0.191255 -0.097858
C42   C     C_R   0.320516 0.178372 0.225331 -0.136159
C43   C     C_R   0.334134 0.137827 0.297249 -0.090118
C44   C     C_R   0.456004 0.101343 0.333486 -0.061277
C45   C     C_3   0.821915 0.611947 0.690675 -0.252470
C46   C     C_R   0.666956 0.120972 0.337710 -0.014191
C47   C     C_R   0.189119 0.640726 0.174318 -0.052506
C48   C     C_R   0.239779 0.718778 0.206504 -0.034944
C49   C     C_R   0.201400 0.758302 0.277947 -0.002531
C50   C     C_R   0.161643 0.560969 0.290995 0.232510
C51   C     C_R   0.169736 0.547564 0.216494 -0.125493
C52   C     C_R   0.623870 0.214279 0.401083 0.534058
C53   C     C_R   0.289451 0.788899 0.163707 -0.076116
C54   C     C_R   0.252221 0.924147 0.181334 -0.154904
C55   C     C_R   0.184958 0.978175 0.245708 -0.110870
C56   C     C_3   0.635050 0.552532 0.720351 -0.214025
C57   C     C_R   0.171833 0.894117 0.297050 0.368883
C58   C     C_R   0.180679 0.666295 0.323241 0.000485
C59   C     C_R   0.703114 0.102886 0.896042 0.565191
C60   C     C_R   0.724040 0.689018 0.887884 0.549733
C61   C     C_R   0.121771 0.703612 0.907170 0.532608
C62   C     C_R   0.695737 0.057705 0.112197 0.539494
C63   C     C_R   0.724119 0.710907 0.106828 0.537533
C64   C     C_3   0.587214 0.819466 0.778377 -0.216585
C65   C     C_R   0.102070 0.702556 0.109851 0.527424
C66   C     C_3   0.571247 0.803505 0.697640 -0.223123
C67   C     C_R   0.693170 0.157540 0.822703 -0.059850
C68   C     C_3   0.838667 0.629251 0.770620 -0.221879
C69   C     C_3   0.949824 0.272379 0.901012 -0.003809
C70   C     C_3   0.056685 0.240705 0.959920 -0.352370
C71   C     C_3   0.026988 0.526310 0.373811 0.004163
C72   C     C_3   0.043020 0.425250 0.433563 -0.315825
C73   C     C_R   0.808795 0.144683 0.781348 -0.043083
C74   C     C_R   0.800803 0.136706 0.705017 -0.077833
Cr1   Cr    Cr6+3 0.392940 0.397950 0.502230 1.034085
Cr2   Cr    Cr6+3 0.398400 0.708500 0.501260 1.066242
Cr3   Cr    Cr6+3 0.708640 0.393530 0.496460 1.044250
Cr4   Cr    Cr6+3 0.937880 0.938320 0.007620 1.049846
Cr5   Cr    Cr6+3 0.625560 0.937220 0.994510 0.987079
Cr6   Cr    Cr6+3 0.938080 0.625010 0.001190 0.964642
F1    F     F_    0.459910 0.159308 0.686974 -0.650978
F2    F     F_    0.928410 0.059693 0.593644 -0.611941
F3    F     F_    0.111794 0.954904 0.359982 -0.658883
H1    H     H_    0.618350 0.899621 0.786532 0.156818
H2    H     H_    0.241301 0.409077 0.893427 0.125610
H3    H     H_    0.222899 0.837482 0.828864 0.150847
H4    H     H_    0.224173 0.228842 0.828296 0.101064
H5    H     H_    0.166042 0.257708 0.698850 0.131889
H6    H     H_    0.141769 0.457586 0.633913 0.126524
H7    H     H_    0.464776 0.849518 0.317115 0.155536
H8    H     H_    0.960774 0.500873 0.173287 0.142935
H9    H     H_    0.516196 0.899300 0.194957 0.149988
H10   H     H_    0.072156 0.314344 0.261720 0.153534
H11   H     H_    0.945114 0.215778 0.320028 0.160888
H12   H     H_    0.705216 0.440930 0.705609 0.134300
H13   H     H_    0.460701 0.835619 0.686171 0.141122
H14   H     H_    0.685086 0.351882 0.309957 0.139933
H15   H     H_    0.879504 0.065449 0.333961 0.209318
H16   H     H_    0.403113 0.233091 0.139060 0.150837
H17   H     H_    0.901639 0.023874 0.203353 0.164004
H18   H     H_    0.230988 0.202402 0.192922 0.084125
H19   H     H_    0.250847 0.138639 0.327271 0.133210
H20   H     H_    0.464837 0.069286 0.388987 0.136116
H21   H     H_    0.330603 0.750988 0.110695 0.137554
H22   H     H_    0.160021 0.465884 0.191120 0.121685
H23   H     H_    0.922049 0.527727 0.792017 0.148082
H24   H     H_    0.596320 0.874230 0.666806 0.170424
H25   H     H_    0.267332 0.988989 0.143178 0.115729
H26   H     H_    0.139416 0.086407 0.254864 0.108313
H27   H     H_    0.873429 0.706976 0.778256 0.130915
H28   H     H_    0.849010 0.680290 0.658965 0.118382
H29   H     H_    0.727821 0.466875 0.823228 0.112364
H30   H     H_    0.550048 0.605209 0.828217 0.118616
H31   H     H_    0.526349 0.577296 0.709192 0.124207
H32   H     H_    0.845402 0.347952 0.922653 0.162351
H33   H     H_    0.973217 0.322015 0.855421 0.115241
H34   H     H_    0.895499 0.501623 0.675320 0.137258
H35   H     H_    0.162178 0.160304 0.941543 0.124173
H36   H     H_    0.058332 0.337345 0.974150 0.123825
H37   H     H_    0.029363 0.200967 0.008270 0.151756
H38   H     H_    0.933587 0.551367 0.341248 0.158722
H39   H     H_    0.006719 0.625607 0.399198 0.122444
H40   H     H_    0.143176 0.388594 0.462357 0.164856
H41   H     H_    0.956959 0.478399 0.472720 0.138308
H42   H     H_    0.041686 0.333069 0.411096 0.154545
H43   H     H_    0.483618 0.189448 0.815812 0.176608
H44   H     H_    0.140251 0.094292 0.788594 0.114830
H45   H     H_    0.128888 0.062850 0.660195 0.143496
H46   H     H_    0.248719 0.823959 0.701953 0.141429
H47   H     H_    0.484843 0.857419 0.805266 0.123503
O1    O     O_R   0.507340 0.255690 0.581430 -0.451529
O2    O     O_R   0.837290 0.593240 0.915240 -0.542562
O3    O     O_R   0.065320 0.635310 0.931580 -0.517424
O4    O     O_R   0.280360 0.527380 0.578910 -0.520745
O5    O     O_R   0.068470 0.828620 0.091850 -0.519785
O6    O     O_R   0.799150 0.057200 0.079350 -0.496733
O7    O     O_R   0.585220 0.080180 0.076770 -0.543019
O8    O     O_R   0.627170 0.809480 0.067050 -0.506116
O9    O     O_R   0.816200 0.596410 0.076500 -0.522918
O10   O     O_R   0.045770 0.638240 0.081070 -0.535047
O11   O     O_3   0.833840 0.833520 0.001110 -0.278176
O12   O     O_R   0.524510 0.695820 0.424050 -0.507922
O13   O     O_R   0.260600 0.739610 0.584580 -0.489518
O14   O     O_R   0.532370 0.695050 0.573830 -0.509541
O15   O     O_R   0.744850 0.503430 0.576380 -0.531196
O16   O     O_R   0.699080 0.276500 0.571950 -0.455212
O17   O     O_R   0.498860 0.256520 0.419860 -0.513536
O18   O     O_R   0.272490 0.528150 0.429140 -0.480414
O19   O     O_R   0.252110 0.740440 0.423010 -0.432072
O20   O     O_3   0.950616 0.148163 0.883068 -0.524927
O21   O     O_3   0.148489 0.462145 0.330670 -0.553838
O22   O     O_R   0.736370 0.504260 0.414810 -0.528931
O23   O     O_R   0.691220 0.277270 0.422180 -0.511092
O24   O     O_3   0.499990 0.499990 0.499980 -0.303117
O25   O     O_R   0.089570 0.825450 0.930590 -0.488850
O26   O     O_R   0.818700 0.054260 0.929860 -0.413473
O27   O     O_R   0.606310 0.077010 0.915520 -0.546938
O28   O     O_R   0.646730 0.806540 0.917560 -0.502761

loop_
_geom_bond_atom_site_label_1
_geom_bond_atom_site_label_2
_ccdc_geom_bond_type
C56   H12   S    
C69   H33   S    
C34   C56   S    
Cr6   O2    S    
C40   O12   A    
C59   O27   A    
C73   C74   A    
C71   H39   S    
C19   C20   A    
C12   H29   S    
C66   H24   S    
C38   H15   S    
C60   O2    A    
Cr5   O28   S    
Cr1   O4    S    
C61   O3    A    
C7    C8    A    
Cr5   O11   S    
C53   C54   A    
C1    C21   S    
C12   C23   S    
C26   C27   A    
C8    F2    S    
C69   O20   S    
C14   C21   A    
C36   C37   A    
C9    C16   S    
C60   O28   A    
C6    H44   S    
C30   H10   S    
C10   C15   A    
C30   C31   A    
Cr4   O25   S    
C65   O5    A    
C53   H21   S    
C46   C52   S    
C49   C57   A    
C32   H14   S    
C40   O22   A    
C16   O16   A    
C18   C19   A    
C41   C42   A    
C62   O6    A    
C16   O1    A    
C24   C29   A    
C64   H1    S    
Cr3   O23   S    
C22   C63   S    
C65   O10   A    
C50   O21   S    
C71   O21   S    
C35   C36   A    
C70   H37   S    
C41   H16   S    
C67   C73   A    
C7    H45   S    
Cr4   O5    S    
C59   C67   S    
C25   C32   A    
C28   O19   A    
C72   H41   S    
C34   C66   S    
C36   C41   A    
C48   C53   A    
C68   H23   S    
C61   O25   A    
Cr3   O22   S    
C44   H20   S    
Cr1   O1    S    
C50   C51   A    
C23   C60   S    
C4    C34   S    
C28   O18   A    
C33   C40   S    
C50   C58   A    
C47   C48   A    
C38   C39   A    
C24   C25   A    
C19   H5    S    
Cr4   O11   S    
C47   C51   A    
Cr1   O17   S    
C52   O23   A    
Cr6   O10   S    
C49   C58   A    
C5    O20   S    
C64   C66   S    
C23   C68   S    
C35   C39   A    
C43   C44   A    
Cr5   O27   S    
C29   C30   A    
C1    O13   A    
Cr3   O24   S    
C26   C33   A    
C31   C32   A    
C70   H36   S    
C51   H22   S    
C45   C68   S    
C8    C74   A    
C17   C18   A    
C13   C21   A    
C27   H9    S    
C34   C45   S    
C68   H27   S    
C57   F3    S    
C12   C56   S    
C15   H3    S    
Cr2   O14   S    
C23   C64   S    
Cr5   O7    S    
C64   H47   S    
C52   O17   A    
C22   C27   A    
C55   C57   A    
C72   H40   S    
C63   O8    A    
C17   H2    S    
C10   C61   S    
C42   C43   A    
C3    H43   S    
C1    O4    A    
C31   H11   S    
C42   H18   S    
Cr3   O15   S    
C29   H8    S    
C66   H13   S    
C12   H30   S    
C45   H34   S    
C54   C55   A    
C69   H32   S    
C13   C20   A    
C63   O9    A    
C71   H38   S    
C3    C67   A    
C11   C17   A    
C4    O14   A    
C59   O26   A    
C45   H28   S    
C6    C7    A    
C28   C58   S    
Cr1   O18   S    
C26   H7    S    
Cr6   O9    S    
C20   H6    S    
C18   H4    S    
C54   H25   S    
C72   H42   S    
C37   C44   A    
C2    C3    A    
C43   H19   S    
C71   C72   S    
C11   C13   A    
Cr1   O24   S    
Cr4   O26   S    
C39   H17   S    
C5    C6    A    
Cr2   O19   S    
C70   H35   S    
C48   C49   A    
C4    O15   A    
Cr2   O24   S    
C35   C62   S    
C22   C24   A    
C62   O7    A    
C5    C73   A    
C69   C70   S    
C38   C46   A    
C10   C11   A    
Cr6   O3    S    
Cr2   O13   S    
Cr5   O8    S    
Cr6   O11   S    
C9    C74   A    
C56   H31   S    
C14   C15   A    
C2    F1    S    
C37   C46   A    
C2    C9    A    
Cr4   O6    S    
Cr3   O16   S    
C47   C65   S    
C55   H26   S    
C25   C33   A    
C14   H46   S    
Cr2   O12   S    
