data_mof_unit_30713.cif
_audit_creation_date              2013-03-05T16:05:30-0500
_audit_creation_method            fapswitch 2.2
_symmetry_space_group_name_H-M    P1
_symmetry_Int_Tables_number       1
_space_group_crystal_system       triclinic
_cell_length_a                    10.873845
_cell_length_b                    9.517999
_cell_length_c                    10.652529
_cell_angle_alpha                 90.226226
_cell_angle_beta                  90.148605
_cell_angle_gamma                 89.567177
_cell_volume                      1102.46373786

loop_
_atom_site_label
_atom_site_type_symbol
_atom_site_description
_atom_site_fract_x
_atom_site_fract_y
_atom_site_fract_z
_atom_type_partial_charge
O1    O     O_R   0.319640 0.618740 0.499990 -0.549149
O2    O     O_R   0.680360 0.381260 0.500010 -0.549145
O3    O     O_R   0.680360 0.618740 0.500010 -0.551711
O4    O     O_R   0.319640 0.381260 0.499990 -0.551712
C1    C     C_R   0.871777 0.496648 0.505158 -0.373384
C2    C     C_R   0.128223 0.503352 0.494835 -0.373394
C3    C     C_R   0.262209 0.500897 0.498008 0.896739
C4    C     C_R   0.737791 0.499102 0.501989 0.896725
O5    O     O_R   0.499970 0.618770 0.316850 -0.613305
O6    O     O_R   0.500030 0.381230 0.683150 -0.613306
O7    O     O_R   0.500030 0.618770 0.683150 -0.562618
O8    O     O_R   0.499970 0.381230 0.316850 -0.562629
C5    C     C_R   0.498777 0.499861 0.259381 0.824552
C6    C     C_R   0.501224 0.500139 0.740619 0.824575
Cu1   Cu    Cu3+1 0.500000 0.640660 0.500000 1.029109
Cu2   Cu    Cu3+1 0.500000 0.359340 0.500000 1.029105
H1    H     H_    0.378939 0.130643 0.344339 0.175752
H2    H     H_    0.621061 0.869356 0.655661 0.175749
H3    H     H_    0.621820 0.130094 0.655151 0.136527
H4    H     H_    0.378180 0.869906 0.344849 0.136526
N1    N     N_R   0.500000 0.852070 0.500000 -0.183412
N2    N     N_R   0.500000 0.147930 0.500000 -0.183411
C7    C     C_3   0.456045 0.625556 0.041549 -0.190477
C8    C     C_3   0.543958 0.374443 0.958452 -0.190479
C9    C     C_3   0.573218 0.605497 0.959746 -0.213412
C10   C     C_3   0.426785 0.394502 0.040254 -0.213422
C11   C     C_3   0.387850 0.519486 0.957965 0.282596
C12   C     C_3   0.612153 0.480512 0.042036 0.282597
H5    H     H_    0.418316 0.726754 0.077244 0.160970
H6    H     H_    0.581687 0.273245 0.922756 0.160971
H7    H     H_    0.634302 0.689872 0.925425 0.194133
H8    H     H_    0.365701 0.310126 0.074575 0.194135
C13   C     C_3   0.502137 0.500073 0.877083 -0.079153
C14   C     C_3   0.497866 0.499926 0.122917 -0.079150
C15   C     C_R   0.432649 0.074561 0.413685 0.050459
C16   C     C_R   0.567351 0.925439 0.586315 0.050459
C17   C     C_R   0.567505 0.074228 0.586219 0.047852
C18   C     C_R   0.432494 0.925772 0.413781 0.047840
C19   C     C_R   0.064702 0.391380 0.437628 0.249351
C20   C     C_R   0.935299 0.608620 0.562365 0.249337
C21   C     C_R   0.936851 0.386516 0.445052 0.212287
C22   C     C_R   0.063148 0.613488 0.554933 0.212295
N3    N     N_2   0.265820 0.540207 0.906681 -0.392305
H9    H     H_    0.243445 0.467036 0.838905 0.248825
C23   C     C_3   0.170147 0.560265 0.999061 -0.559339
H10   H     H_    0.082171 0.585597 0.950917 0.246359
H11   H     H_    0.193003 0.648867 0.062923 0.233288
H12   H     H_    0.157993 0.462864 0.054516 0.233087
N4    N     N_2   0.734183 0.459788 0.093321 -0.392334
H13   H     H_    0.756556 0.532954 0.161102 0.248814
C24   C     C_3   0.829857 0.439741 0.000940 -0.559342
H14   H     H_    0.917833 0.414407 0.049083 0.246367
H15   H     H_    0.842009 0.537148 0.945493 0.233089
H16   H     H_    0.807003 0.351144 0.937071 0.233292
N5    N     N_R   0.129086 0.285040 0.367075 0.161236
O9    O     O_R   0.114419 0.152716 0.392848 -0.265813
O10   O     O_R   0.197721 0.320286 0.272630 -0.426688
N6    N     N_R   0.870917 0.714953 0.632928 0.161212
O11   O     O_R   0.885585 0.847280 0.607169 -0.265832
O12   O     O_R   0.802282 0.679697 0.727371 -0.426699
N7    N     N_R   0.873698 0.271558 0.386840 0.176042
O13   O     O_R   0.870630 0.261315 0.265121 -0.320424
O14   O     O_R   0.842476 0.163944 0.454291 -0.277920
N8    N     N_R   0.126301 0.728454 0.613131 0.176073
O15   O     O_R   0.129489 0.738639 0.734841 -0.320468
O16   O     O_R   0.157469 0.836091 0.545681 -0.277892

loop_
_geom_bond_atom_site_label_1
_geom_bond_atom_site_label_2
_geom_bond_distance
_ccdc_geom_bond_type
C9    H7    1.109701 S    
C1    C4    1.457268 S    
Cu2   N2    2.012201 S    
N3    H9    1.031099 S    
C24   H14   1.109617 S    
O4    Cu2   1.970705 S    
C2    C3    1.457270 S    
O1    Cu1   1.973839 S    
C7    C11   1.537098 S    
O2    Cu2   1.973838 S    
C12   N4    1.446121 S    
C8    C13   1.544619 S    
C21   N7    1.434260 S    
N5    O9    1.301168 A    
C24   H16   1.110639 S    
C19   N5    1.437166 S    
N8    O15   1.300158 A    
C7    C14   1.544618 S    
C6    C13   1.453702 S    
C23   H11   1.110638 S    
O5    Cu1   1.961286 S    
C12   C14   1.523712 S    
C5    C14   1.453697 S    
C19   C21   1.393811 A    
N1    C16   1.366968 A    
O6    Cu2   1.961285 S    
C23   H10   1.109617 S    
C11   C13   1.523713 S    
C9    C12   1.536720 S    
C10   H8    1.109702 S    
N2    C15   1.366969 A    
N3    C23   1.444980 S    
C10   C11   1.536718 S    
Cu1   N1    2.012200 S    
H2    C16   1.080695 S    
O4    C3    1.294785 A    
C7    H5    1.110227 S    
C20   C22   1.393805 A    
C16   C17   1.416192 A    
C8    C10   1.555617 S    
O3    C4    1.294787 A    
N5    O10   1.300807 A    
C2    C22   1.412545 A    
N7    O13   1.300247 A    
O7    C6    1.286494 A    
C8    H6    1.110227 S    
C23   H12   1.110163 S    
C20   N6    1.437169 S    
N6    O12   1.300805 A    
Cu1   Cu2   2.677603 S    
C11   N3    1.446118 S    
C22   N8    1.434251 S    
C7    C9    1.555617 S    
H4    C18   1.081740 S    
O8    C5    1.286491 A    
C8    C12   1.537100 S    
N4    H13   1.031099 S    
O6    C6    1.284744 A    
C1    C20   1.409998 A    
N7    O14   1.301161 A    
N4    C24   1.444981 S    
O5    C5    1.284745 A    
C15   C18   1.416192 A    
O3    Cu1   1.970704 S    
C1    C21   1.412552 A    
H3    C17   1.081740 S    
O1    C3    1.287945 A    
N6    O11   1.301168 A    
C2    C19   1.409994 A    
N2    C17   1.366847 A    
O7    Cu1   1.962921 S    
C10   C14   1.543019 S    
O2    C4    1.287944 A    
N1    C18   1.366848 A    
O8    Cu2   1.962922 S    
C9    C13   1.543020 S    
H1    C15   1.080694 S    
C24   H15   1.110164 S    
N8    O16   1.301159 A    
