data_mof_unit_48287.cif
_audit_creation_date              2012-12-10T18:17:36-0500
_audit_creation_method            fapswitch 2.2
_symmetry_space_group_name_H-M    P1
_symmetry_Int_Tables_number       1
_space_group_crystal_system       triclinic
_cell_length_a                    14.671981
_cell_length_b                    15.907996
_cell_length_c                    17.285178
_cell_angle_alpha                 90.029647
_cell_angle_beta                  86.672155
_cell_angle_gamma                 90.123581
_cell_volume                      4027.57913854

loop_
_atom_site_label
_atom_site_type_symbol
_atom_type_description
_atom_site_fract_x
_atom_site_fract_y
_atom_site_fract_z
_atom_type_partial_charge
C1    C     C_R   0.499952 0.660041 0.500306 0.834390
C2    C     C_R   0.400306 0.494695 0.776791 -0.244467
C3    C     C_R   0.436422 0.463035 0.148274 0.152933
C4    C     C_R   0.434421 0.475472 0.227957 -0.264961
C5    C     C_R   0.599705 0.480390 0.223436 -0.193233
C6    C     C_R   0.603022 0.468244 0.143453 0.119467
C7    C     C_R   0.520853 0.462947 0.104915 0.123426
C8    C     C_2   0.471143 0.514758 0.981541 -0.196061
C9    C     C_2   0.523551 0.462159 0.019832 -0.192717
C10   C     C_R   0.515530 0.485957 0.265664 -0.116044
C11   C     C_3   0.448354 0.949633 0.416774 0.106888
C12   C     C_R   0.488778 0.501237 0.650357 0.805549
C13   C     C_3   0.602705 0.951484 0.485575 -0.140114
C14   C     C_3   0.607308 0.050573 0.498462 0.154236
C15   C     C_1   0.499845 0.251107 0.497954 -0.220638
C16   C     C_3   0.501204 0.916970 0.490803 0.121941
C17   C     C_3   0.459878 0.052614 0.412783 0.065577
C18   C     C_3   0.504243 0.083814 0.492063 0.136254
C19   C     C_3   0.444646 0.048438 0.564465 -0.089169
C20   C     C_3   0.456166 0.951534 0.569444 -0.032202
C21   C     C_1   0.501304 0.175972 0.495397 -0.034151
C22   C     C_1   0.499586 0.824527 0.495387 -0.011187
C23   C     C_R   0.499880 0.340077 0.499947 0.833336
C24   C     C_1   0.499667 0.749257 0.498461 -0.192471
C25   C     C_3   0.944803 0.403774 0.495651 -0.221592
C26   C     C_3   0.942377 0.538201 0.574297 -0.034882
C27   C     C_3   0.049056 0.530313 0.576869 -0.066993
C28   C     C_3   0.907751 0.497436 0.498311 0.020286
C29   C     C_3   0.055059 0.403082 0.485215 0.101046
C30   C     C_3   0.092592 0.497296 0.496835 0.127839
C31   C     C_3   0.059638 0.558318 0.430569 0.292519
C32   C     C_3   0.952319 0.546349 0.425820 -0.176892
C33   C     C_1   0.195613 0.497868 0.497658 0.122180
C34   C     C_R   0.511186 0.497095 0.349696 0.819510
C35   C     C_1   0.804544 0.500028 0.500573 0.136740
C36   C     C_R   0.483728 0.506186 0.734839 -0.065976
C37   C     C_R   0.562345 0.525001 0.773569 -0.244445
C38   C     C_R   0.558893 0.531641 0.854104 0.024071
C39   C     C_R   0.475266 0.515642 0.896676 0.059381
C40   C     C_R   0.395346 0.498596 0.857505 0.016512
Cu1   Cu    Cu3+1 0.410070 0.500090 0.500100 0.966136
Cu2   Cu    Cu3+1 0.589930 0.499910 0.499900 0.967501
H1    H     H_    0.626305 0.537231 0.740864 0.158151
H2    H     H_    0.626976 0.940812 0.424905 0.156833
H3    H     H_    0.502509 0.937298 0.615760 0.145971
H4    H     H_    0.371600 0.061744 0.559114 0.150772
H5    H     H_    0.368836 0.476234 0.260208 0.170425
H6    H     H_    0.922091 0.379290 0.553002 0.166952
H7    H     H_    0.923414 0.605440 0.575167 0.164106
H8    H     H_    0.065069 0.484575 0.622401 0.153414
H9    H     H_    0.946603 0.502167 0.377192 0.126636
H10   H     H_    0.663067 0.485780 0.252352 0.167556
H11   H     H_    0.573010 0.422536 0.988069 0.145184
H12   H     H_    0.339133 0.480587 0.746882 0.163232
H13   H     H_    0.422419 0.555900 0.012297 0.172413
N1    N     N_1   0.275150 0.498610 0.498410 -0.167808
N2    N     N_1   0.724850 0.501380 0.501620 -0.159856
O1    O     O_R   0.424030 0.620640 0.500090 -0.565845
O2    O     O_R   0.575910 0.620490 0.499920 -0.570746
O3    O     O_R   0.415250 0.500090 0.613690 -0.581895
O4    O     O_R   0.567140 0.499950 0.613520 -0.585598
O5    O     O_R   0.424090 0.379510 0.500080 -0.575541
O6    O     O_R   0.575970 0.379360 0.499910 -0.571218
O7    O     O_R   0.432860 0.500050 0.386480 -0.581131
O8    O     O_R   0.584750 0.499910 0.386310 -0.582910
N3    N     N_3   0.690567 0.463491 0.102546 -0.613007
H14   H     H_    0.695404 0.405631 0.073936 0.207509
H15   H     H_    0.694776 0.511236 0.061146 0.250295
C41   C     C_R   0.516261 0.091218 0.339965 0.154492
C42   C     C_R   0.496173 0.174783 0.316401 -0.130704
C43   C     C_R   0.543377 0.213733 0.253691 -0.165520
C44   C     C_R   0.612687 0.171309 0.211922 -0.125016
C45   C     C_R   0.635551 0.090212 0.233393 -0.149831
C46   C     C_R   0.589050 0.051034 0.296449 -0.109841
H16   H     H_    0.443658 0.211712 0.346787 0.160843
H17   H     H_    0.526153 0.277316 0.237691 0.142356
H18   H     H_    0.649479 0.201681 0.163522 0.124365
H19   H     H_    0.690998 0.057864 0.201958 0.123064
H20   H     H_    0.615413 0.991197 0.311802 0.130766
C47   C     C_R   0.476775 0.905572 0.337395 0.115977
C48   C     C_R   0.544913 0.842265 0.326819 -0.187492
C49   C     C_R   0.563196 0.803605 0.254961 -0.137194
C50   C     C_R   0.515529 0.826862 0.191191 -0.111901
C51   C     C_R   0.449566 0.889353 0.198886 -0.130324
C52   C     C_R   0.430376 0.928013 0.270529 -0.127248
H21   H     H_    0.587712 0.822513 0.371650 0.126206
H22   H     H_    0.615205 0.755596 0.248643 0.125025
H23   H     H_    0.530225 0.796863 0.135649 0.116722
H24   H     H_    0.412989 0.908113 0.149117 0.120931
H25   H     H_    0.379292 0.976636 0.272643 0.107021
N4    N     N_3   0.667082 0.903899 0.531069 -0.608997
H26   H     H_    0.701158 0.859943 0.495081 0.220203
H27   H     H_    0.633037 0.867824 0.574154 0.212043
N5    N     N_3   0.667356 0.082004 0.433487 -0.644974
H28   H     H_    0.659638 0.146043 0.422817 0.232521
H29   H     H_    0.735684 0.068768 0.442696 0.227212
C53   C     C_R   0.650426 0.083743 0.574574 0.209433
C54   C     C_R   0.658076 0.036239 0.643464 -0.058426
C55   C     C_R   0.698685 0.069525 0.708017 -0.161937
C56   C     C_R   0.732628 0.151178 0.706659 -0.120212
C57   C     C_R   0.725277 0.200253 0.640909 -0.133263
C58   C     C_R   0.684622 0.167581 0.576291 -0.164062
H30   H     H_    0.631369 0.974288 0.651245 0.121247
H31   H     H_    0.703204 0.031716 0.759714 0.122921
H32   H     H_    0.763964 0.176631 0.756799 0.121887
H33   H     H_    0.751064 0.264107 0.639831 0.136993
H34   H     H_    0.680835 0.209731 0.527823 0.148195
N6    N     N_3   0.369235 0.910183 0.593699 -0.594623
H35   H     H_    0.382281 0.848922 0.611906 0.227203
H36   H     H_    0.340588 0.940721 0.642858 0.204788
N7    N     N_3   0.351332 0.924068 0.431841 -0.546148
H37   H     H_    0.317357 0.958062 0.475832 0.249695
H38   H     H_    0.311891 0.931577 0.384031 0.200858
N8    N     N_3   0.368447 0.092002 0.407665 -0.638301
H39   H     H_    0.322223 0.088605 0.455228 0.204131
H40   H     H_    0.336187 0.072381 0.358550 0.211414
N9    N     N_3   0.467253 0.088275 0.637788 -0.598717
H41   H     H_    0.443066 0.150079 0.638958 0.223864
H42   H     H_    0.431167 0.058000 0.683747 0.208375
C59   C     C_R   0.100571 0.341920 0.542927 0.076781
C60   C     C_R   0.186129 0.304753 0.520699 -0.098586
C61   C     C_R   0.229790 0.250210 0.569815 -0.140144
C62   C     C_R   0.190375 0.231813 0.642982 -0.120629
C63   C     C_R   0.107734 0.268761 0.667532 -0.117077
C64   C     C_R   0.063487 0.323485 0.618785 -0.217232
H43   H     H_    0.220656 0.318405 0.465086 0.156945
H44   H     H_    0.294741 0.222556 0.551139 0.134445
H45   H     H_    0.224474 0.189728 0.681057 0.115925
H46   H     H_    0.078114 0.255708 0.725108 0.125493
H47   H     H_    0.002138 0.352285 0.643399 0.142599
N10   N     N_3   0.897870 0.500141 0.644312 -0.641411
H48   H     H_    0.828970 0.517183 0.648237 0.223208
H49   H     H_    0.925569 0.527034 0.692982 0.214406
N11   N     N_3   0.088352 0.610791 0.600398 -0.577373
H50   H     H_    0.054915 0.629792 0.652574 0.210796
H51   H     H_    0.156306 0.601277 0.613316 0.218924
C65   C     C_R   0.898880 0.623967 0.400662 0.110409
C66   C     C_R   0.851119 0.619884 0.332072 -0.155939
C67   C     C_R   0.802135 0.688959 0.306980 -0.112051
C68   C     C_R   0.800531 0.763670 0.349247 -0.126211
C69   C     C_R   0.847337 0.769073 0.417020 -0.159350
C70   C     C_R   0.894602 0.699622 0.443465 -0.119232
H52   H     H_    0.851568 0.563117 0.297473 0.107848
H53   H     H_    0.766200 0.684651 0.254186 0.117649
H54   H     H_    0.763719 0.817589 0.329190 0.115387
H55   H     H_    0.848178 0.827593 0.448846 0.131378
H56   H     H_    0.930647 0.707581 0.495501 0.150631
N12   N     N_3   0.105705 0.536715 0.354939 -0.619545
H57   H     H_    0.078156 0.572748 0.311401 0.208140
H58   H     H_    0.175069 0.552077 0.354582 0.222799
C71   C     C_R   0.898673 0.339612 0.443379 0.097481
C72   C     C_R   0.842970 0.361182 0.382226 -0.125184
C73   C     C_R   0.806024 0.298902 0.336214 -0.126294
C74   C     C_R   0.824086 0.214378 0.349745 -0.132738
C75   C     C_R   0.877468 0.191691 0.410492 -0.150722
C76   C     C_R   0.913463 0.253481 0.457389 -0.156598
H59   H     H_    0.826635 0.425222 0.368767 0.112356
H60   H     H_    0.763577 0.316347 0.289622 0.134004
H61   H     H_    0.796139 0.166398 0.313510 0.142578
H62   H     H_    0.891209 0.126066 0.421315 0.128319
H63   H     H_    0.954446 0.233986 0.504242 0.140211
N13   N     N_3   0.083580 0.374375 0.405715 -0.582885
H64   H     H_    0.040641 0.396413 0.364358 0.249189
H65   H     H_    0.078978 0.308902 0.401670 0.216341
N14   N     N_3   0.082645 0.646387 0.448142 -0.565703
H66   H     H_    0.152494 0.651624 0.456265 0.230847
H67   H     H_    0.071973 0.684184 0.400007 0.212741
C77   C     C_R   0.306271 0.481382 0.899085 0.104941
C78   C     C_R   0.293579 0.408360 0.944032 -0.093869
C79   C     C_R   0.208428 0.391015 0.981244 -0.138221
C80   C     C_R   0.135470 0.446150 0.973486 -0.119142
C81   C     C_R   0.147416 0.518526 0.928184 -0.141087
C82   C     C_R   0.232428 0.536026 0.890799 -0.168819
H68   H     H_    0.349446 0.364879 0.950004 0.135542
H69   H     H_    0.199019 0.334815 0.016082 0.122845
H70   H     H_    0.069621 0.432650 0.002336 0.121047
H71   H     H_    0.090735 0.560940 0.921874 0.120258
H72   H     H_    0.240819 0.592089 0.855543 0.124116
N15   N     N_3   0.352585 0.448685 0.111788 -0.597019
H73   H     H_    0.321153 0.395551 0.137064 0.215899
H74   H     H_    0.309722 0.500136 0.123485 0.219401
C83   C     C_R   0.642476 0.559769 0.891298 0.114934
C84   C     C_R   0.725699 0.517564 0.876005 -0.182956
C85   C     C_R   0.805262 0.546405 0.908198 -0.144701
C86   C     C_R   0.802551 0.617763 0.955464 -0.118037
C87   C     C_R   0.720209 0.660303 0.970777 -0.157361
C88   C     C_R   0.640442 0.631583 0.938832 -0.139232
H75   H     H_    0.728904 0.462384 0.839218 0.127529
H76   H     H_    0.869088 0.513557 0.896331 0.124703
H77   H     H_    0.864214 0.640033 0.980272 0.121279
H78   H     H_    0.718202 0.715626 0.007309 0.124623
H79   H     H_    0.577434 0.665904 0.950321 0.120965

loop_
_geom_bond_atom_site_label_1
_geom_bond_atom_site_label_2
_ccdc_geom_bond_type
C81   H71   S    
N3    H15   S    
C65   C70   A    
Cu1   Cu2   S    
C17   C41   S    
C57   C58   A    
C18   C21   S    
C45   C46   A    
C14   C18   S    
N7    H37   S    
C80   C81   A    
N8    H39   S    
C62   H45   S    
C19   H4    S    
C62   C63   A    
C32   H9    S    
C85   C86   A    
C25   C28   S    
C56   H32   S    
N14   H66   S    
C6    N3    S    
C5    C6    A    
C36   C37   A    
C37   C38   A    
N12   H58   S    
Cu1   O1    S    
C3    C7    A    
C66   H52   S    
N9    H42   S    
C43   H17   S    
C79   C80   A    
C49   H22   S    
C53   C54   A    
C61   H44   S    
N6    H35   S    
Cu2   N2    S    
C18   C19   S    
C78   C79   A    
C87   H78   S    
C3    N15   S    
C83   C84   A    
C44   H18   S    
C69   C70   A    
C64   H47   S    
C23   O5    A    
C73   C74   A    
C50   C51   A    
C28   C35   S    
N6    H36   S    
C8    C9    D    
C54   H30   S    
Cu2   O8    S    
C84   H75   S    
C78   H68   S    
C5    H10   S    
C42   C43   A    
C8    C39   S    
C12   C36   S    
C29   C30   S    
C20   H3    S    
C27   H8    S    
C83   C88   A    
C33   N1    T    
C15   C23   S    
C50   H23   S    
C71   C72   A    
N14   H67   S    
C13   C14   S    
C13   N4    S    
C27   C30   S    
C41   C42   A    
Cu1   O5    S    
C70   H56   S    
C34   O8    A    
C17   N8    S    
C48   C49   A    
N13   H65   S    
C79   H69   S    
C25   C29   S    
C77   C82   A    
C29   C59   S    
C73   H60   S    
C11   N7    S    
C31   N14   S    
C28   C32   S    
N3    H14   S    
C51   C52   A    
C10   C34   S    
C2    H12   S    
C26   H7    S    
N4    H26   S    
C59   C64   A    
C47   C48   A    
N11   H51   S    
C45   H19   S    
N15   H73   S    
C37   H1    S    
C84   C85   A    
Cu1   N1    S    
C47   C52   A    
N4    H27   S    
C67   H53   S    
C31   C32   S    
Cu2   O4    S    
C15   C21   T    
C30   C31   S    
C16   C20   S    
C34   O7    A    
C17   C18   S    
C88   H79   S    
C48   H21   S    
C41   C46   A    
N7    H38   S    
C71   C76   A    
C68   C69   A    
N5    H29   S    
C25   H6    S    
C74   C75   A    
C60   C61   A    
N11   H50   S    
C69   H55   S    
C8    H13   S    
C31   N12   S    
C32   C65   S    
C77   C78   A    
C76   H63   S    
C49   C50   A    
C46   H20   S    
C26   C27   S    
C22   C24   T    
C9    H11   S    
C51   H24   S    
C4    C10   A    
C3    C4    A    
C58   H34   S    
C39   C40   A    
C74   H61   S    
C59   C60   A    
C67   C68   A    
C14   C53   S    
N13   H64   S    
C65   C66   A    
C2    C36   A    
C57   H33   S    
C7    C9    S    
C72   H59   S    
C11   C17   S    
C16   C22   S    
C30   C33   S    
C75   H62   S    
C27   N11   S    
C29   N13   S    
C53   C58   A    
Cu1   O3    S    
C44   C45   A    
N10   H49   S    
Cu2   O2    S    
N8    H40   S    
C52   H25   S    
C6    C7    A    
C80   H70   S    
C68   H54   S    
C26   C28   S    
C38   C83   S    
C55   C56   A    
C35   N2    T    
C25   C71   S    
C19   C20   S    
C1    O2    A    
C87   C88   A    
C5    C10   A    
N9    H41   S    
C12   O4    A    
C86   C87   A    
C38   C39   A    
C82   H72   S    
C23   O6    A    
C56   C57   A    
C86   H77   S    
C63   H46   S    
C55   H31   S    
N12   H57   S    
N5    H28   S    
C40   C77   S    
C11   C16   S    
C11   C47   S    
C26   N10   S    
C81   C82   A    
C12   O3    A    
C2    C40   A    
C60   H43   S    
C43   C44   A    
C72   C73   A    
C19   N9    S    
C1    C24   S    
C54   C55   A    
C13   C16   S    
C75   C76   A    
C85   H76   S    
C42   H16   S    
Cu1   O7    S    
C20   N6    S    
C61   C62   A    
C1    O1    A    
Cu2   O6    S    
C14   N5    S    
C13   H2    S    
C66   C67   A    
N10   H48   S    
C63   C64   A    
N15   H74   S    
C4    H5    S    
