data_mof_unit_9333.cif
_audit_creation_date              2012-12-10T16:50:13-0500
_audit_creation_method            fapswitch 2.2
_symmetry_space_group_name_H-M    P1
_symmetry_Int_Tables_number       1
_space_group_crystal_system       triclinic
_cell_length_a                    23.540653
_cell_length_b                    8.690338
_cell_length_c                    7.427581
_cell_angle_alpha                 103.930652
_cell_angle_beta                  93.848672
_cell_angle_gamma                 92.095386
_cell_volume                      1469.30615565

loop_
_atom_site_label
_atom_site_type_symbol
_atom_type_description
_atom_site_fract_x
_atom_site_fract_y
_atom_site_fract_z
_atom_type_partial_charge
C1    C     C_R   0.498269 0.199222 0.452426 0.889035
C2    C     C_R   0.501725 0.800778 0.547574 0.886477
C3    C     C_R   0.247534 0.579536 0.693543 0.409562
C4    C     C_R   0.753096 0.426256 0.308775 0.482791
C5    C     C_R   0.306364 0.572442 0.678387 -0.314264
C6    C     C_R   0.694143 0.431306 0.322629 -0.291786
C7    C     C_R   0.328603 0.499086 0.509942 -0.156049
C8    C     C_R   0.671447 0.503144 0.490895 -0.179161
C9    C     C_R   0.290757 0.431194 0.352974 0.194388
C10   C     C_R   0.708931 0.571901 0.648620 0.210032
C11   C     C_R   0.232461 0.446890 0.364687 -0.085317
C12   C     C_R   0.767321 0.557994 0.638043 -0.120065
C13   C     C_R   0.209965 0.518050 0.533162 0.166929
C14   C     C_R   0.790212 0.487979 0.470047 0.147165
C15   C     C_2   0.497424 0.030813 0.426108 -0.338102
C16   C     C_2   0.502561 0.969185 0.573894 -0.337722
C17   C     C_R   0.390933 0.497078 0.502361 0.846127
C18   C     C_R   0.609068 0.503345 0.497750 0.849670
C19   C     C_R   0.881485 0.633379 0.520509 0.638832
C20   C     C_R   0.118602 0.373260 0.483797 0.615767
C21   C     C_R   0.878533 0.350683 0.428493 0.667797
C22   C     C_R   0.121689 0.656006 0.577154 0.708340
C23   C     C_R   0.938634 0.351488 0.424878 -0.142482
C24   C     C_R   0.061525 0.655400 0.579852 -0.131088
C25   C     C_R   0.969942 0.499537 0.492581 -0.057097
C26   C     C_R   0.030202 0.507364 0.511690 -0.057409
C27   C     C_R   0.941041 0.640344 0.541635 -0.080485
C28   C     C_R   0.059063 0.366449 0.462535 -0.064296
C29   C     C_R   0.968970 0.212121 0.361218 0.409996
C30   C     C_R   0.031125 0.794861 0.643061 0.413434
C31   C     C_R   0.028404 0.221637 0.386554 -0.124852
C32   C     C_R   0.971658 0.785152 0.617337 -0.161747
Cu1   Cu    Cu3+1 0.506340 0.517380 0.684380 0.995257
Cu2   Cu    Cu3+1 0.493660 0.482620 0.315620 0.995679
H1    H     H_    0.051205 0.115159 0.340321 0.244675
H2    H     H_    0.948751 0.891470 0.663476 0.247817
H3    H     H_    0.335106 0.624201 0.799793 0.207542
H4    H     H_    0.665691 0.379527 0.200529 0.214080
H5    H     H_    0.203791 0.397402 0.242407 0.203151
H6    H     H_    0.795729 0.607895 0.760841 0.206355
H7    H     H_    0.492592 0.957346 0.284457 0.181604
H8    H     H_    0.507392 0.042651 0.715545 0.182410
H9    H     H_    0.454806 0.379751 0.948167 0.240330
H10   H     H_    0.545190 0.620255 0.051837 0.239652
N1    N     N_R   0.851368 0.490203 0.466414 -0.453618
N2    N     N_R   0.148803 0.516343 0.538084 -0.458583
N3    N     N_2   0.484110 0.456420 0.038520 -0.208940
N4    N     N_2   0.515890 0.543580 0.961480 -0.209994
O1    O     O_R   0.504120 0.286130 0.619770 -0.585031
O2    O     O_R   0.495880 0.713870 0.380230 -0.585493
O3    O     O_R   0.493410 0.256770 0.308360 -0.580158
O4    O     O_R   0.506590 0.743230 0.691640 -0.581346
O5    O     O_R   0.423230 0.514630 0.655730 -0.593127
O6    O     O_R   0.576770 0.485370 0.344270 -0.592110
O7    O     O_R   0.412530 0.485280 0.344320 -0.551010
O8    O     O_R   0.587470 0.514720 0.655680 -0.552795
O9    O     O_2   0.853540 0.769018 0.558221 -0.444821
O10   O     O_2   0.146461 0.237470 0.446046 -0.472080
O11   O     O_2   0.847440 0.213379 0.404304 -0.399410
O12   O     O_2   0.152933 0.793336 0.604130 -0.397159
S1    S     S_3+6 0.936786 0.028693 0.225839 0.081728
O13   O     O_2   0.901888 0.950637 0.344044 -0.205358
O14   O     O_2   0.898995 0.059149 0.068290 -0.191604
O15   O     O_3   0.986585 0.904163 0.137281 -0.515884
H11   H     H_    0.964851 0.809358 0.058190 0.377052
S2    S     S_3+6 0.063280 0.978523 0.778425 0.076489
O16   O     O_2   0.098797 0.055808 0.661057 -0.206347
O17   O     O_2   0.018701 0.090171 0.856134 -0.286946
O18   O     O_3   0.104828 0.944275 0.956079 -0.407127
H12   H     H_    0.118603 0.050925 0.031478 0.395765
S3    S     S_3+6 0.223948 0.665048 0.915561 0.069952
O19   O     O_2   0.166743 0.592602 0.938360 -0.235411
O20   O     O_2   0.266073 0.640188 0.065555 -0.296688
O21   O     O_3   0.219438 0.861486 0.940685 -0.410630
H13   H     H_    0.258020 0.900336 0.920629 0.354126
S4    S     S_3+6 0.777884 0.345380 0.087384 0.061426
O22   O     O_2   0.785892 0.171445 0.066241 -0.167721
O23   O     O_2   0.734449 0.363453 0.937358 -0.301961
O24   O     O_3   0.839994 0.437657 0.063488 -0.530618
H14   H     H_    0.850803 0.383559 0.938216 0.380817
I1    I     I_    0.315415 0.288004 0.097473 -0.252182
I2    I     I_    0.683626 0.714183 0.903759 -0.176177

loop_
_geom_bond_atom_site_label_1
_geom_bond_atom_site_label_2
_ccdc_geom_bond_type
S2    O17   D    
C5    H3    S    
S4    O24   S    
C19   O9    S    
Cu1   O4    S    
Cu2   O3    S    
C32   H2    S    
C24   C26   A    
C21   O11   S    
C22   O12   S    
C13   N2    S    
S2    O18   S    
Cu1   O1    S    
C15   C16   D    
S1    O14   D    
C2    O2    A    
C7    C17   S    
C6    H4    S    
C1    C15   S    
C2    C16   S    
C17   O7    A    
C3    C13   A    
C18   O8    A    
Cu1   O8    S    
S2    O16   D    
C17   O5    A    
Cu2   O7    S    
O18   H12   S    
C10   C12   A    
C14   N1    S    
C21   N1    A    
Cu1   O5    S    
C29   S1    S    
Cu2   O2    S    
O21   H13   S    
S4    O22   D    
C15   H7    S    
C4    C6    A    
C5    C7    A    
C6    C8    A    
C20   C28   A    
C25   C26   A    
C10   I2    S    
C8    C18   S    
C12   H6    S    
S1    O15   S    
C3    S3    S    
C9    C11   A    
N3    N4    D    
Cu1   Cu2   S    
C11   H5    S    
C1    O3    A    
C30   S2    S    
C2    O4    A    
C22   N2    A    
C12   C14   A    
Cu2   O6    S    
C21   C23   A    
C22   C24   A    
C20   O10   S    
C23   C29   A    
C19   C27   A    
S3    O20   D    
C7    C9    A    
C27   C32   A    
C16   H8    S    
C28   C31   A    
S4    O23   D    
C3    C5    A    
S3    O21   S    
C19   N1    A    
C25   C27   A    
C26   C28   A    
O15   H11   S    
S3    O19   D    
C29   C31   A    
C30   C32   A    
C11   C13   A    
C1    O1    A    
C31   H1    S    
C23   C25   A    
C4    C14   A    
S1    O13   D    
C24   C30   A    
C4    S4    S    
C18   O6    A    
O24   H14   S    
C8    C10   A    
Cu1   N4    S    
Cu2   N3    S    
H9    N3    S    
C20   N2    A    
H10   N4    S    
C9    I1    S    
