data_mof_unit_44714.cif
_audit_creation_date              2012-12-10T16:50:55-0500
_audit_creation_method            fapswitch 2.2
_symmetry_space_group_name_H-M    P1
_symmetry_Int_Tables_number       1
_space_group_crystal_system       triclinic
_cell_length_a                    7.877871
_cell_length_b                    8.750867
_cell_length_c                    10.781148
_cell_angle_alpha                 92.189564
_cell_angle_beta                  86.50431
_cell_angle_gamma                 93.423573
_cell_volume                      740.08040313

loop_
_atom_site_label
_atom_site_type_symbol
_atom_type_description
_atom_site_fract_x
_atom_site_fract_y
_atom_site_fract_z
_atom_type_partial_charge
C1    C     C_R   0.544398 0.794036 0.502991 0.962667
C2    C     C_R   0.968171 0.601581 0.071012 -0.128768
C3    C     C_R   0.095453 0.720143 0.074068 -0.156958
C4    C     C_R   0.986727 0.584237 0.941687 -0.173632
C5    C     C_R   0.238465 0.683078 0.136224 -0.223528
C6    C     C_R   0.839752 0.580701 0.872968 -0.223922
C7    C     C_R   0.367455 0.602760 0.071421 0.044099
C8    C     C_R   0.676066 0.555197 0.933308 0.036891
C9    C     C_R   0.377509 0.604302 0.941269 0.039131
C10   C     C_R   0.664884 0.563921 0.063632 0.021631
C11   C     C_R   0.505997 0.552455 0.129657 -0.191507
C12   C     C_R   0.455519 0.207564 0.511748 0.919077
C13   C     C_R   0.521384 0.551103 0.872793 -0.197393
C14   C     C_3   0.434283 0.927438 0.845297 -0.840668
C15   C     C_3   0.704933 0.882455 0.174774 -0.841074
C16   C     C_3   0.847745 0.043853 0.438218 -0.710862
C17   C     C_3   0.144847 0.048477 0.637765 -0.776449
C18   C     C_2   0.566646 0.956800 0.522329 -0.048318
C19   C     C_2   0.429237 0.046592 0.528141 -0.083328
C20   C     C_R   0.506532 0.512569 0.739898 0.894023
C21   C     C_R   0.499678 0.513566 0.260911 0.904023
C22   C     C_R   0.265300 0.695004 0.885194 0.233017
C23   C     C_R   0.805974 0.629178 0.122908 0.250897
C24   C     C_R   0.102541 0.714110 0.942173 -0.157130
H1    H     H_    0.047478 0.479651 0.910183 0.166687
H2    H     H_    0.484115 0.003477 0.770436 0.239995
H3    H     H_    0.545885 0.887619 0.889997 0.249090
H4    H     H_    0.355225 0.994322 0.914165 0.234310
H5    H     H_    0.877049 0.766164 0.275612 0.228438
H6    H     H_    0.602320 0.915759 0.243702 0.236371
H7    H     H_    0.646425 0.862648 0.084265 0.250475
H8    H     H_    0.803717 0.977418 0.162934 0.220712
H9    H     H_    0.745147 0.094993 0.619464 0.239054
H10   H     H_    0.936187 0.143305 0.455283 0.219885
H11   H     H_    0.776506 0.074979 0.358831 0.245487
H12   H     H_    0.055994 0.829689 0.112507 0.156831
H13   H     H_    0.922335 0.942884 0.415833 0.232365
H14   H     H_    0.201980 0.975765 0.452833 0.222818
H15   H     H_    0.039127 0.962994 0.661298 0.231543
H16   H     H_    0.088324 0.154296 0.612321 0.260384
H17   H     H_    0.214942 0.078855 0.721931 0.238214
H18   H     H_    0.048522 0.813179 0.904321 0.146219
H19   H     H_    0.998895 0.496478 0.114152 0.140009
H20   H     H_    0.248747 0.722972 0.231890 0.169826
H21   H     H_    0.857158 0.608956 0.776950 0.176383
H22   H     H_    0.013156 0.386555 0.403434 0.180984
H23   H     H_    0.989081 0.622063 0.589684 0.179756
H24   H     H_    0.247992 0.821887 0.732538 0.264616
N1    N     N_2   0.950330 0.457950 0.466250 -0.195880
N2    N     N_2   0.049670 0.542050 0.533750 -0.190601
N3    N     N_2   0.334326 0.797848 0.794698 -0.291662
N4    N     N_2   0.780888 0.747190 0.215701 -0.275703
N5    N     N_2   0.735046 0.015284 0.546847 -0.304507
N6    N     N_2   0.256021 0.986041 0.537509 -0.277759
O1    O     O_R   0.389250 0.738570 0.508280 -0.623284
O2    O     O_R   0.610750 0.261430 0.491720 -0.618435
O3    O     O_R   0.678390 0.711630 0.486650 -0.612555
O4    O     O_R   0.321610 0.288370 0.513350 -0.620293
O5    O     O_R   0.355430 0.513480 0.694040 -0.617355
O6    O     O_R   0.644570 0.486520 0.305960 -0.614900
O7    O     O_R   0.644570 0.486540 0.672410 -0.640908
O8    O     O_R   0.355430 0.513460 0.327590 -0.637570
Zn1   Zn    Zn3+2 0.306940 0.517990 0.514440 0.919329
Zn2   Zn    Zn3+2 0.693060 0.482010 0.485560 0.919709

loop_
_geom_bond_atom_site_label_1
_geom_bond_atom_site_label_2
_ccdc_geom_bond_type
O7    Zn2   S    
C2    C4    A    
O2    Zn2   S    
C15   H7    S    
C8    C13   A    
C6    H21   S    
C1    O3    A    
C14   H3    S    
C24   H18   S    
C2    H19   S    
O5    Zn1   S    
C14   N3    S    
H14   N6    S    
C16   H13   S    
O6    Zn2   S    
C12   O4    A    
C2    C3    A    
C23   N4    S    
C5    C7    A    
C15   H8    S    
H5    N4    S    
N1    Zn2   S    
C12   O2    A    
C15   N4    S    
C14   H2    S    
C20   O5    A    
C7    C11   A    
N2    Zn1   S    
H22   N1    S    
C1    C18   S    
C21   O8    A    
O8    Zn1   S    
C3    H12   S    
C21   O6    A    
C12   C19   S    
C4    C6    A    
C17   H15   S    
C5    H20   S    
C1    O1    A    
H23   N2    S    
C22   C24   A    
C16   H11   S    
H9    N5    S    
C4    C24   A    
N1    N2    D    
C17   H17   S    
C9    C22   A    
C18   N5    S    
C10   C11   A    
C14   H4    S    
C4    H1    S    
C2    C23   A    
C19   N6    S    
O3    Zn2   S    
C8    C10   A    
C18   C19   D    
C15   H6    S    
C20   O7    A    
C7    C9    A    
C9    C13   A    
C16   N5    S    
C10   C23   A    
C6    C8    A    
C13   C20   S    
C16   H10   S    
C17   N6    S    
C11   C21   S    
H24   N3    S    
O4    Zn1   S    
C3    C24   A    
C22   N3    S    
C3    C5    A    
C17   H16   S    
O1    Zn1   S    
