data_mof_unit_22753.cif
_audit_creation_date              2012-10-26T18:49:10-0400
_audit_creation_method            fapswitch 2.2
_symmetry_space_group_name_H-M    P1
_symmetry_Int_Tables_number       1
_space_group_crystal_system       triclinic
_cell_length_a                    10.825225
_cell_length_b                    10.973406
_cell_length_c                    9.681488
_cell_angle_alpha                 89.822358
_cell_angle_beta                  89.833763
_cell_angle_gamma                 88.869389
_cell_volume                      1149.82591224

loop_
_atom_site_label
_atom_site_type_symbol
_atom_type_description
_atom_site_fract_x
_atom_site_fract_y
_atom_site_fract_z
_atom_type_partial_charge
C1    C     C_R   0.495702 0.265880 0.499965 0.552464
C2    C     C_2   0.441063 0.420571 0.078233 -0.042195
C3    C     C_R   0.260054 0.505222 0.500191 0.585244
C4    C     C_R   0.504908 0.734357 0.500436 0.588671
C5    C     C_R   0.740250 0.500875 0.499102 0.581368
C6    C     C_3   0.076772 0.380447 0.561396 0.490765
C7    C     C_3   0.930480 0.382346 0.568446 0.146321
C8    C     C_3   0.069829 0.617645 0.581616 -0.236195
C9    C     C_3   0.073624 0.524907 0.345814 0.025046
C10   C     C_3   0.122120 0.507086 0.499955 -0.022362
C11   C     C_3   0.120197 0.412795 0.809922 0.009941
C12   C     C_3   0.878396 0.503727 0.496862 0.059363
C13   C     C_3   0.116780 0.326397 0.933019 -0.377038
C14   C     C_3   0.836774 0.694793 0.254174 0.028619
C15   C     C_3   0.796976 0.751277 0.117239 -0.409788
C16   C     C_3   0.894046 0.835214 0.597590 -0.018736
C17   C     C_3   0.877564 0.940063 0.495859 -0.393580
C18   C     C_3   0.134740 0.174138 0.504724 0.040210
C19   C     C_3   0.159659 0.092049 0.381130 -0.392811
C20   C     C_3   0.812447 0.259412 0.715786 0.002832
C21   C     C_3   0.749063 0.253556 0.855363 -0.349150
C22   C     C_3   0.840174 0.343347 0.193486 0.035027
C23   C     C_3   0.925122 0.618105 0.585458 0.321008
C24   C     C_3   0.798966 0.213993 0.223253 -0.401659
C25   C     C_3   0.932092 0.500064 0.338123 0.487177
C26   C     C_2   0.500366 0.934576 0.393973 -0.161473
C27   C     C_2   0.524507 0.864598 0.505842 0.101459
C28   C     C_2   0.511821 0.067264 0.391468 -0.188410
C29   C     C_2   0.480983 0.135570 0.500790 -0.138012
C30   C     C_2   0.448745 0.415618 0.922721 -0.051812
Cu1   Cu    Cu3+1 0.500030 0.500020 0.638630 0.939708
Cu2   Cu    Cu3+1 0.499970 0.499980 0.361370 0.905823
H1    H     H_    0.102990 0.702513 0.532526 0.144713
H2    H     H_    0.110665 0.622371 0.685846 0.074273
H3    H     H_    0.122208 0.456269 0.279003 0.202753
H4    H     H_    0.036173 0.469174 0.812941 0.202123
H5    H     H_    0.199613 0.473202 0.825214 0.150582
H6    H     H_    0.203083 0.270279 0.937599 0.127795
H7    H     H_    0.107488 0.379327 0.030175 0.115616
H8    H     H_    0.037453 0.264560 0.923562 0.169289
H9    H     H_    0.912836 0.751124 0.291375 0.211613
H10   H     H_    0.755448 0.700386 0.323455 0.206818
H11   H     H_    0.720775 0.698842 0.071420 0.144767
H12   H     H_    0.471623 0.892610 0.298102 0.122496
H13   H     H_    0.764488 0.846810 0.133784 0.090424
H14   H     H_    0.876115 0.751200 0.043934 0.143327
H15   H     H_    0.987111 0.840566 0.644956 0.110280
H16   H     H_    0.823280 0.845908 0.680080 0.160103
H17   H     H_    0.875463 0.027931 0.550846 0.071713
H18   H     H_    0.789575 0.931481 0.438422 0.167817
H19   H     H_    0.954552 0.938549 0.420278 0.137650
H20   H     H_    0.508524 0.932843 0.701447 0.219309
H21   H     H_    0.636081 0.983549 0.612898 0.225925
H22   H     H_    0.054127 0.140409 0.563223 0.123493
H23   H     H_    0.541317 0.109247 0.295505 0.139291
H24   H     H_    0.218254 0.169255 0.571145 0.174904
H25   H     H_    0.241593 0.124199 0.323233 0.165653
H26   H     H_    0.178010 0.997073 0.416607 0.091689
H27   H     H_    0.078836 0.093892 0.310930 0.152785
H28   H     H_    0.874017 0.177949 0.705996 0.105753
H29   H     H_    0.739707 0.257161 0.634895 0.135572
H30   H     H_    0.668955 0.192025 0.850155 0.095892
H31   H     H_    0.815147 0.215198 0.931547 0.100833
H32   H     H_    0.716288 0.345520 0.888205 0.192144
H33   H     H_    0.791824 0.644921 0.739915 0.270282
H34   H     H_    0.441962 0.096155 0.593225 0.102411
H35   H     H_    0.934359 0.665266 0.794605 0.174572
H36   H     H_    0.194794 0.668224 0.307296 0.238733
H37   H     H_    0.097133 0.639699 0.179409 0.240215
H38   H     H_    0.883780 0.347746 0.090212 0.149915
H39   H     H_    0.756380 0.402123 0.190174 0.209015
H40   H     H_    0.764491 0.207218 0.331114 0.148754
H41   H     H_    0.722969 0.189293 0.152625 0.089592
H42   H     H_    0.877453 0.148643 0.208912 0.139427
H43   H     H_    0.407706 0.338484 0.871970 0.149961
H44   H     H_    0.532121 0.574913 0.893780 0.205651
H45   H     H_    0.385485 0.352855 0.129766 0.143718
H46   H     H_    0.557318 0.557729 0.105366 0.203173
H47   H     H_    0.900807 0.304312 0.504155 0.136879
N1    N     N_2   0.498630 0.498660 0.846910 -0.360380
N2    N     N_2   0.498590 0.498630 0.153040 -0.360791
N3    N     N_3   0.578523 0.909957 0.631139 -0.646944
N4    N     N_3   0.881870 0.609963 0.730527 -0.567923
N5    N     N_3   0.103765 0.644791 0.287067 -0.673627
O1    O     O_R   0.500020 0.321960 0.617040 -0.503760
O2    O     O_3   0.874007 0.572799 0.230384 -0.556255
O3    O     O_3   0.875383 0.725817 0.524434 -0.599907
O4    O     O_3   0.113132 0.294501 0.456830 -0.560839
O5    O     O_3   0.883040 0.366532 0.704827 -0.550916
O6    O     O_3   0.929367 0.375466 0.292912 -0.588186
O7    O     O_R   0.499980 0.321920 0.382900 -0.497003
O8    O     O_R   0.317710 0.500000 0.617070 -0.482736
O9    O     O_R   0.317670 0.499960 0.382930 -0.506568
O10   O     O_R   0.500020 0.678080 0.617100 -0.487253
O11   O     O_R   0.499980 0.678040 0.382960 -0.532683
O12   O     O_R   0.682330 0.500040 0.617070 -0.462135
O13   O     O_R   0.682290 0.500000 0.382930 -0.511477
O14   O     O_3   0.137052 0.343239 0.688267 -0.548136

loop_
_geom_bond_atom_site_label_1
_geom_bond_atom_site_label_2
_ccdc_geom_bond_type
H35   N4    S    
Cu1   O1    S    
C17   H19   S    
C26   H12   S    
Cu1   N1    S    
C19   H25   S    
Cu2   N2    S    
C12   C23   S    
C25   O6    S    
C23   N4    S    
C11   O14   S    
C6    O14   S    
C11   H4    S    
C24   H41   S    
H33   N4    S    
Cu2   O7    S    
Cu1   O12   S    
C7    O5    S    
C8    C23   S    
C6    O4    S    
Cu2   O13   S    
C18   C19   S    
C20   H29   S    
C11   H5    S    
C13   H8    S    
C4    C27   S    
C16   C17   S    
C21   H32   S    
C16   O3    S    
C20   H28   S    
C9    C10   S    
C18   H24   S    
C14   H10   S    
C30   N1    D    
Cu2   O9    S    
C1    O7    A    
C23   O3    S    
C16   H16   S    
C16   H15   S    
C28   H23   S    
C19   H26   S    
C1    O1    A    
C7    C12   S    
C13   H7    S    
C9    C25   S    
H36   N5    S    
H37   N5    S    
C14   O2    S    
C5    C12   S    
C17   H17   S    
C19   H27   S    
C18   O4    S    
C3    O8    A    
C4    O11   A    
Cu1   Cu2   S    
C1    C29   S    
C22   O6    S    
C3    O9    A    
C8    H2    S    
H20   N3    S    
C13   H6    S    
C14   H9    S    
C4    O10   A    
C5    O13   A    
C26   C27   D    
C22   C24   S    
C15   H13   S    
C22   H39   S    
C5    O12   A    
C24   H40   S    
C7    H47   S    
C28   C29   D    
C27   N3    S    
H44   N1    S    
C17   H18   S    
C6    C10   S    
C6    C7    S    
Cu1   O10   S    
C20   O5    S    
C26   C28   S    
C12   C25   S    
C2    C30   S    
C15   H11   S    
C3    C10   S    
C30   H43   S    
C11   C13   S    
H46   N2    S    
C24   H42   S    
C25   O2    S    
C8    H1    S    
C21   H31   S    
C18   H22   S    
C9    N5    S    
C29   H34   S    
Cu2   O11   S    
C20   C21   S    
C8    C10   S    
Cu1   O8    S    
C9    H3    S    
C2    H45   S    
C14   C15   S    
H21   N3    S    
C2    N2    D    
C15   H14   S    
C21   H30   S    
C22   H38   S    
