data_mof_unit_29252.cif
_audit_creation_date              2012-12-10T16:47:51-0500
_audit_creation_method            fapswitch 2.2
_symmetry_space_group_name_H-M    P1
_symmetry_Int_Tables_number       1
_space_group_crystal_system       triclinic
_cell_length_a                    7.776723
_cell_length_b                    8.577108
_cell_length_c                    10.684047
_cell_angle_alpha                 90.834855
_cell_angle_beta                  85.941635
_cell_angle_gamma                 93.637941
_cell_volume                      709.389318729

loop_
_atom_site_label
_atom_site_type_symbol
_atom_type_description
_atom_site_fract_x
_atom_site_fract_y
_atom_site_fract_z
_atom_type_partial_charge
C1    C     C_R   0.545755 0.794697 0.496841 1.023429
C2    C     C_2   0.569821 0.958199 0.495365 -0.328894
C3    C     C_2   0.430224 0.041803 0.505788 -0.339291
C4    C     C_R   0.503820 0.507138 0.736949 0.848542
C5    C     C_R   0.454261 0.205298 0.503538 0.940380
C6    C     C_R   0.496203 0.490500 0.262878 0.939210
C7    C     C_2   0.631095 0.452251 0.058456 -0.079453
C8    C     C_2   0.486863 0.461786 0.132020 -0.234191
C9    C     C_2   0.618634 0.444180 0.925497 -0.328371
C10   C     C_2   0.518011 0.536590 0.866802 0.313393
H1    H     H_    0.757987 0.450064 0.094669 0.192486
H2    H     H_    0.360395 0.450917 0.094512 0.183695
H3    H     H_    0.687512 0.353395 0.875001 0.165935
H4    H     H_    0.701673 0.009240 0.485508 0.176176
H5    H     H_    0.298379 0.990756 0.515791 0.185240
H6    H     H_    0.013294 0.382132 0.406527 0.193218
H7    H     H_    0.986704 0.617850 0.593493 0.208910
H8    H     H_    0.377052 0.933393 0.852301 0.380755
N1    N     N_2   0.950320 0.457950 0.466680 -0.171844
N2    N     N_2   0.049680 0.542050 0.533320 -0.164619
O1    O     O_R   0.389250 0.738570 0.508180 -0.597008
O2    O     O_2   0.540135 0.781869 0.029374 -0.288735
O3    O     O_3   0.429246 0.840839 0.812643 -0.569584
O4    O     O_R   0.678390 0.711630 0.486820 -0.626960
O5    O     O_R   0.355470 0.513470 0.691600 -0.575845
O6    O     O_R   0.644610 0.486520 0.670240 -0.642025
O7    O     O_R   0.321610 0.288370 0.513180 -0.635670
O8    O     O_R   0.610750 0.261430 0.491820 -0.616125
O9    O     O_R   0.355390 0.513480 0.329760 -0.619397
O10   O     O_R   0.644530 0.486530 0.308400 -0.620150
O11   O     O_2   0.249840 0.676669 0.982984 -0.308927
S1    S     S_3+6 0.431889 0.711504 0.929270 0.026140
Zn1   Zn    Zn3+2 0.306940 0.517990 0.514260 0.998617
Zn2   Zn    Zn3+2 0.693060 0.482010 0.485740 0.970965

loop_
_geom_bond_atom_site_label_1
_geom_bond_atom_site_label_2
_ccdc_geom_bond_type
C4    O6    A    
C1    O1    A    
O9    Zn1   S    
C5    O8    A    
C9    C10   D    
N1    N2    D    
C8    H2    S    
O3    S1    S    
H7    N2    S    
C2    C3    D    
O8    Zn2   S    
C7    C8    D    
O7    Zn1   S    
C7    H1    S    
O2    S1    D    
H6    N1    S    
N2    Zn1   S    
C6    O10   A    
C4    O5    A    
C2    H4    S    
O1    Zn1   S    
O10   Zn2   S    
C4    C10   S    
H8    O3    S    
C10   S1    S    
C6    O9    A    
C3    H5    S    
C1    O4    A    
C1    C2    S    
C7    C9    S    
C9    H3    S    
C6    C8    S    
C5    O7    A    
O6    Zn2   S    
O4    Zn2   S    
O11   S1    D    
O5    Zn1   S    
C3    C5    S    
N1    Zn2   S    
