data_mof_unit_57257.cif
_audit_creation_date              2012-12-11T16:51:22-0500
_audit_creation_method            fapswitch 2.2
_symmetry_space_group_name_H-M    P1
_symmetry_Int_Tables_number       1
_space_group_crystal_system       triclinic
_cell_length_a                    24.506276
_cell_length_b                    17.146718
_cell_length_c                    15.46906
_cell_angle_alpha                 89.999988
_cell_angle_beta                  129.040735
_cell_angle_gamma                 90.0
_cell_volume                      5048.6426137

loop_
_atom_site_label
_atom_site_type_symbol
_atom_type_description
_atom_site_fract_x
_atom_site_fract_y
_atom_site_fract_z
_atom_type_partial_charge
C1    C     C_R   0.832569 0.891374 0.198779 -0.225373
C2    C     C_R   0.184598 0.112927 0.500081 0.076595
C3    C     C_2   0.299337 0.584522 0.682175 0.531753
C4    C     C_2   0.844016 0.238929 0.019043 0.434247
C5    C     C_2   0.155984 0.238929 0.980957 0.434246
C6    C     C_2   0.344016 0.738929 0.019043 0.434247
C7    C     C_2   0.655984 0.738929 0.980957 0.434246
C8    C     C_2   0.162036 0.785969 0.009808 0.597459
C9    C     C_2   0.837964 0.785968 0.990192 0.597460
C10   C     C_2   0.662036 0.285969 0.009808 0.597459
C11   C     C_2   0.337964 0.285968 0.990192 0.597458
C12   C     C_R   0.315401 0.612927 0.499919 0.076595
C13   C     C_R   0.684598 0.612927 0.500081 0.076595
C14   C     C_R   0.877413 0.176698 0.194189 0.098755
C15   C     C_R   0.122587 0.176698 0.805811 0.098754
C16   C     C_R   0.377413 0.676698 0.194189 0.098755
C17   C     C_R   0.622587 0.676698 0.805811 0.098754
C18   C     C_R   0.843215 0.722779 0.606761 0.177951
C19   C     C_R   0.156784 0.722779 0.393239 0.177950
C20   C     C_R   0.343215 0.222779 0.606761 0.177951
C21   C     C_R   0.167431 0.891374 0.801221 -0.225372
C22   C     C_R   0.656784 0.222779 0.393239 0.177950
C23   C     C_R   0.830586 0.741828 0.507767 0.101580
C24   C     C_R   0.169413 0.741827 0.492233 0.101580
C25   C     C_R   0.330586 0.241828 0.507767 0.101580
C26   C     C_R   0.669413 0.241828 0.492233 0.101579
C27   C     C_R   0.786017 0.693446 0.414546 -0.288237
C28   C     C_R   0.213983 0.693446 0.585454 -0.288237
C29   C     C_R   0.286017 0.193446 0.414546 -0.288237
C30   C     C_R   0.713983 0.193446 0.585454 -0.288236
C31   C     C_R   0.244081 0.137313 0.414671 -0.077648
C32   C     C_R   0.332569 0.391374 0.198779 -0.225373
C33   C     C_R   0.755919 0.137313 0.585329 -0.077649
C34   C     C_R   0.744081 0.637313 0.414671 -0.077648
C35   C     C_R   0.255919 0.637313 0.585329 -0.077648
C36   C     C_R   0.244752 0.135112 0.507139 0.059063
C37   C     C_R   0.755248 0.135111 0.492861 0.059063
C38   C     C_R   0.744752 0.635111 0.507139 0.059063
C39   C     C_R   0.255248 0.635111 0.492861 0.059063
C40   C     C_R   0.300823 0.170485 0.606160 0.037374
C41   C     C_R   0.699177 0.170484 0.393840 0.037375
C42   C     C_R   0.800822 0.670485 0.606160 0.037374
C43   C     C_R   0.667431 0.391374 0.801221 -0.225371
C44   C     C_R   0.199177 0.670484 0.393840 0.037375
C45   C     C_3   0.801748 0.716692 0.689378 -0.484875
C46   C     C_3   0.198251 0.716692 0.310622 -0.484876
C47   C     C_3   0.301748 0.216692 0.689377 -0.484875
C48   C     C_3   0.698251 0.216692 0.310621 -0.484876
C49   C     C_R   0.088187 0.856221 0.408009 0.730314
C50   C     C_R   0.911813 0.856221 0.591991 0.730314
C51   C     C_R   0.588187 0.356221 0.408009 0.730315
C52   C     C_R   0.411813 0.356221 0.591991 0.730314
C53   C     C_3   0.848133 0.774175 0.690113 -0.278004
C54   C     C_R   0.884949 0.102196 0.592403 -0.065269
C55   C     C_3   0.151866 0.774174 0.309886 -0.278003
C56   C     C_3   0.348133 0.274175 0.690113 -0.278004
C57   C     C_3   0.651866 0.274174 0.309886 -0.278002
C58   C     C_2   0.194727 0.840788 0.979518 -0.052188
C59   C     C_2   0.805272 0.840788 0.020482 -0.052188
C60   C     C_2   0.694728 0.340788 0.979518 -0.052187
C61   C     C_2   0.305272 0.340788 0.020482 -0.052188
C62   C     C_2   0.264619 0.854510 0.044597 -0.207527
C63   C     C_2   0.735381 0.854510 0.955403 -0.207528
C64   C     C_2   0.764619 0.354510 0.044597 -0.207525
C65   C     C_R   0.115051 0.102196 0.407597 -0.065269
C66   C     C_2   0.235381 0.354510 0.955403 -0.207527
C67   C     C_2   0.846362 0.243407 0.117564 -0.327261
C68   C     C_2   0.153637 0.243407 0.882436 -0.327261
C69   C     C_2   0.346362 0.743407 0.117564 -0.327260
C70   C     C_2   0.653637 0.743407 0.882436 -0.327260
C71   C     C_2   0.816376 0.301185 0.134631 0.821709
C72   C     C_2   0.183624 0.301185 0.865368 0.821709
C73   C     C_2   0.316376 0.801185 0.134632 0.821710
C74   C     C_2   0.683624 0.801186 0.865368 0.821710
C75   C     C_R   0.165418 0.857698 0.592305 -0.217757
C76   C     C_R   0.384949 0.602196 0.592403 -0.065269
C77   C     C_R   0.834582 0.857698 0.407695 -0.217757
C78   C     C_R   0.665418 0.357698 0.592305 -0.217757
C79   C     C_R   0.334582 0.357698 0.407695 -0.217757
C80   C     C_R   0.079238 0.896364 0.806487 0.855923
C81   C     C_R   0.920762 0.896365 0.193513 0.855925
C82   C     C_R   0.579238 0.396364 0.806487 0.855923
C83   C     C_R   0.420762 0.396365 0.193513 0.855924
C84   C     C_R   0.851457 0.873492 0.133820 -0.206366
C85   C     C_R   0.148543 0.873492 0.866180 -0.206367
C86   C     C_R   0.351457 0.373492 0.133820 -0.206367
C87   C     C_R   0.615051 0.602196 0.407597 -0.065269
C88   C     C_R   0.648543 0.373491 0.866180 -0.206367
C89   C     C_R   0.141701 0.814402 0.498747 -0.136093
C90   C     C_R   0.858299 0.814402 0.501253 -0.136094
C91   C     C_R   0.641701 0.314402 0.498747 -0.136093
C92   C     C_R   0.358299 0.314402 0.501253 -0.136093
C93   C     C_R   0.810767 0.096925 0.408481 -0.117975
C94   C     C_R   0.189233 0.096925 0.591518 -0.117975
C95   C     C_R   0.310767 0.596925 0.408481 -0.117975
C96   C     C_R   0.689233 0.596925 0.591518 -0.117975
C97   C     C_R   0.937918 0.136120 0.231607 -0.114527
C98   C     C_R   0.815401 0.112927 0.499919 0.076594
C99   C     C_R   0.062082 0.136120 0.768393 -0.114525
C100  C     C_R   0.437918 0.636120 0.231607 -0.114527
C101  C     C_R   0.562082 0.636120 0.768393 -0.114525
C102  C     C_R   0.152707 0.137846 0.766222 -0.034215
C103  C     C_R   0.847293 0.137846 0.233778 -0.034215
C104  C     C_R   0.652707 0.637846 0.766222 -0.034215
C105  C     C_R   0.347293 0.637846 0.233778 -0.034215
C106  C     C_2   0.200664 0.084522 0.317825 0.531753
C107  C     C_2   0.799337 0.084522 0.682175 0.531754
C108  C     C_2   0.700664 0.584522 0.317825 0.531754
F1    F     F_    0.827018 0.305147 0.232223 -0.658498
F2    F     F_    0.950686 0.913084 0.145933 -0.662257
F3    F     F_    0.549314 0.413084 0.854067 -0.662256
F4    F     F_    0.450686 0.413084 0.145933 -0.662257
F5    F     F_    0.172982 0.305147 0.767777 -0.658498
F6    F     F_    0.327018 0.805147 0.232223 -0.658499
F7    F     F_    0.672982 0.805147 0.767777 -0.658498
F8    F     F_    0.045744 0.830880 0.302074 -0.723554
F9    F     F_    0.954256 0.830880 0.697926 -0.723553
F10   F     F_    0.545744 0.330880 0.302074 -0.723554
F11   F     F_    0.454256 0.330880 0.697926 -0.723553
F12   F     F_    0.049314 0.913084 0.854067 -0.662256
H1    H     H_    0.779947 0.891966 0.172301 0.188337
H2    H     H_    0.170744 0.685161 0.230289 0.225855
H3    H     H_    0.329255 0.185162 0.769710 0.225856
H4    H     H_    0.670743 0.185161 0.230289 0.225855
H5    H     H_    0.822900 0.832119 0.655733 0.214104
H6    H     H_    0.177099 0.832119 0.344265 0.214104
H7    H     H_    0.322900 0.332119 0.655733 0.214104
H8    H     H_    0.677098 0.332119 0.344265 0.214104
H9    H     H_    0.901612 0.775623 0.772309 0.252218
H10   H     H_    0.098387 0.775622 0.227690 0.252217
H11   H     H_    0.401612 0.275623 0.772309 0.252218
H12   H     H_    0.220053 0.891966 0.827699 0.188337
H13   H     H_    0.598387 0.275621 0.227690 0.252217
H14   H     H_    0.284717 0.897308 0.019243 0.146235
H15   H     H_    0.715283 0.897308 0.980757 0.146235
H16   H     H_    0.784717 0.397308 0.019243 0.146235
H17   H     H_    0.215283 0.397308 0.980757 0.146235
H18   H     H_    0.207567 0.842851 0.678000 0.166390
H19   H     H_    0.792432 0.842851 0.322000 0.166390
H20   H     H_    0.707567 0.342851 0.678000 0.166390
H21   H     H_    0.292432 0.342851 0.322000 0.166390
H22   H     H_    0.763273 0.087283 0.324286 0.111770
H23   H     H_    0.279947 0.391967 0.172301 0.188337
H24   H     H_    0.236727 0.087283 0.675714 0.111770
H25   H     H_    0.263273 0.587283 0.324286 0.111770
H26   H     H_    0.736727 0.587283 0.675714 0.111770
H27   H     H_    0.972965 0.148819 0.213446 0.108162
H28   H     H_    0.027035 0.148819 0.786554 0.108162
H29   H     H_    0.472965 0.648819 0.213446 0.108162
H30   H     H_    0.527035 0.648819 0.786554 0.108162
H31   H     H_    0.201702 0.151236 0.783035 0.153354
H32   H     H_    0.798298 0.151236 0.216965 0.153354
H33   H     H_    0.701702 0.651236 0.783035 0.153354
H34   H     H_    0.720053 0.391967 0.827699 0.188338
H35   H     H_    0.298298 0.651236 0.216965 0.153354
H36   H     H_    0.906876 0.102543 0.678631 0.124219
H37   H     H_    0.093124 0.102543 0.321369 0.124219
H38   H     H_    0.406876 0.602543 0.678631 0.124219
H39   H     H_    0.593124 0.602543 0.321369 0.124219
H40   H     H_    0.780974 0.702153 0.340405 0.147432
H41   H     H_    0.219026 0.702154 0.659596 0.147432
H42   H     H_    0.280974 0.202153 0.340405 0.147432
H43   H     H_    0.719026 0.202154 0.659596 0.147432
H44   H     H_    0.187675 0.100512 0.238867 0.022695
H45   H     H_    0.749833 0.741940 0.655149 0.250581
H46   H     H_    0.812325 0.100513 0.761133 0.022695
H47   H     H_    0.687675 0.600512 0.238867 0.022695
H48   H     H_    0.312325 0.600513 0.761133 0.022696
H49   H     H_    0.856563 0.184232 0.999772 0.055304
H50   H     H_    0.143438 0.184231 0.000229 0.055304
H51   H     H_    0.356562 0.684232 0.999771 0.055304
H52   H     H_    0.643439 0.684231 0.000229 0.055304
H53   H     H_    0.108704 0.765738 0.945876 0.043622
H54   H     H_    0.891296 0.765737 0.054124 0.043622
H55   H     H_    0.608704 0.265738 0.945876 0.043622
H56   H     H_    0.250166 0.741939 0.344850 0.250582
H57   H     H_    0.391296 0.265738 0.054124 0.043622
H58   H     H_    0.249833 0.241940 0.655149 0.250581
H59   H     H_    0.750166 0.241939 0.344850 0.250582
H60   H     H_    0.829255 0.685162 0.769710 0.225856
N1    N     N_R   0.888400 0.921830 0.294620 -0.086364
N2    N     N_R   0.874350 0.922400 0.443380 -0.076054
N3    N     N_R   0.625650 0.422400 0.556620 -0.076054
N4    N     N_R   0.374350 0.422400 0.443380 -0.076054
N5    N     N_R   0.054230 0.922730 0.705400 -0.119203
N6    N     N_R   0.945770 0.922730 0.294600 -0.119202
N7    N     N_R   0.554230 0.422730 0.705400 -0.119202
N8    N     N_R   0.445770 0.422730 0.294600 -0.119202
N9    N     N_R   0.873790 0.077030 0.443380 -0.044469
N10   N     N_R   0.126210 0.077030 0.556620 -0.044469
N11   N     N_R   0.373790 0.577030 0.443380 -0.044469
N12   N     N_R   0.111600 0.921830 0.705380 -0.086364
N13   N     N_R   0.626210 0.577030 0.556620 -0.044469
N14   N     N_R   0.945200 0.076700 0.294600 -0.052205
N15   N     N_R   0.054800 0.076700 0.705400 -0.052205
N16   N     N_R   0.445200 0.576700 0.294600 -0.052205
N17   N     N_R   0.554800 0.576700 0.705400 -0.052205
N18   N     N_R   0.111030 0.077600 0.705380 -0.065714
N19   N     N_R   0.888970 0.077600 0.294620 -0.065714
N20   N     N_R   0.611030 0.577600 0.705380 -0.065714
N21   N     N_R   0.388970 0.577600 0.294620 -0.065714
N22   N     N_R   0.919490 0.077280 0.556590 -0.049630
N23   N     N_R   0.388400 0.421830 0.294620 -0.086364
N24   N     N_R   0.080510 0.077280 0.443410 -0.049630
N25   N     N_R   0.419490 0.577280 0.556590 -0.049630
N26   N     N_R   0.580510 0.577280 0.443410 -0.049630
N27   N     N_R   0.611600 0.421830 0.705380 -0.086364
N28   N     N_R   0.079940 0.922160 0.443410 -0.104158
N29   N     N_R   0.920060 0.922160 0.556590 -0.104158
N30   N     N_R   0.579940 0.422160 0.443410 -0.104158
N31   N     N_R   0.420060 0.422160 0.556590 -0.104158
N32   N     N_R   0.125650 0.922400 0.556620 -0.076054
Ni1   Ni    Ni4+2 0.882160 0.999430 0.370180 0.201529
Ni2   Ni    Ni4+2 0.117840 0.999430 0.629820 0.201529
Ni3   Ni    Ni4+2 0.382160 0.499430 0.370180 0.201529
Ni4   Ni    Ni4+2 0.617840 0.499430 0.629820 0.201529
Ni5   Ni    Ni4+2 0.012460 0.999430 0.370180 0.297035
Ni6   Ni    Ni4+2 0.987540 0.999430 0.629820 0.297035
Ni7   Ni    Ni4+2 0.512460 0.499430 0.370180 0.297035
Ni8   Ni    Ni4+2 0.487540 0.499430 0.629820 0.297035
O1    O     O_2   0.182148 0.020921 0.326603 -0.567163
O2    O     O_2   0.807275 0.764428 0.894660 -0.575802
O3    O     O_2   0.692725 0.264429 0.105340 -0.575801
O4    O     O_2   0.307275 0.264428 0.894660 -0.575801
O5    O     O_2   0.817852 0.020921 0.673398 -0.567163
O6    O     O_2   0.682148 0.520921 0.326603 -0.567164
O7    O     O_2   0.317852 0.520921 0.673398 -0.567163
O8    O     O_2   0.830460 0.295572 0.960791 -0.613186
O9    O     O_2   0.169539 0.295573 0.039207 -0.613184
O10   O     O_2   0.330461 0.795573 0.960792 -0.613185
O11   O     O_2   0.669539 0.795573 0.039207 -0.613184
O12   O     O_2   0.192725 0.764428 0.105340 -0.575801

loop_
_geom_bond_atom_site_label_1
_geom_bond_atom_site_label_2
_ccdc_geom_bond_type
C58   C62   D    
C40   C47   S    
C99   H28   S    
C64   H16   S    
N25   Ni8   S    
C6    C69   S    
C50   F9    S    
C97   H27   S    
C35   C39   A    
C33   C107  S    
C20   C56   S    
C2    C65   A    
N10   N24   A    
C24   C89   S    
N16   Ni7   S    
C22   C57   S    
C80   F12   S    
C60   C88   S    
C48   C57   S    
C21   H12   S    
C7    O11   D    
C19   C44   A    
C1    C84   A    
N31   Ni8   S    
C65   N24   A    
C76   H38   S    
C47   C56   S    
N13   Ni4   S    
C43   C88   A    
N23   Ni3   S    
C17   C104  A    
C38   C42   A    
C47   H58   S    
C18   C42   A    
C54   H36   S    
C20   C40   A    
C101  N17   A    
C56   H7    S    
C22   C41   A    
C20   C25   A    
C74   F7    S    
C19   C55   S    
C99   N15   A    
C101  H30   S    
C10   H55   S    
C51   F10   S    
C79   N4    A    
C78   N3    A    
N11   N25   A    
C64   C71   S    
C17   C101  A    
N21   Ni3   S    
C32   H23   S    
C45   H60   S    
C51   C91   A    
N20   Ni4   S    
C53   H5    S    
C105  N21   A    
C9    O2    D    
C50   C90   A    
C66   C72   S    
C28   C35   A    
C95   H25   S    
C46   C55   S    
C70   C74   D    
N2    Ni1   S    
C14   C67   S    
C55   H6    S    
C12   C95   A    
C69   C73   D    
C11   H57   S    
C23   C27   A    
C104  H33   S    
N17   Ni8   S    
C18   C53   S    
C95   N11   A    
C102  H31   S    
N7    Ni8   S    
N15   N18   A    
N11   Ni3   S    
C107  H46   S    
C45   C53   S    
C17   C70   S    
C34   C38   A    
C7    H52   S    
C104  N20   A    
C57   H13   S    
C71   F1    S    
C30   H43   S    
C7    C70   S    
C5    C68   S    
C16   C105  A    
C61   C66   D    
N12   Ni2   S    
N28   N32   A    
C44   C46   S    
C3    H48   S    
N14   Ni5   S    
C6    H51   S    
C100  N16   A    
C27   C34   A    
C25   C29   A    
C83   F4    S    
C77   C90   A    
N6    Ni5   S    
C21   C85   A    
C75   N32   A    
C4    H49   S    
C13   C96   A    
C43   N27   A    
C18   C23   A    
C24   C28   A    
C2    C94   A    
C28   H41   S    
C50   N29   A    
C65   H37   S    
N5    Ni6   S    
C49   C89   A    
C1    N1    A    
C8    H53   S    
C16   C100  A    
C21   N12   A    
C27   H40   S    
C54   N22   A    
C14   C97   A    
C72   F5    S    
N2    N29   A    
C33   C37   A    
C73   F6    S    
C68   C72   D    
N3    N30   A    
C42   C45   S    
C63   H15   S    
C97   N14   A    
N17   N20   A    
C10   C60   S    
C94   N10   A    
C87   N26   A    
C80   C85   A    
C5    O9    D    
C52   N31   A    
C47   H3    S    
N14   N19   A    
C49   N28   A    
C3    C35   S    
C80   N5    A    
C55   H10   S    
C32   C86   A    
C13   C87   A    
C49   F8    S    
C77   N2    A    
C79   C92   A    
C23   C90   S    
C37   C98   S    
C9    H54   S    
C62   C73   S    
C103  N19   A    
C59   C84   S    
N10   Ni2   S    
C13   C38   S    
N9    Ni1   S    
C10   O3    D    
C5    H50   S    
C103  H32   S    
C96   N13   A    
C105  H35   S    
C108  H47   S    
N32   Ni2   S    
C26   C30   A    
C106  H44   S    
C6    O10   D    
C78   C91   A    
C57   H8    S    
C46   H56   S    
C36   C40   A    
C52   C92   A    
C53   H9    S    
N29   Ni6   S    
C43   H34   S    
C58   C85   S    
C3    O7    D    
C81   N6    A    
C48   H59   S    
C81   C84   A    
C76   N25   A    
N5    N12   A    
N8    Ni7   S    
C2    C36   S    
N3    Ni4   S    
C25   C92   S    
C8    C58   S    
N13   N26   A    
C30   C33   A    
N19   Ni1   S    
C29   H42   S    
C54   C98   A    
C16   C69   S    
C77   H19   S    
C15   C99   A    
C11   C61   S    
C75   H18   S    
C78   H20   S    
C11   O4    D    
C48   H4    S    
C4    C67   S    
N1    N6    A    
C39   C44   A    
C63   C74   S    
C93   N9    A    
N9    N22   A    
C96   H26   S    
N24   Ni5   S    
N8    N23   A    
C59   C63   D    
C100  H29   S    
C82   N7    A    
C60   C64   D    
C34   C108  S    
C82   F3    S    
C62   H14   S    
C32   N23   A    
C12   C76   A    
C19   C24   A    
C26   C91   S    
C94   H24   S    
N4    N31   A    
C29   C31   A    
C8    O12   D    
C51   N30   A    
N22   Ni6   S    
C14   C103  A    
C79   H21   S    
C66   H17   S    
C108  O6    D    
C12   C39   S    
C82   C88   A    
C15   C68   S    
C107  O5    D    
N27   Ni4   S    
C31   C106  S    
C41   C48   S    
C87   H39   S    
C102  N18   A    
C67   C71   D    
C4    O8    D    
C15   C102  A    
C37   C41   A    
C83   N8    A    
C1    H1    S    
C56   H11   S    
C61   C86   S    
N30   Ni7   S    
C106  O1    D    
C52   F11   S    
C83   C86   A    
C81   F2    S    
N4    Ni3   S    
C22   C26   A    
C75   C89   A    
N7    N27   A    
C31   C36   A    
C46   H2    S    
N1    Ni1   S    
C9    C59   S    
N16   N21   A    
C45   H45   S    
C93   C98   A    
N15   Ni6   S    
C93   H22   S    
N26   Ni7   S    
N28   Ni5   S    
N18   Ni2   S    
