data_mof_unit_19428.cif
_audit_creation_date              2013-03-05T16:48:45-0500
_audit_creation_method            fapswitch 2.2
_symmetry_space_group_name_H-M    P1
_symmetry_Int_Tables_number       1
_space_group_crystal_system       triclinic
_cell_length_a                    27.755877
_cell_length_b                    8.939975
_cell_length_c                    8.102176
_cell_angle_alpha                 89.99747
_cell_angle_beta                  89.998557
_cell_angle_gamma                 90.000199
_cell_volume                      2010.44839968

loop_
_atom_site_label
_atom_site_type_symbol
_atom_site_description
_atom_site_fract_x
_atom_site_fract_y
_atom_site_fract_z
_atom_type_partial_charge
O1    O     O_R   0.500000 0.285350 0.636850 -0.614657
O2    O     O_R   0.500000 0.714650 0.363150 -0.614645
O3    O     O_R   0.500000 0.714650 0.636850 -0.614643
O4    O     O_R   0.500000 0.285350 0.363150 -0.614657
C1    C     C_R   0.500000 0.217969 0.500003 0.943024
C2    C     C_R   0.500000 0.782031 0.499997 0.943048
O5    O     O_R   0.428760 0.500000 0.636860 -0.624254
O6    O     O_R   0.571240 0.500000 0.363140 -0.624244
O7    O     O_R   0.571240 0.500000 0.636860 -0.624228
O8    O     O_R   0.428760 0.500000 0.363140 -0.624240
C3    C     C_R   0.405778 0.499990 0.500003 0.884036
C4    C     C_R   0.594223 0.499978 0.499996 0.884017
Zn1   Zn    Zn3+2 0.500000 0.500000 0.682780 0.993079
Zn2   Zn    Zn3+2 0.500000 0.500000 0.317220 0.993076
C5    C     C_R   0.177275 0.367561 0.476423 0.624802
C6    C     C_R   0.822732 0.631168 0.476386 0.623735
C7    C     C_R   0.177247 0.631451 0.523669 0.624293
C8    C     C_R   0.822746 0.367251 0.523464 0.625215
O9    O     O_2   0.202355 0.240058 0.452261 -0.534899
O10   O     O_2   0.797658 0.758698 0.452319 -0.535174
O11   O     O_2   0.202300 0.759005 0.547835 -0.535013
O12   O     O_2   0.797686 0.239697 0.547535 -0.534893
N1    N     N_R   0.201118 0.499532 0.500045 -0.323878
N2    N     N_R   0.798882 0.499197 0.499924 -0.323857
C9    C     C_R   0.277835 0.538480 0.354337 -0.008452
C10   C     C_R   0.722132 0.460485 0.354320 -0.008825
C11   C     C_R   0.277855 0.460878 0.645711 -0.008631
C12   C     C_R   0.722170 0.538215 0.645646 -0.008269
C13   C     C_R   0.328048 0.537873 0.356519 -0.305574
C14   C     C_R   0.671922 0.461505 0.356515 -0.305631
C15   C     C_R   0.328067 0.461782 0.643519 -0.305599
C16   C     C_R   0.671961 0.537780 0.643451 -0.305585
C17   C     C_R   0.252528 0.499599 0.500024 0.292185
C18   C     C_R   0.747466 0.499207 0.499986 0.292253
C19   C     C_R   0.101465 0.499429 0.500036 -0.042511
C20   C     C_R   0.898535 0.499258 0.499937 -0.042504
C21   C     C_R   0.126931 0.364579 0.478444 -0.011652
C22   C     C_R   0.873073 0.634127 0.478400 -0.011554
C23   C     C_R   0.126904 0.634330 0.521642 -0.011596
C24   C     C_R   0.873090 0.364353 0.521456 -0.011685
C25   C     C_R   0.101718 0.230578 0.458190 -0.118324
C26   C     C_R   0.898290 0.768125 0.458196 -0.118395
C27   C     C_R   0.101664 0.768280 0.541895 -0.118375
C28   C     C_R   0.898327 0.230390 0.541667 -0.118370
C29   C     C_R   0.353181 0.499896 0.500018 -0.006857
C30   C     C_R   0.646816 0.499783 0.499981 -0.006856
H1    H     H_    0.347727 0.431879 0.754377 0.154174
H2    H     H_    0.652332 0.567934 0.754282 0.154142
H3    H     H_    0.347687 0.567886 0.245658 0.154158
H4    H     H_    0.652262 0.431566 0.245680 0.154174
H5    H     H_    0.120518 0.126207 0.436984 0.188075
H6    H     H_    0.879493 0.872505 0.437008 0.188074
H7    H     H_    0.120443 0.872687 0.563121 0.188037
H8    H     H_    0.879544 0.125983 0.562835 0.187978
C31   C     C_R   0.974661 0.361673 0.507974 0.050930
C32   C     C_R   0.025337 0.637001 0.508057 0.050938
C33   C     C_R   0.974638 0.636960 0.491972 0.050934
C34   C     C_R   0.025362 0.361717 0.491953 0.050924
C35   C     C_R   0.949433 0.499296 0.499960 0.077295
C36   C     C_R   0.050566 0.499382 0.500017 0.077298
C37   C     C_R   0.948285 0.228735 0.534122 -0.207295
C38   C     C_R   0.051707 0.769933 0.534294 -0.207360
C39   C     C_R   0.948246 0.769854 0.465782 -0.207373
C40   C     C_R   0.051760 0.228832 0.465756 -0.207348
H9    H     H_    0.965586 0.122566 0.555364 0.133644
H10   H     H_    0.034403 0.876092 0.555562 0.133684
H11   H     H_    0.965532 0.876048 0.444542 0.133691
H12   H     H_    0.034478 0.122638 0.444490 0.133702
C41   C     C_1   0.500000 0.065173 0.500004 -0.184329
C42   C     C_1   0.500000 0.934827 0.499996 -0.184337
N3    N     N_1   0.500000 0.500000 0.073640 -0.036606
N4    N     N_1   0.500000 0.500000 0.926360 -0.036604
C43   C     C_2   0.253751 0.418488 0.802784 0.458046
H13   H     H_    0.275252 0.377371 0.905134 0.051251
O13   O     O_2   0.210302 0.429949 0.821932 -0.532949
C44   C     C_2   0.746320 0.580503 0.802653 0.457129
H14   H     H_    0.724906 0.622727 0.904640 0.051713
O14   O     O_2   0.789714 0.567576 0.822169 -0.532915
C45   C     C_2   0.253701 0.580776 0.197291 0.457685
H15   H     H_    0.275162 0.622318 0.095058 0.051350
O15   O     O_2   0.210272 0.568737 0.178035 -0.533018
C46   C     C_2   0.746229 0.418035 0.197254 0.458124
H16   H     H_    0.724724 0.376835 0.094968 0.051464
O16   O     O_2   0.789676 0.429603 0.178041 -0.532719

loop_
_geom_bond_atom_site_label_1
_geom_bond_atom_site_label_2
_geom_bond_distance
_ccdc_geom_bond_type
C31   C35   1.417130 A    
C43   O13   1.220220 D    
Zn2   N3    1.973528 S    
C20   C35   1.412741 A    
C13   H3    1.084379 S    
C11   C17   1.416793 A    
C5    O9    1.349914 S    
C7    N1    1.366196 A    
O1    C1    1.261849 A    
C40   H12   1.077541 S    
C19   C21   1.408411 A    
C44   O14   1.220248 D    
C22   C26   1.397027 A    
C7    C23   1.397657 A    
C33   C35   1.417128 A    
C34   C36   1.417153 A    
C32   C33   1.413204 A    
C43   H13   1.085779 S    
O7    Zn1   2.012015 S    
C5    C21   1.397678 A    
C1    C41   1.365992 S    
C27   H7    1.082818 S    
N1    C17   1.426952 S    
C8    N2    1.366214 A    
C8    O12   1.349875 S    
C24   C28   1.397046 A    
O3    Zn1   1.954698 S    
C6    O10   1.349887 S    
O3    C2    1.261850 A    
C5    N1    1.366225 A    
C14   H4    1.084374 S    
C12   C18   1.416818 A    
C6    N2    1.366204 A    
C15   H1    1.084416 S    
C21   C25   1.397066 A    
C16   H2    1.084364 S    
O2    C2    1.261849 A    
C10   C18   1.416779 A    
C33   C39   1.411795 A    
C9    C13   1.393835 A    
C39   H11   1.077545 S    
C38   H10   1.077539 S    
C11   C15   1.393825 A    
C12   C16   1.393714 A    
C44   H14   1.085620 S    
C4    C30   1.459774 S    
O8    Zn2   2.012018 S    
C45   O15   1.220238 D    
C23   C27   1.397045 A    
C34   C40   1.411821 A    
N2    C18   1.427082 S    
C32   C36   1.417143 A    
C13   C29   1.397727 A    
C19   C36   1.412733 A    
C19   C23   1.408430 A    
C28   H8    1.082777 S    
O5    C3    1.279241 A    
C20   C24   1.408433 A    
O6    C4    1.279248 A    
C10   C14   1.393754 A    
C46   O16   1.220301 D    
C32   C38   1.411821 A    
C3    C29   1.459879 S    
O1    Zn1   1.954732 S    
C12   C44   1.486801 S    
C2    C42   1.365992 S    
O6    Zn2   2.012033 S    
C9    C45   1.486851 S    
C16   C30   1.397767 A    
C14   C30   1.397795 A    
O4    C1    1.261850 A    
Zn1   N4    1.973528 S    
C28   C37   1.388066 A    
C20   C22   1.408419 A    
N3    N4    1.193288 T    
C31   C37   1.411814 A    
O4    Zn2   1.954699 S    
C41   C42   1.165295 T    
O2    Zn2   1.954731 S    
O7    C4    1.279276 A    
C7    O11   1.349922 S    
C9    C17   1.416834 A    
O8    C3    1.279261 A    
C45   H15   1.085728 S    
C37   H9    1.077539 S    
O5    Zn1   2.012036 S    
C8    C24   1.397685 A    
C10   C46   1.486879 S    
C46   H16   1.085723 S    
C15   C29   1.397748 A    
C31   C34   1.413235 A    
C6    C22   1.397627 A    
C25   C40   1.388071 A    
C11   C43   1.486854 S    
C26   C39   1.388027 A    
C25   H5    1.082803 S    
C27   C38   1.388050 A    
C26   H6    1.082786 S    
