data_mof_unit_62609.cif
_audit_creation_date              2012-12-10T18:53:57-0500
_audit_creation_method            fapswitch 2.2
_symmetry_space_group_name_H-M    P1
_symmetry_Int_Tables_number       1
_space_group_crystal_system       triclinic
_cell_length_a                    19.44078
_cell_length_b                    19.442919
_cell_length_c                    19.450801
_cell_angle_alpha                 85.023108
_cell_angle_beta                  95.205969
_cell_angle_gamma                 90.235746
_cell_volume                      7294.13592966

loop_
_atom_site_label
_atom_site_type_symbol
_atom_type_description
_atom_site_fract_x
_atom_site_fract_y
_atom_site_fract_z
_atom_type_partial_charge
C1    C     C_R   0.311829 0.491983 0.491963 0.782769
C2    C     C_2   0.483957 0.982381 0.492081 -0.232962
C3    C     C_2   0.531500 0.018331 0.528130 -0.151083
C4    C     C_R   0.687953 0.507091 0.508284 0.854889
C5    C     C_R   0.514722 0.236978 0.515009 -0.070533
C6    C     C_R   0.763016 0.509192 0.512174 -0.077697
C7    C     C_R   0.801960 0.447904 0.516807 0.380222
C8    C     C_R   0.873287 0.451540 0.515729 -0.182596
C9    C     C_R   0.906324 0.515901 0.508431 0.129022
C10   C     C_R   0.867568 0.576597 0.507219 -0.159820
C11   C     C_R   0.796269 0.573283 0.509328 -0.243025
C12   C     C_R   0.488017 0.907076 0.489269 0.194650
C13   C     C_R   0.123932 0.538137 0.456010 -0.155823
C14   C     C_R   0.195520 0.543035 0.458905 -0.204815
C15   C     C_R   0.205618 0.424560 0.509787 -0.193997
C16   C     C_R   0.509128 0.491646 0.688691 0.851899
C17   C     C_R   0.134074 0.419271 0.505580 -0.163804
C18   C     C_R   0.093085 0.476420 0.480239 0.193318
C19   C     C_2   0.981099 0.521502 0.502670 -0.195765
C20   C     C_2   0.018205 0.470831 0.481227 -0.230816
C21   C     C_R   0.236689 0.486619 0.486912 0.005842
C22   C     C_R   0.490019 0.512336 0.235906 0.003822
C23   C     C_R   0.428571 0.871793 0.465689 -0.171816
C24   C     C_R   0.548995 0.494376 0.205150 -0.194760
C25   C     C_R   0.547738 0.496229 0.133648 -0.143263
C26   C     C_R   0.486648 0.514337 0.091714 0.196753
C27   C     C_R   0.428340 0.534573 0.122481 -0.173306
C28   C     C_R   0.491815 0.507977 0.311256 0.781308
C29   C     C_R   0.430014 0.533818 0.194296 -0.189317
C30   C     C_R   0.456744 0.475882 0.869363 -0.144304
C31   C     C_R   0.453633 0.479686 0.797546 -0.262180
C32   C     C_R   0.579065 0.486831 0.803172 0.381095
C33   C     C_R   0.581828 0.481775 0.875216 -0.203365
C34   C     C_R   0.429812 0.800215 0.464614 -0.192055
C35   C     C_R   0.520885 0.477857 0.908334 0.125639
C36   C     C_2   0.482009 0.512928 0.015955 -0.225054
C37   C     C_2   0.525543 0.476127 0.983831 -0.200121
C38   C     C_R   0.514401 0.486439 0.764048 -0.084481
C39   C     C_R   0.508624 0.311986 0.508812 0.829344
C40   C     C_R   0.491944 0.688154 0.491497 0.779924
C41   C     C_R   0.490491 0.763347 0.487760 0.005971
C42   C     C_R   0.550463 0.798669 0.509051 -0.197714
C43   C     C_R   0.549633 0.869945 0.508960 -0.130948
C44   C     C_R   0.465056 0.124486 0.539507 -0.215029
C45   C     C_R   0.459280 0.195980 0.534792 -0.196981
C46   C     C_R   0.576678 0.206007 0.501949 -0.201800
C47   C     C_R   0.583245 0.134436 0.508085 0.411423
C48   C     C_R   0.526734 0.093450 0.525698 0.087521
Cl1   Cl    Cl    0.661777 0.097813 0.490353 -0.586542
Cl2   Cl    Cl    0.763776 0.365595 0.526589 -0.570845
Cl3   Cl    Cl    0.657628 0.490594 0.764347 -0.572057
H1    H     H_    0.598296 0.771114 0.525477 0.163282
H2    H     H_    0.110683 0.371256 0.523964 0.141160
H3    H     H_    0.596404 0.479392 0.236422 0.166012
H4    H     H_    0.403687 0.478506 0.768004 0.168161
H5    H     H_    0.381107 0.549715 0.090987 0.133487
H6    H     H_    0.384087 0.548336 0.217287 0.160125
H7    H     H_    0.440751 0.542490 0.985562 0.153658
H8    H     H_    0.620145 0.237403 0.487525 0.218023
H9    H     H_    0.576297 0.993976 0.557274 0.181392
H10   H     H_    0.380852 0.899520 0.449247 0.133042
H11   H     H_    0.421485 0.093288 0.553961 0.159562
H12   H     H_    0.218652 0.591170 0.440539 0.158422
H13   H     H_    0.439932 0.009526 0.463685 0.157615
H14   H     H_    0.597643 0.894987 0.524019 0.148942
H15   H     H_    0.892302 0.626636 0.502986 0.144701
H16   H     H_    0.567469 0.446305 0.012306 0.154032
H17   H     H_    0.409216 0.471007 0.894404 0.147385
H18   H     H_    0.594985 0.483894 0.112062 0.132933
H19   H     H_    0.631481 0.482215 0.905422 0.170609
H20   H     H_    0.383084 0.773610 0.447626 0.155927
H21   H     H_    0.236611 0.380115 0.530646 0.159537
H22   H     H_    0.994690 0.422561 0.467844 0.158715
H23   H     H_    0.092744 0.582342 0.434887 0.136631
H24   H     H_    0.766786 0.620786 0.506409 0.165027
H25   H     H_    0.006388 0.569191 0.515879 0.153114
H26   H     H_    0.902252 0.403744 0.521299 0.166991
H27   H     H_    0.411207 0.219189 0.545346 0.167040
O1    O     O_3   0.500000 0.500000 0.500000 -0.502939
O2    O     O_R   0.467830 0.341070 0.546160 -0.644622
O3    O     O_R   0.450560 0.655630 0.450550 -0.646231
O4    O     O_R   0.545840 0.347670 0.467560 -0.623228
O5    O     O_R   0.535760 0.655640 0.535740 -0.646113
O6    O     O_R   0.545870 0.536170 0.656040 -0.593035
O7    O     O_R   0.450550 0.545430 0.340370 -0.645976
O8    O     O_R   0.347960 0.451240 0.536460 -0.649776
O9    O     O_R   0.655630 0.467150 0.467130 -0.604791
O10   O     O_R   0.340780 0.536140 0.450970 -0.647229
O11   O     O_R   0.655640 0.545460 0.545430 -0.625514
O12   O     O_R   0.467850 0.451260 0.656340 -0.646113
O13   O     O_R   0.535740 0.467130 0.347260 -0.643290
Zn1   Zn    Zn3+2 0.558310 0.558310 0.558290 1.023703
Zn2   Zn    Zn3+2 0.446830 0.436990 0.558720 0.982865
Zn3   Zn    Zn3+2 0.558290 0.446420 0.446420 1.019453
Zn4   Zn    Zn3+2 0.436570 0.558290 0.436570 0.960573

loop_
_geom_bond_atom_site_label_1
_geom_bond_atom_site_label_2
_ccdc_geom_bond_type
C1    C21   S    
O4    Zn3   S    
C22   C29   A    
C46   H8    S    
C27   C29   A    
C41   C42   A    
C19   C20   D    
C2    C12   S    
C7    C8    A    
C47   Cl1   S    
C4    O9    A    
C16   O12   A    
O5    Zn1   S    
C12   C23   A    
C26   C27   A    
C13   C18   A    
C14   C21   A    
C19   H25   S    
C35   C37   S    
O1    Zn2   S    
C12   C43   A    
C36   H7    S    
C30   C31   A    
O3    Zn4   S    
C24   H3    S    
O9    Zn3   S    
C3    C48   S    
C16   O6    A    
C9    C19   S    
C8    C9    A    
C45   H27   S    
C32   C38   A    
C9    C10   A    
C3    H9    S    
C1    O10   A    
O10   Zn4   S    
C22   C28   S    
C13   C14   A    
C40   O5    A    
C34   C41   A    
C2    H13   S    
C10   H15   S    
C24   C25   A    
C39   O4    A    
O1    Zn3   S    
C4    C6    S    
C6    C11   A    
C27   H5    S    
C44   H11   S    
C25   C26   A    
C5    C45   A    
C32   Cl3   S    
O1    Zn4   S    
C15   H21   S    
O8    Zn2   S    
C47   C48   A    
C15   C21   A    
C43   H14   S    
C23   C34   A    
C17   C18   A    
O11   Zn1   S    
O1    Zn1   S    
C33   H19   S    
C30   C35   A    
C26   C36   S    
C40   C41   S    
C29   H6    S    
C5    C39   S    
C8    H26   S    
C22   C24   A    
C25   H18   S    
C42   C43   A    
C17   H2    S    
C44   C45   A    
O12   Zn2   S    
C4    O11   A    
C1    O8    A    
C15   C17   A    
C46   C47   A    
C36   C37   D    
C40   O3    A    
C7    Cl2   S    
C6    C7    A    
C5    C46   A    
C31   C38   A    
C39   O2    A    
C2    C3    D    
C11   H24   S    
C32   C33   A    
O13   Zn3   S    
O7    Zn4   S    
C14   H12   S    
C37   H16   S    
C33   C35   A    
C20   H22   S    
C28   O13   A    
C18   C20   S    
C10   C11   A    
C23   H10   S    
C13   H23   S    
C42   H1    S    
C28   O7    A    
O6    Zn1   S    
C31   H4    S    
O2    Zn2   S    
C34   H20   S    
C30   H17   S    
C44   C48   A    
C16   C38   S    
