data_mof_unit_41947.cif
_audit_creation_date              2012-12-10T17:55:29-0500
_audit_creation_method            fapswitch 2.2
_symmetry_space_group_name_H-M    P1
_symmetry_Int_Tables_number       1
_space_group_crystal_system       triclinic
_cell_length_a                    10.813202
_cell_length_b                    9.661039
_cell_length_c                    10.901957
_cell_angle_alpha                 89.657131
_cell_angle_beta                  92.798014
_cell_angle_gamma                 90.609105
_cell_volume                      1137.4531313

loop_
_atom_site_label
_atom_site_type_symbol
_atom_type_description
_atom_site_fract_x
_atom_site_fract_y
_atom_site_fract_z
_atom_type_partial_charge
C1    C     C_R   0.262913 0.499384 0.498274 0.889730
C2    C     C_R   0.737422 0.500507 0.500983 0.879841
C3    C     C_R   0.505493 0.500523 0.265623 0.870415
C4    C     C_R   0.501239 0.499575 0.734309 0.887825
C5    C     C_2   0.583524 0.424074 0.934847 0.198135
C6    C     C_2   0.565412 0.401899 0.066538 0.139106
C7    C     C_2   0.499803 0.497065 0.866750 -0.332016
C8    C     C_2   0.522925 0.506489 0.134011 -0.384022
C9    C     C_R   0.059261 0.431555 0.404544 0.071120
C10   C     C_R   0.929565 0.432241 0.405482 0.076283
C11   C     C_R   0.871833 0.501171 0.499903 -0.063437
C12   C     C_R   0.129144 0.498659 0.498815 -0.050824
C13   C     C_R   0.942251 0.568902 0.593625 0.050260
C14   C     C_R   0.071853 0.567635 0.593111 0.064144
C15   C     C_R   0.425038 0.071519 0.417200 0.208082
C16   C     C_R   0.570671 0.073042 0.585467 0.183507
C17   C     C_R   0.426260 0.923985 0.417804 0.044353
C18   C     C_R   0.570484 0.925997 0.584819 0.046114
Cu1   Cu    Cu3+1 0.500000 0.640660 0.500000 0.976584
Cu2   Cu    Cu3+1 0.500000 0.359340 0.500000 0.943783
H1    H     H_    0.422919 0.548031 0.907528 0.117270
H2    H     H_    0.509773 0.607791 0.091761 0.147782
N1    N     N_R   0.500000 0.852070 0.500000 -0.249521
N2    N     N_R   0.500000 0.147940 0.500000 -0.193049
O1    O     O_R   0.319640 0.618740 0.499990 -0.568540
O2    O     O_R   0.680360 0.618740 0.500010 -0.573428
O3    O     O_R   0.319620 0.381170 0.499990 -0.589398
O4    O     O_R   0.680380 0.381170 0.500010 -0.590568
O5    O     O_R   0.500000 0.618750 0.321940 -0.582728
O6    O     O_R   0.500000 0.618750 0.678060 -0.575650
O7    O     O_R   0.499970 0.381180 0.321940 -0.605006
O8    O     O_R   0.500030 0.381180 0.678060 -0.581059
N3    N     N_3   0.687735 0.362952 0.878949 -0.585433
H3    H     H_    0.743552 0.311472 0.945140 0.240427
H4    H     H_    0.742170 0.443615 0.845861 0.208879
N4    N     N_3   0.594832 0.267927 0.116978 -0.579668
H5    H     H_    0.658312 0.278567 0.191496 0.256152
H6    H     H_    0.513799 0.221256 0.145600 0.235271
N5    N     N_3   0.120824 0.367302 0.306445 -0.611094
H7    H     H_    0.092930 0.415437 0.223720 0.220252
H8    H     H_    0.094421 0.263007 0.302293 0.238578
N6    N     N_3   0.855429 0.366307 0.309619 -0.607553
H9    H     H_    0.875759 0.411367 0.225473 0.214899
H10   H     H_    0.877657 0.261347 0.307967 0.226604
N7    N     N_3   0.881519 0.635852 0.690370 -0.581188
H11   H     H_    0.910133 0.590121 0.773937 0.211168
H12   H     H_    0.909225 0.739813 0.691891 0.239545
N8    N     N_3   0.146534 0.633464 0.689042 -0.590608
H13   H     H_    0.125158 0.738652 0.690489 0.230899
H14   H     H_    0.126060 0.588782 0.773286 0.212067
N9    N     N_3   0.337151 0.135069 0.331892 -0.597510
H15   H     H_    0.335454 0.240845 0.338513 0.304294
H16   H     H_    0.361839 0.112251 0.242924 0.185029
N10   N     N_3   0.637915 0.138904 0.685559 -0.594489
H17   H     H_    0.691658 0.221082 0.656222 0.278722
H18   H     H_    0.575502 0.167968 0.750384 0.271441
C19   C     C_1   0.343595 0.849283 0.333181 0.348620
N11   N     N_1   0.276796 0.790439 0.265063 -0.307791
C20   C     C_1   0.636569 0.856204 0.684581 0.373764
N12   N     N_1   0.687945 0.803617 0.767637 -0.296365

loop_
_geom_bond_atom_site_label_1
_geom_bond_atom_site_label_2
_ccdc_geom_bond_type
C2    O2    A    
Cu1   N1    S    
C1    O1    A    
N10   H18   S    
Cu2   O3    S    
C15   N9    S    
C10   N6    S    
C9    C10   A    
C8    H2    S    
Cu1   Cu2   S    
C3    O7    A    
C1    O3    A    
N8    H14   S    
N3    H3    S    
C20   N12   T    
C16   N2    A    
C16   C18   A    
C17   N1    A    
C13   C14   A    
C13   N7    S    
C11   C13   A    
C3    O5    A    
C19   N11   T    
C4    O8    A    
C1    C12   S    
N6    H10   S    
C4    C7    S    
C6    C8    D    
C2    C11   S    
N4    H6    S    
N8    H13   S    
N3    H4    S    
C6    N4    S    
C5    C7    D    
N7    H12   S    
C5    C6    S    
Cu1   O1    S    
C9    C12   A    
C16   N10   S    
C10   C11   A    
C18   N1    A    
Cu1   O5    S    
N7    H11   S    
C18   C20   S    
C9    N5    S    
N5    H8    S    
C3    C8    S    
Cu2   O8    S    
C17   C19   S    
N5    H7    S    
C15   C17   A    
Cu1   O2    S    
C14   N8    S    
N10   H17   S    
N4    H5    S    
C2    O4    A    
Cu2   O4    S    
C7    H1    S    
Cu1   O6    S    
C15   N2    A    
Cu2   N2    S    
C4    O6    A    
N9    H15   S    
N6    H9    S    
C12   C14   A    
N9    H16   S    
Cu2   O7    S    
C5    N3    S    
