data_mof_unit_25991.cif
_audit_creation_date              2012-12-10T17:16:42-0500
_audit_creation_method            fapswitch 2.2
_symmetry_space_group_name_H-M    P1
_symmetry_Int_Tables_number       1
_space_group_crystal_system       triclinic
_cell_length_a                    10.139311
_cell_length_b                    10.650472
_cell_length_c                    10.604031
_cell_angle_alpha                 90.407869
_cell_angle_beta                  95.576229
_cell_angle_gamma                 78.824055
_cell_volume                      1118.00100919

loop_
_atom_site_label
_atom_site_type_symbol
_atom_type_description
_atom_site_fract_x
_atom_site_fract_y
_atom_site_fract_z
_atom_type_partial_charge
C1    C     C_R   0.443370 0.504376 0.265453 0.812490
C2    C     C_R   0.492557 0.741214 0.484521 0.903396
C3    C     C_R   0.752823 0.061683 0.463750 -0.088283
C4    C     C_R   0.246519 0.938142 0.533928 -0.075272
C5    C     C_R   0.841222 0.985668 0.388393 -0.120464
C6    C     C_R   0.157994 0.014022 0.609245 -0.104851
C7    C     C_R   0.802005 0.882706 0.324255 -0.102525
C8    C     C_R   0.197227 0.116774 0.673770 -0.112724
C9    C     C_R   0.678736 0.850278 0.343250 -0.102831
C10   C     C_R   0.320616 0.149175 0.655157 -0.114571
C11   C     C_R   0.592454 0.921562 0.426740 0.065716
C12   C     C_R   0.556947 0.488055 0.734598 0.817870
C13   C     C_R   0.406966 0.078160 0.571559 0.081464
C14   C     C_R   0.621921 0.036538 0.474840 0.081734
C15   C     C_R   0.377473 0.963306 0.523229 0.077609
C16   C     C_R   0.479768 0.878527 0.465953 -0.230721
C17   C     C_R   0.519782 0.121224 0.532557 -0.229375
C18   C     C_2   0.411083 0.489394 0.130351 0.260214
C19   C     C_2   0.590719 0.463729 0.869693 0.229111
C20   C     C_2   0.507042 0.416912 0.068004 -0.206881
C21   C     C_2   0.499888 0.418250 0.931450 -0.223721
C22   C     C_2   0.073372 0.490712 0.489296 0.040863
C23   C     C_2   0.926044 0.511373 0.508519 0.003302
C24   C     C_R   0.507301 0.258643 0.514925 0.849978
Cl1   Cl    Cl    0.897574 0.333012 0.339568 -0.499522
Cl2   Cl    Cl    0.102913 0.664648 0.662726 -0.473598
H1    H     H_    0.130469 0.173686 0.735267 0.165496
H2    H     H_    0.601419 0.367859 0.118108 0.224878
H3    H     H_    0.885111 0.582110 0.575458 0.183783
H4    H     H_    0.113804 0.421742 0.420551 0.183945
H5    H     H_    0.888896 0.494642 0.811219 0.376650
H6    H     H_    0.073555 0.692655 0.109433 0.401130
H7    H     H_    0.868715 0.825632 0.262817 0.175386
H8    H     H_    0.790871 0.136370 0.516597 0.177644
H9    H     H_    0.208716 0.863363 0.480968 0.182616
H10   H     H_    0.939793 0.007407 0.378990 0.168757
H11   H     H_    0.059391 0.992257 0.618427 0.165489
H12   H     H_    0.651400 0.768783 0.292906 0.180338
H13   H     H_    0.347976 0.230412 0.705907 0.143949
H14   H     H_    0.408788 0.396146 0.880955 0.194961
N1    N     N_2   0.157300 0.551390 0.551120 0.035199
N2    N     N_2   0.842700 0.448610 0.448880 0.042202
O1    O     O_R   0.568940 0.489660 0.307530 -0.585283
O2    O     O_2   0.829422 0.381483 0.004250 -0.254567
O3    O     O_3   0.826409 0.567408 0.845149 -0.489450
O4    O     O_2   0.281875 0.659755 0.953507 -0.231924
O5    O     O_2   0.178746 0.475546 0.992573 -0.252603
O6    O     O_3   0.161116 0.657687 0.158384 -0.544750
O7    O     O_R   0.431060 0.510340 0.692470 -0.573088
O8    O     O_R   0.348880 0.522640 0.340350 -0.565688
O9    O     O_R   0.651120 0.477360 0.659650 -0.606934
O10   O     O_R   0.610030 0.300280 0.483580 -0.603428
O11   O     O_R   0.389970 0.699720 0.516420 -0.585507
O12   O     O_R   0.389970 0.333270 0.516400 -0.630337
O13   O     O_R   0.610030 0.666730 0.483600 -0.615202
O14   O     O_2   0.706744 0.594718 0.051508 -0.252597
S1    S     S_3+6 0.741375 0.501474 0.947138 0.075218
S2    S     S_3+6 0.254895 0.571475 0.053750 0.075665
Zn1   Zn    Zn3+2 0.646940 0.477980 0.478080 1.038392
Zn2   Zn    Zn3+2 0.353060 0.522020 0.521920 1.061253

loop_
_geom_bond_atom_site_label_1
_geom_bond_atom_site_label_2
_ccdc_geom_bond_type
N2    Zn1   S    
C24   O10   A    
C10   C13   A    
O6    S2    S    
O10   Zn1   S    
C13   C17   A    
C9    C11   A    
C1    O8    A    
C23   N2    D    
O1    Zn1   S    
O2    S1    D    
O8    Zn2   S    
C7    C9    A    
C20   C21   S    
C4    C15   A    
C12   O7    A    
C6    H11   S    
O12   Zn2   S    
C19   S1    S    
O5    S2    D    
H6    O6    S    
C14   C17   A    
O3    S1    S    
C1    C18   S    
O7    Zn2   S    
C3    C14   A    
Cl1   N2    S    
C23   H3    S    
C12   C19   S    
C8    C10   A    
C9    H12   S    
C19   C21   D    
O11   Zn2   S    
C1    O1    A    
C18   C20   D    
C2    O13   A    
C13   C15   A    
H5    O3    S    
C22   H4    S    
C11   C14   A    
C4    H9    S    
C17   C24   S    
O9    Zn1   S    
C7    H7    S    
C24   O12   A    
C15   C16   A    
C22   N1    D    
C5    H10   S    
O13   Zn1   S    
C12   O9    A    
C2    C16   S    
O14   S1    D    
Cl2   N1    S    
C4    C6    A    
C11   C16   A    
C5    C7    A    
C8    H1    S    
C22   C23   S    
C6    C8    A    
C20   H2    S    
C3    H8    S    
C18   S2    S    
O4    S2    D    
N1    Zn2   S    
C10   H13   S    
C3    C5    A    
C2    O11   A    
C21   H14   S    
