data_mof_unit_40384.cif
_audit_creation_date              2012-12-10T17:47:43-0500
_audit_creation_method            fapswitch 2.2
_symmetry_space_group_name_H-M    P1
_symmetry_Int_Tables_number       1
_space_group_crystal_system       triclinic
_cell_length_a                    10.676892
_cell_length_b                    10.664195
_cell_length_c                    9.91291
_cell_angle_alpha                 89.675312
_cell_angle_beta                  90.350097
_cell_angle_gamma                 92.213886
_cell_volume                      1127.80829167

loop_
_atom_site_label
_atom_site_type_symbol
_atom_type_description
_atom_site_fract_x
_atom_site_fract_y
_atom_site_fract_z
_atom_type_partial_charge
C1    C     C_R   0.505193 0.260818 0.500463 0.882688
C2    C     C_R   0.602386 0.069609 0.586333 0.090813
C3    C     C_R   0.515906 0.128926 0.501028 -0.095297
C4    C     C_R   0.257986 0.500328 0.499762 0.886073
C5    C     C_R   0.436421 0.061854 0.413516 -0.164090
C6    C     C_R   0.436920 0.933980 0.413130 -0.190367
C7    C     C_R   0.516264 0.872422 0.500947 -0.096698
C8    C     C_R   0.333618 0.336486 0.140415 -0.164377
C9    C     C_R   0.251668 0.255626 0.070375 -0.209293
C10   C     C_R   0.252357 0.254801 0.930757 -0.164099
C11   C     C_R   0.334780 0.335120 0.860390 -0.146652
C12   C     C_3   0.879210 0.503094 0.503419 0.034835
C13   C     C_R   0.418302 0.419025 0.927885 0.157458
C14   C     C_R   0.418033 0.419365 0.072425 0.173579
C15   C     C_R   0.578825 0.576929 0.071558 -0.102924
C16   C     C_R   0.505942 0.739604 0.500104 0.889964
C17   C     C_R   0.578759 0.576917 0.928440 -0.092562
C18   C     C_R   0.742361 0.502419 0.500829 0.852946
C19   C     C_3   0.076204 0.532563 0.644221 -0.395555
C20   C     C_3   0.933706 0.537611 0.647044 -0.133961
C21   C     C_3   0.077183 0.603851 0.402752 -0.465263
C22   C     C_3   0.064996 0.371250 0.453306 -0.023438
C23   C     C_3   0.933412 0.598490 0.395808 -0.028421
C24   C     C_3   0.121851 0.500769 0.500331 0.064439
C25   C     C_1   0.886812 0.455545 0.758703 0.198845
C26   C     C_3   0.921222 0.370724 0.463812 -0.449584
C27   C     C_R   0.691818 0.137521 0.666229 -0.176582
C28   C     C_R   0.775725 0.075421 0.748771 -0.089511
C29   C     C_R   0.773403 0.945224 0.752263 -0.119695
C30   C     C_R   0.688027 0.876721 0.672232 -0.154087
C31   C     C_R   0.601404 0.937991 0.587901 0.123356
H1    H     H_    0.117424 0.625315 0.676429 0.173594
H2    H     H_    0.372217 0.882609 0.346974 0.163071
H3    H     H_    0.643268 0.639762 0.125342 0.163272
H4    H     H_    0.110774 0.461934 0.717614 0.208366
H5    H     H_    0.328294 0.331036 0.247422 0.207137
H6    H     H_    0.187623 0.192905 0.124952 0.165287
H7    H     H_    0.188821 0.191247 0.876681 0.183886
H8    H     H_    0.330860 0.328865 0.753513 0.226717
H9    H     H_    0.643295 0.639592 0.874808 0.135284
H10   H     H_    0.907793 0.634865 0.671788 0.147021
H11   H     H_    0.113388 0.697312 0.438092 0.208242
H12   H     H_    0.879130 0.341726 0.365207 0.177160
H13   H     H_    0.090224 0.357397 0.345719 0.146314
H14   H     H_    0.887286 0.300557 0.539571 0.205720
H15   H     H_    0.114591 0.590601 0.299404 0.185379
H16   H     H_    0.905063 0.564868 0.293479 0.165684
H17   H     H_    0.371270 0.108622 0.347673 0.165751
H18   H     H_    0.700188 0.238588 0.664029 0.164988
H19   H     H_    0.843930 0.128431 0.808861 0.161103
H20   H     H_    0.839794 0.896983 0.814939 0.139208
H21   H     H_    0.695308 0.776115 0.673651 0.154444
I1    I     I_    0.864928 0.785390 0.404374 -0.438900
I2    I     I_    0.135761 0.210341 0.557511 -0.490725
N1    N     N_R   0.498810 0.498800 0.142780 -0.125481
N2    N     N_R   0.498760 0.498720 0.857170 -0.123562
N3    N     N_1   0.850613 0.392209 0.846440 -0.220463
O1    O     O_R   0.500000 0.316780 0.614690 -0.636312
O2    O     O_R   0.499990 0.316750 0.385360 -0.631855
O3    O     O_R   0.314800 0.499990 0.614670 -0.636083
O4    O     O_R   0.314790 0.499970 0.385330 -0.648698
O5    O     O_R   0.500010 0.683250 0.614640 -0.628291
O6    O     O_R   0.500000 0.683220 0.385310 -0.602817
O7    O     O_R   0.685210 0.500030 0.614670 -0.633535
O8    O     O_R   0.685200 0.500010 0.385330 -0.611032
Zn1   Zn    Zn3+2 0.500010 0.500020 0.653130 0.938513
Zn2   Zn    Zn3+2 0.499990 0.499980 0.346870 0.949072

loop_
_geom_bond_atom_site_label_1
_geom_bond_atom_site_label_2
_ccdc_geom_bond_type
C8    C9    A    
N1    Zn2   S    
C6    C7    A    
C16   O6    A    
C17   H9    S    
C9    C10   A    
O4    Zn2   S    
C15   H3    S    
C19   C20   S    
C12   C23   S    
C6    H2    S    
C30   C31   A    
C10   H7    S    
C13   N2    A    
O2    Zn2   S    
C4    O3    A    
C9    H6    S    
C14   N1    A    
O3    Zn1   S    
C22   I2    S    
C19   H4    S    
C13   C14   A    
C18   O8    A    
C11   H8    S    
C11   C13   A    
C17   N2    A    
C18   O7    A    
C29   C30   A    
C16   O5    A    
C12   C20   S    
C19   C24   S    
N2    Zn1   S    
C19   H1    S    
C4    O4    A    
C22   C24   S    
C7    C16   S    
C12   C26   S    
C15   N1    A    
C26   H12   S    
C23   I1    S    
C2    C3    A    
C1    O2    A    
C2    C27   A    
C8    H5    S    
C5    C6    A    
C4    C24   S    
C5    H17   S    
O6    Zn2   S    
C23   H16   S    
C10   C11   A    
O5    Zn1   S    
C22   C26   S    
C21   H11   S    
C25   N3    T    
C3    C5    A    
C7    C31   A    
C21   H15   S    
C29   H20   S    
C21   C24   S    
C12   C18   S    
C27   C28   A    
C15   C17   A    
C30   H21   S    
C28   C29   A    
C8    C14   A    
C26   H14   S    
O8    Zn2   S    
C1    O1    A    
C28   H19   S    
C21   C23   S    
O1    Zn1   S    
C22   H13   S    
C27   H18   S    
C20   H10   S    
C2    C31   A    
C1    C3    S    
C20   C25   S    
O7    Zn1   S    
