data_mof_unit_26063.cif
_audit_creation_date              2013-03-05T15:48:53-0500
_audit_creation_method            fapswitch 2.2
_symmetry_space_group_name_H-M    P1
_symmetry_Int_Tables_number       1
_space_group_crystal_system       triclinic
_cell_length_a                    17.564162
_cell_length_b                    24.345606
_cell_length_c                    15.1257
_cell_angle_alpha                 89.92791
_cell_angle_beta                  125.222862
_cell_angle_gamma                 90.398436
_cell_volume                      5283.56820328

loop_
_atom_site_label
_atom_site_type_symbol
_atom_site_description
_atom_site_fract_x
_atom_site_fract_y
_atom_site_fract_z
_atom_type_partial_charge
C1    C     C_R   0.897104 0.883556 0.091011 -0.026479
C2    C     C_R   0.900644 0.121666 0.091879 -0.015317
C3    C     C_R   0.396887 0.383007 0.090357 -0.051646
C4    C     C_R   0.401135 0.621787 0.092217 -0.009392
H1    H     H_    0.922701 0.879473 0.174625 0.176661
H2    H     H_    0.928584 0.126958 0.175743 0.202307
H3    H     H_    0.422824 0.377199 0.173360 0.184995
H4    H     H_    0.428930 0.625522 0.176325 0.200638
N1    N     N_R   0.950530 0.896220 0.057200 -0.049810
N2    N     N_R   0.950530 0.103780 0.057200 -0.060530
N3    N     N_R   0.450530 0.396220 0.057200 -0.050145
N4    N     N_R   0.450530 0.603780 0.057200 -0.064585
C5    C     C_R   0.808836 0.119628 0.910602 0.038956
C6    C     C_R   0.806935 0.883888 0.910629 0.024063
C7    C     C_R   0.309403 0.620519 0.910685 0.020148
C8    C     C_R   0.307179 0.383417 0.910236 0.016062
H5    H     H_    0.750912 0.123398 0.827053 0.128504
H6    H     H_    0.748825 0.881158 0.826829 0.142778
H7    H     H_    0.252712 0.625671 0.827106 0.169130
H8    H     H_    0.250151 0.379390 0.826608 0.131547
N5    N     N_R   0.893330 0.103780 0.942800 -0.067265
N6    N     N_R   0.893330 0.896220 0.942800 -0.064768
N7    N     N_R   0.393330 0.603780 0.942800 -0.071083
N8    N     N_R   0.393330 0.396220 0.942800 -0.064216
C9    C     C_R   0.756136 0.954496 0.691193 0.185882
C10   C     C_R   0.755953 0.045870 0.691864 0.117986
C11   C     C_R   0.253850 0.453454 0.693671 0.158906
C12   C     C_R   0.256981 0.544617 0.691428 0.183222
N9    N     N_R   0.818150 0.971400 0.792440 -0.086454
N10   N     N_R   0.818150 0.028600 0.792440 -0.079201
N11   N     N_R   0.318150 0.471400 0.792440 -0.095308
N12   N     N_R   0.318150 0.528600 0.792440 -0.092285
C13   C     C_R   0.072997 0.045461 0.309679 0.314331
C14   C     C_R   0.067845 0.955275 0.310437 0.224923
C15   C     C_R   0.573534 0.544321 0.310569 0.324396
C16   C     C_R   0.559447 0.454255 0.307165 0.255080
N13   N     N_R   0.025710 0.028600 0.207560 -0.109733
N14   N     N_R   0.025710 0.971400 0.207560 -0.103851
N15   N     N_R   0.525710 0.528600 0.207560 -0.112620
N16   N     N_R   0.525710 0.471400 0.207560 -0.103792
C17   C     C_R   0.806967 0.872707 0.001427 0.154686
C18   C     C_R   0.811454 0.133630 0.001846 0.136681
C19   C     C_R   0.306565 0.372420 0.000342 0.167406
C20   C     C_R   0.312335 0.634448 0.002390 0.138169
C21   C     C_R   0.713765 0.000315 0.624097 0.032664
C22   C     C_R   0.210266 0.498645 0.627510 -0.010991
C23   C     C_R   0.092450 0.001296 0.376283 -0.087271
C24   C     C_R   0.589484 0.499665 0.375943 -0.142348
C25   C     C_R   0.268855 0.954021 0.254106 0.322914
C26   C     C_R   0.270469 0.045182 0.255072 0.334893
C27   C     C_R   0.769687 0.454903 0.256516 0.308162
C28   C     C_R   0.769238 0.546178 0.257526 0.348134
N17   N     N_R   0.181850 0.971400 0.207560 -0.128160
N18   N     N_R   0.181850 0.028600 0.207560 -0.130123
N19   N     N_R   0.681850 0.471400 0.207560 -0.122411
N20   N     N_R   0.681850 0.528600 0.207560 -0.130864
C29   C     C_R   0.008077 0.046543 0.739876 0.083406
C30   C     C_R   0.009382 0.954107 0.739632 -0.043229
C31   C     C_R   0.510369 0.546922 0.742608 0.082120
C32   C     C_R   0.510193 0.454468 0.740359 -0.045076
H9    H     H_    0.015492 0.089545 0.730156 0.142082
H10   H     H_    0.017604 0.911729 0.726600 0.157857
H11   H     H_    0.518743 0.589889 0.733856 0.141669
H12   H     H_    0.517547 0.412123 0.725949 0.155249
N21   N     N_R   0.974290 0.028600 0.792440 -0.079672
N22   N     N_R   0.974290 0.971400 0.792440 -0.067618
N23   N     N_R   0.474290 0.528600 0.792440 -0.079000
N24   N     N_R   0.474290 0.471400 0.792440 -0.065778
C33   C     C_R   0.053072 0.848421 0.904800 -0.039510
C34   C     C_R   0.053038 0.152389 0.906470 -0.021260
C35   C     C_R   0.553760 0.348806 0.904519 -0.039484
C36   C     C_R   0.553876 0.652195 0.906533 -0.021570
H13   H     H_    0.011451 0.838967 0.819976 0.177324
H14   H     H_    0.004577 0.163772 0.823309 0.164212
H15   H     H_    0.510269 0.339350 0.819843 0.174012
H16   H     H_    0.505473 0.663612 0.823435 0.163714
N25   N     N_R   0.049470 0.896220 0.942800 -0.080453
N26   N     N_R   0.049470 0.103780 0.942800 -0.082054
N27   N     N_R   0.549470 0.396220 0.942800 -0.079970
N28   N     N_R   0.549470 0.603780 0.942800 -0.082018
C37   C     C_R   0.140412 0.155216 0.085324 0.032004
C38   C     C_R   0.136824 0.844752 0.083424 0.035130
C39   C     C_R   0.640216 0.655184 0.085082 0.019621
C40   C     C_R   0.639459 0.345252 0.083592 0.016072
H17   H     H_    0.175519 0.171592 0.166049 0.189949
H18   H     H_    0.164707 0.827743 0.162135 0.186282
H19   H     H_    0.671357 0.672370 0.164284 0.189970
H20   H     H_    0.669013 0.328259 0.162461 0.191121
N29   N     N_R   0.106670 0.103780 0.057200 -0.066332
N30   N     N_R   0.106670 0.896220 0.057200 -0.069012
N31   N     N_R   0.606670 0.603780 0.057200 -0.065308
N32   N     N_R   0.606670 0.396220 0.057200 -0.064680
Ni1   Ni    Ni4+2 0.065600 0.934400 0.131190 0.326831
Ni2   Ni    Ni4+2 0.065600 0.065600 0.131190 0.327382
Ni3   Ni    Ni4+2 0.565600 0.434400 0.131190 0.325053
Ni4   Ni    Ni4+2 0.565600 0.565600 0.131190 0.324701
Ni5   Ni    Ni4+2 0.934400 0.065600 0.868810 0.283530
Ni6   Ni    Ni4+2 0.934400 0.934400 0.868810 0.288186
Ni7   Ni    Ni4+2 0.434400 0.565600 0.868810 0.282110
Ni8   Ni    Ni4+2 0.434400 0.434400 0.868810 0.286583
C41   C     C_R   0.328685 0.999393 0.285620 -0.201228
C42   C     C_R   0.827968 0.500975 0.291952 -0.200579
C43   C     C_R   0.027665 0.000601 0.701337 0.149513
C44   C     C_R   0.529931 0.501357 0.704070 0.146744
C45   C     C_R   0.108827 0.814836 0.990868 0.096117
C46   C     C_R   0.111100 0.185862 0.993472 0.078494
C47   C     C_R   0.610632 0.315398 0.990499 0.092385
C48   C     C_R   0.612265 0.685508 0.993726 0.071404
C49   C     C_3   0.100171 0.061572 0.522462 0.057104
C50   C     C_3   0.973822 0.982819 0.415160 -0.005633
C51   C     C_3   0.605757 0.561241 0.527329 0.055038
C52   C     C_3   0.473395 0.485584 0.417913 -0.003704
H21   H     H_    0.177933 0.062957 0.572739 0.170331
H22   H     H_    0.967477 0.942228 0.378426 0.175342
H23   H     H_    0.683514 0.560302 0.578282 0.168800
H24   H     H_    0.463873 0.444665 0.381603 0.197924
C53   C     C_3   0.070225 0.063761 0.601019 0.283105
C54   C     C_3   0.957078 0.971496 0.505682 0.383737
C55   C     C_3   0.575855 0.564749 0.606122 0.284067
C56   C     C_3   0.455488 0.476146 0.507467 0.384879
H25   H     H_    0.217854 0.973305 0.588938 0.237552
H26   H     H_    0.132914 0.920651 0.527134 0.274521
H27   H     H_    0.717317 0.471331 0.589700 0.218577
H28   H     H_    0.632777 0.419613 0.529334 0.278933
H29   H     H_    0.197134 0.981645 0.722590 0.259599
H30   H     H_    0.126375 0.923899 0.674288 0.241046
H31   H     H_    0.697329 0.479957 0.723603 0.255668
H32   H     H_    0.623897 0.423655 0.674547 0.239785
C57   C     C_3   0.144170 0.963316 0.556754 -0.345306
C58   C     C_3   0.643386 0.462239 0.557638 -0.384655
C59   C     C_3   0.076302 0.003747 0.463891 -0.133814
C60   C     C_3   0.577001 0.503651 0.466111 -0.097992
C61   C     C_3   0.043705 0.001473 0.614627 -0.190777
C62   C     C_3   0.545291 0.503060 0.617250 -0.197251
C63   C     C_3   0.131508 0.965947 0.649861 -0.406264
C64   C     C_3   0.630752 0.465430 0.650598 -0.383599
C65   C     C_3   0.650789 0.178093 0.887819 0.029625
C66   C     C_3   0.651244 0.821496 0.885938 0.054171
C67   C     C_3   0.148915 0.675113 0.894562 0.045583
C68   C     C_3   0.149973 0.321767 0.883761 0.064865
H33   H     H_    0.657212 0.184534 0.820403 0.176665
H34   H     H_    0.663943 0.815949 0.823139 0.176648
H35   H     H_    0.149890 0.679529 0.823007 0.206365
H36   H     H_    0.163175 0.315510 0.821518 0.167761
C69   C     C_3   0.090990 0.723581 0.893883 0.102650
C70   C     C_3   0.096712 0.269445 0.880010 0.069610
C71   C     C_3   0.593082 0.226516 0.886568 0.117825
C72   C     C_3   0.598345 0.769560 0.882804 0.082911
H37   H     H_    0.539577 0.209297 0.896787 0.187854
H38   H     H_    0.534139 0.782216 0.875605 0.182490
H39   H     H_    0.042228 0.707122 0.912313 0.192826
H40   H     H_    0.031466 0.280751 0.870978 0.188486
C73   C     C_3   0.297854 0.734494 0.995208 0.059765
C74   C     C_3   0.306320 0.274051 0.024577 0.036740
C75   C     C_3   0.802424 0.233762 0.003375 0.061788
C76   C     C_3   0.807648 0.773942 0.024701 0.036307
C77   C     C_3   0.738232 0.176659 0.095734 0.470339
C78   C     C_3   0.725887 0.832222 0.090540 0.489987
C79   C     C_3   0.245863 0.679262 0.102450 0.476385
C80   C     C_3   0.223291 0.333196 0.087245 0.485123
C81   C     C_3   0.751954 0.178386 0.998969 -0.301450
C82   C     C_3   0.747983 0.827399 0.001165 -0.320645
C83   C     C_3   0.252766 0.678868 0.000503 -0.312554
C84   C     C_3   0.246501 0.327594 0.999157 -0.314864
C85   C     C_3   0.156172 0.764978 0.988778 -0.101248
C86   C     C_3   0.155383 0.238168 0.991461 -0.112825
C87   C     C_3   0.656719 0.265170 0.987542 -0.104093
C88   C     C_3   0.657318 0.737701 0.993142 -0.108837
C89   C     C_3   0.243990 0.784195 0.993996 0.065934
C90   C     C_3   0.256411 0.223796 0.029252 0.112369
C91   C     C_3   0.749363 0.283707 0.003212 0.075498
C92   C     C_3   0.758111 0.723439 0.029696 0.115167
C93   C     C_3   0.192346 0.732040 0.094146 -0.602414
C94   C     C_3   0.164527 0.280459 0.075511 -0.584290
C95   C     C_3   0.684139 0.229315 0.086980 -0.600237
C96   C     C_3   0.667791 0.779134 0.079030 -0.600344
H41   H     H_    0.621673 0.220664 0.086305 0.262348
H42   H     H_    0.597187 0.788337 0.057198 0.256570
H43   H     H_    0.134312 0.723972 0.102165 0.258539
H44   H     H_    0.093180 0.291228 0.049921 0.259662
H45   H     H_    0.241021 0.758482 0.165205 0.239687
H46   H     H_    0.196070 0.261090 0.155735 0.241815
H47   H     H_    0.729803 0.253573 0.162249 0.234468
H48   H     H_    0.701716 0.759235 0.159121 0.239841
H49   H     H_    0.368951 0.737943 0.070111 0.173019
H50   H     H_    0.371108 0.278652 0.107438 0.157401
H51   H     H_    0.871889 0.235046 0.081058 0.175329
H52   H     H_    0.873198 0.778331 0.106816 0.162201
H53   H     H_    0.291087 0.804466 0.074195 0.173363
H54   H     H_    0.294117 0.213294 0.116394 0.169992
H55   H     H_    0.794094 0.301428 0.086292 0.172768
H56   H     H_    0.796487 0.712464 0.116725 0.171024
C97   C     C_3   0.484240 0.045072 0.351238 -0.395102
C98   C     C_3   0.448051 0.011144 0.480374 -0.423435
C99   C     C_3   0.986829 0.492511 0.331427 -0.413352
C100  C     C_3   0.962011 0.556628 0.439900 -0.361668
H57   H     H_    0.466715 0.041520 0.268088 0.243199
H58   H     H_    0.413313 0.978305 0.496746 0.242711
H59   H     H_    0.959309 0.456938 0.275158 0.261131
H60   H     H_    0.921076 0.565433 0.473351 0.254930
H61   H     H_    0.462728 0.085991 0.359527 0.226972
H62   H     H_    0.414662 0.050290 0.477878 0.222158
H63   H     H_    0.978387 0.528658 0.281394 0.199140
H64   H     H_    0.953006 0.590537 0.386663 0.229795
C101  C     C_3   0.590574 0.043945 0.439475 0.156830
C102  C     C_3   0.552834 0.014983 0.570810 0.155379
C103  C     C_3   0.091509 0.485500 0.424502 0.177768
C104  C     C_3   0.065640 0.557225 0.527198 0.137966
H65   H     H_    0.608643 0.085037 0.477498 0.117418
H66   H     H_    0.568142 0.058658 0.598485 0.112340
H67   H     H_    0.132177 0.515791 0.411749 0.150558
H68   H     H_    0.097177 0.585964 0.499422 0.127426
H69   H     H_    0.469620 0.934445 0.301456 0.238044
H70   H     H_    0.449647 0.910759 0.400625 0.241754
H71   H     H_    0.941650 0.414660 0.429656 0.263450
H72   H     H_    0.908910 0.460713 0.494762 0.200627
H73   H     H_    0.624197 0.931576 0.440980 0.250364
H74   H     H_    0.593228 0.911501 0.528888 0.223341
H75   H     H_    0.083599 0.414698 0.570389 0.215048
H76   H     H_    0.063085 0.464916 0.635550 0.252655
C105  C     C_3   0.479002 0.944028 0.379072 -0.253458
C106  C     C_3   0.953209 0.455947 0.464529 -0.277724
C107  C     C_3   0.432739 0.999792 0.370870 0.156848
C108  C     C_3   0.930332 0.501187 0.379212 0.161394
C109  C     C_3   0.613320 0.000384 0.527809 -0.059185
C110  C     C_3   0.108896 0.499027 0.537132 -0.060404
C111  C     C_3   0.582416 0.943814 0.471318 -0.324867
C112  C     C_3   0.055443 0.456648 0.559011 -0.324798
N33   N     N_R   0.073342 0.112071 0.457568 0.273996
O1    O     O_R   0.130775 0.153776 0.494707 -0.172945
O2    O     O_R   0.989752 0.119329 0.372024 -0.292479
N34   N     N_R   0.902729 0.016309 0.322949 0.276490
O3    O     O_R   0.869487 0.999862 0.225137 -0.316953
O4    O     O_R   0.861058 0.056411 0.334818 -0.183706
N35   N     N_R   0.584794 0.612549 0.465772 0.276873
O5    O     O_R   0.647051 0.651783 0.505737 -0.175725
O6    O     O_R   0.502605 0.623117 0.380248 -0.283467
N36   N     N_R   0.404785 0.519763 0.325468 0.269997
O7    O     O_R   0.365415 0.500756 0.227788 -0.305738
O8    O     O_R   0.370939 0.563777 0.338313 -0.206533
N37   N     N_R   0.993539 0.104339 0.560180 0.249875
O9    O     O_R   0.909557 0.090602 0.526743 -0.280382
O10   O     O_R   0.012156 0.156716 0.568498 -0.178898
N38   N     N_R   0.862567 0.989299 0.469493 0.300443
O11   O     O_R   0.792638 0.972169 0.374826 -0.183809
O12   O     O_R   0.844194 0.998170 0.540126 -0.356260
N39   N     N_R   0.502442 0.607495 0.566658 0.252001
O13   O     O_R   0.524868 0.659244 0.574770 -0.175783
O14   O     O_R   0.417531 0.596550 0.533110 -0.299543
N40   N     N_R   0.363409 0.498336 0.472744 0.294878
O15   O     O_R   0.291647 0.487313 0.374817 -0.202283
O16   O     O_R   0.344992 0.506068 0.543648 -0.372818
N41   N     N_R   0.152545 0.085799 0.705659 0.228449
O17   O     O_R   0.189078 0.060479 0.797332 -0.397672
O18   O     O_R   0.193205 0.130926 0.706489 -0.207713
N42   N     N_R   0.957301 0.910690 0.522732 0.231105
O19   O     O_R   0.006269 0.876677 0.508565 -0.327143
O20   O     O_R   0.895238 0.888891 0.533660 -0.269285
N43   N     N_R   0.659341 0.584814 0.711720 0.229250
O21   O     O_R   0.693616 0.558682 0.802153 -0.397863
O22   O     O_R   0.702744 0.629168 0.714887 -0.207234
N44   N     N_R   0.448917 0.415694 0.521491 0.231411
O23   O     O_R   0.500024 0.379845 0.514872 -0.304363
O24   O     O_R   0.382354 0.396356 0.526837 -0.245191
N45   N     N_R   0.597887 0.126126 0.860797 0.263857
O25   O     O_R   0.640430 0.079364 0.895263 -0.253814
O26   O     O_R   0.510167 0.125213 0.780071 -0.265002
N46   N     N_R   0.591180 0.870264 0.852279 0.272454
O27   O     O_R   0.627732 0.919175 0.873898 -0.239345
O28   O     O_R   0.502261 0.865685 0.776587 -0.244740
N47   N     N_R   0.101817 0.621787 0.879284 0.286493
O29   O     O_R   0.145570 0.575997 0.894721 -0.261209
O30   O     O_R   0.011271 0.619473 0.823818 -0.229126
N48   N     N_R   0.092361 0.371925 0.850382 0.267192
O31   O     O_R   0.117172 0.415795 0.823599 -0.352080
O32   O     O_R   0.013143 0.372781 0.839298 -0.289568
N49   N     N_R   0.032858 0.747655 0.785319 0.245856
O33   O     O_R   0.069475 0.769031 0.739004 -0.272538
O34   O     O_R   0.942560 0.743137 0.729954 -0.244815
N50   N     N_R   0.066561 0.237209 0.782943 0.232392
O35   O     O_R   0.125206 0.209086 0.775896 -0.259232
O36   O     O_R   0.981540 0.242123 0.697173 -0.277185
N51   N     N_R   0.541692 0.253227 0.780199 0.238264
O37   O     O_R   0.584699 0.277056 0.743619 -0.292608
O38   O     O_R   0.451342 0.248337 0.716369 -0.254572
N52   N     N_R   0.566593 0.737761 0.784783 0.236744
O39   O     O_R   0.624128 0.709075 0.776562 -0.265124
O40   O     O_R   0.481192 0.743012 0.699950 -0.257516
N53   N     N_R   0.312633 0.736806 0.908377 0.260737
O41   O     O_R   0.243900 0.738791 0.806448 -0.278428
O42   O     O_R   0.397301 0.739800 0.934340 -0.382847
N54   N     N_R   0.339783 0.265819 0.955524 0.267303
O43   O     O_R   0.283285 0.258740 0.851515 -0.281356
O44   O     O_R   0.429059 0.264412 0.000150 -0.377109
N55   N     N_R   0.823489 0.237866 0.921922 0.262145
O45   O     O_R   0.758882 0.243606 0.819183 -0.296728
O46   O     O_R   0.910075 0.238771 0.954137 -0.386973
N56   N     N_R   0.839493 0.766209 0.953908 0.266366
O47   O     O_R   0.781919 0.758730 0.850127 -0.275949
O48   O     O_R   0.928499 0.765134 0.996890 -0.376340
I1    I     I_    0.234220 0.853442 0.896211 -0.147416
I2    I     I_    0.285041 0.147810 0.979869 0.037119
I3    I     I_    0.748727 0.355694 0.916656 -0.130235
I4    I     I_    0.786284 0.647847 0.979376 0.042823
N57   N     N_R   0.824621 0.177258 0.207170 0.236089
O49   O     O_R   0.891580 0.212045 0.235500 -0.349502
O50   O     O_R   0.816978 0.161171 0.283870 -0.182812
N58   N     N_R   0.811547 0.834220 0.203355 0.218834
O51   O     O_R   0.861933 0.790711 0.250143 -0.357013
O52   O     O_R   0.827809 0.876324 0.265031 -0.280108
N59   N     N_R   0.335185 0.681653 0.211092 0.236988
O53   O     O_R   0.401948 0.714768 0.231532 -0.362405
O54   O     O_R   0.332165 0.669262 0.292783 -0.191803
N60   N     N_R   0.308205 0.336148 0.199963 0.226982
O55   O     O_R   0.356905 0.292583 0.250255 -0.341793
O56   O     O_R   0.326386 0.380438 0.257266 -0.266975
N61   N     N_R   0.685961 0.126227 0.085275 0.277644
O57   O     O_R   0.727898 0.079082 0.110629 -0.203195
O58   O     O_R   0.600281 0.127340 0.056272 -0.288372
N62   N     N_R   0.672493 0.883067 0.072282 0.279613
O59   O     O_R   0.589622 0.882053 0.051874 -0.289886
O60   O     O_R   0.711579 0.930792 0.084962 -0.205826
N63   N     N_R   0.196331 0.628943 0.099064 0.270330
O61   O     O_R   0.235760 0.581500 0.115222 -0.223335
O62   O     O_R   0.115481 0.630307 0.083973 -0.298207
N64   N     N_R   0.168724 0.383528 0.067631 0.281368
O63   O     O_R   0.111591 0.385379 0.096192 -0.256378
O64   O     O_R   0.197029 0.430152 0.053493 -0.229736
I5    I     I_    0.777119 0.876205 0.645894 -0.132655
I6    I     I_    0.773907 0.125529 0.648298 -0.157817
I7    I     I_    0.266835 0.373461 0.647659 -0.059351
I8    I     I_    0.282870 0.618531 0.637220 -0.117428
N65   N     N_R   0.641821 0.036017 0.390779 0.290986
O65   O     O_R   0.616243 0.998038 0.318008 -0.285011
O66   O     O_R   0.698134 0.074531 0.401031 -0.206470
N66   N     N_R   0.575677 0.981240 0.663185 0.261402
O67   O     O_R   0.550763 0.929808 0.651038 -0.332339
O68   O     O_R   0.622310 0.003016 0.759189 -0.286251
N67   N     N_R   0.120670 0.429963 0.418511 0.271455
O69   O     O_R   0.070763 0.387066 0.406517 -0.304231
O70   O     O_R   0.184938 0.424075 0.402026 -0.204872
N68   N     N_R   0.081492 0.580064 0.626626 0.244582
O71   O     O_R   0.050991 0.554455 0.676001 -0.306971
O72   O     O_R   0.098992 0.632393 0.644901 -0.331086
N69   N     N_R   0.139165 0.089459 0.344015 0.247560
O73   O     O_R   0.117101 0.133420 0.285307 -0.351545
O74   O     O_R   0.222543 0.085239 0.433087 -0.328393
N70   N     N_R   0.120478 0.905365 0.348803 0.248235
O75   O     O_R   0.205870 0.906319 0.434942 -0.322671
O76   O     O_R   0.091527 0.862063 0.287103 -0.360385
N71   N     N_R   0.642012 0.586988 0.346362 0.247324
O77   O     O_R   0.620908 0.632068 0.290850 -0.343751
O78   O     O_R   0.726572 0.580154 0.432101 -0.341829
N72   N     N_R   0.589610 0.398799 0.339873 0.226533
O79   O     O_R   0.631762 0.374557 0.303293 -0.354711
O80   O     O_R   0.548288 0.367889 0.370554 -0.314472
N73   N     N_R   0.293385 0.897474 0.268854 0.203057
O81   O     O_R   0.326237 0.875840 0.218770 -0.446151
O82   O     O_R   0.290616 0.868543 0.339263 -0.295012
N74   N     N_R   0.299349 0.101213 0.270028 0.208604
O83   O     O_R   0.310556 0.129794 0.349295 -0.292343
O84   O     O_R   0.326421 0.121686 0.212967 -0.443482
N75   N     N_R   0.797220 0.398956 0.266735 0.208511
O85   O     O_R   0.841965 0.383195 0.226529 -0.395606
O86   O     O_R   0.794333 0.366769 0.333462 -0.331440
N76   N     N_R   0.794769 0.602210 0.261943 0.201384
O87   O     O_R   0.799432 0.635301 0.332426 -0.299978
O88   O     O_R   0.831769 0.617132 0.211910 -0.431552

loop_
_geom_bond_atom_site_label_1
_geom_bond_atom_site_label_2
_geom_bond_distance
_ccdc_geom_bond_type
N44   O24   1.302432 A    
N73   O81   1.301413 A    
N35   O6    1.293739 A    
C39   H19   1.073140 S    
C53   C61   1.630626 S    
C50   C54   1.581020 S    
C18   C81   1.498188 S    
C42   C108  1.495736 S    
C95   H41   1.109994 S    
C78   N58   1.488469 S    
N65   O65   1.301807 A    
N4    N7    1.413589 A    
C31   C44   1.387927 A    
C46   C86   1.496952 S    
C56   N40   1.488268 S    
C7    C20   1.400093 A    
C99   H63   1.113476 S    
N2    Ni2   1.901503 S    
N40   O16   1.300699 A    
N47   O29   1.300819 A    
C12   I8    2.128906 S    
C97   H61   1.100497 S    
N38   O11   1.303270 A    
C74   C90   1.525367 S    
N48   O31   1.300312 A    
C38   C45   1.391290 A    
N29   Ni2   1.885777 S    
N31   Ni4   1.885777 S    
C92   I4    2.159088 S    
C54   N38   1.484720 S    
C34   H14   1.072799 S    
N64   O63   1.302444 A    
C15   N71   1.432357 S    
C100  H64   1.099180 S    
H29   C63   1.103237 S    
C72   N52   1.466851 S    
C17   C82   1.506459 S    
C79   N63   1.481286 S    
C5    C18   1.396720 A    
N2    N5    1.413589 A    
C9    N9    1.331257 A    
C47   C87   1.486037 S    
C86   C94   1.570854 S    
C11   N11   1.321663 A    
N63   O61   1.299449 A    
C12   N12   1.323463 A    
H31   C64   1.103449 S    
C29   N21   1.309549 A    
C52   C56   1.573587 S    
C33   C45   1.363897 A    
N68   O71   1.299676 A    
C87   C91   1.566145 S    
N60   O55   1.302014 A    
N17   Ni1   1.889762 S    
C23   C59   1.507955 S    
C7    H7    1.074562 S    
N13   N14   1.392569 A    
N5    Ni5   1.892101 S    
N10   Ni5   1.889763 S    
C8    H8    1.072564 S    
N34   O4    1.297313 A    
H28   C58   1.096066 S    
C50   C59   1.581313 S    
C66   C82   1.589527 S    
C21   C109  1.506586 S    
N11   Ni8   1.901875 S    
C100  C108  1.541934 S    
C71   C87   1.577127 S    
C11   C22   1.386784 A    
C1    C17   1.390254 A    
N46   O28   1.302964 A    
C52   N36   1.472120 S    
C25   N73   1.423802 S    
C13   C23   1.375891 A    
C77   N61   1.480781 S    
N56   O47   1.298832 A    
N16   Ni3   1.892527 S    
N30   Ni1   1.892101 S    
C95   H47   1.109067 S    
C96   H48   1.107780 S    
N8    Ni8   1.885780 S    
C31   H11   1.073966 S    
C69   N49   1.467778 S    
C40   H20   1.072930 S    
N66   O67   1.301258 A    
N43   O22   1.302302 A    
C62   C64   1.578433 S    
C29   H9    1.074421 S    
C67   H35   1.097419 S    
C39   N31   1.339996 A    
C105  C111  1.524064 S    
C94   H44   1.110740 S    
C3    H3    1.069799 S    
C32   H12   1.077895 S    
N54   O44   1.302047 A    
C75   H51   1.102773 S    
C65   C81   1.593033 S    
C25   N17   1.333103 A    
N70   O75   1.301190 A    
C27   N19   1.334129 A    
C3    N3    1.335362 A    
C26   C41   1.404047 A    
C61   C63   1.574708 S    
C93   H43   1.109998 S    
N39   O14   1.294056 A    
N52   O40   1.301876 A    
N6    Ni6   1.885780 S    
C33   N25   1.316504 A    
N71   O77   1.300491 A    
C89   H53   1.112520 S    
C94   H46   1.108365 S    
C35   N27   1.314019 A    
N55   O46   1.302134 A    
N17   N18   1.392569 A    
C92   H56   1.112063 S    
C27   C42   1.394952 A    
C74   H50   1.109825 S    
C12   C22   1.391208 A    
C44   C62   1.485734 S    
C73   C83   1.589201 S    
C74   C84   1.582022 S    
C72   H38   1.114307 S    
N26   N29   1.413589 A    
N41   O17   1.300561 A    
C40   C47   1.393702 A    
C51   C55   1.557693 S    
N37   O9    1.294788 A    
C89   I1    2.182704 S    
C10   C21   1.394659 A    
C31   N23   1.309521 A    
C57   C63   1.548755 S    
C53   N41   1.495026 S    
C36   C48   1.371065 A    
C66   C72   1.548301 S    
N57   O50   1.301965 A    
N42   O20   1.302624 A    
C20   C83   1.498742 S    
C78   N62   1.484791 S    
H75   C112  1.107090 S    
C50   H22   1.107298 S    
C19   C84   1.505475 S    
C96   H42   1.108340 S    
C48   C88   1.494969 S    
N49   O33   1.299763 A    
C103  H67   1.114684 S    
H69   C105  1.112137 S    
C70   N50   1.467046 S    
N74   O83   1.299395 A    
C10   I6    2.126663 S    
N58   O52   1.301371 A    
C99   H59   1.108849 S    
C55   C62   1.632309 S    
C97   C101  1.547737 S    
N25   Ni6   1.901504 S    
N50   O35   1.295302 A    
N15   N16   1.392569 A    
C76   C92   1.528123 S    
N63   O62   1.302500 A    
N62   O60   1.302176 A    
C100  C104  1.511306 S    
C106  C108  1.563424 S    
N24   Ni8   1.886494 S    
N9    N10   1.392569 A    
C102  H66   1.115995 S    
C103  C110  1.582351 S    
N11   N12   1.392569 A    
C97   C107  1.554608 S    
N75   O85   1.300310 A    
N26   Ni5   1.889098 S    
N53   O41   1.300150 A    
C101  C109  1.567199 S    
N45   O26   1.301835 A    
C6    C17   1.399450 A    
C86   C90   1.560772 S    
N59   O54   1.301950 A    
H27   C58   1.113657 S    
C4    N4    1.327163 A    
C9    C21   1.401998 A    
C52   H24   1.102333 S    
C87   C95   1.556625 S    
C88   C96   1.569745 S    
C80   N64   1.481726 S    
C24   C60   1.504377 S    
C10   N10   1.331257 A    
N44   O23   1.300898 A    
C80   N60   1.483922 S    
C68   C84   1.588992 S    
C110  C112  1.549053 S    
C5    H5    1.076308 S    
C6    N6    1.331116 A    
C67   C83   1.590513 S    
C36   N28   1.319955 A    
C98   H58   1.113453 S    
C2    C18   1.392103 A    
C11   I7    2.126453 S    
N14   Ni1   1.892527 S    
C109  C111  1.542411 S    
N38   O12   1.300563 A    
C16   C24   1.394452 A    
N48   O32   1.302236 A    
N72   O79   1.296932 A    
N51   O37   1.299418 A    
N64   O64   1.302125 A    
C40   N32   1.331998 A    
C32   C44   1.391782 A    
C37   H17   1.076744 S    
N43   O21   1.300570 A    
C98   C107  1.542213 S    
C30   H10   1.076836 S    
C55   N43   1.493431 S    
N19   N20   1.392569 A    
C35   C47   1.364094 A    
N76   O88   1.300142 A    
C28   N76   1.422535 S    
C49   C53   1.553345 S    
C69   C85   1.574388 S    
C75   C81   1.588494 S    
C103  N67   1.470445 S    
C28   C42   1.393228 A    
C26   N18   1.343074 A    
N9    Ni6   1.901875 S    
C1    H1    1.075144 S    
C80   C84   1.608670 S    
C71   H37   1.115657 S    
C101  N65   1.468842 S    
H32   C64   1.108047 S    
C25   C41   1.399660 A    
C99   C108  1.543487 S    
N68   O72   1.300507 A    
N51   O38   1.301902 A    
N60   O56   1.301615 A    
C98   H62   1.111634 S    
C39   C48   1.383992 A    
H76   C112  1.104419 S    
N61   O58   1.302649 A    
N76   O87   1.301082 A    
C49   N33   1.472579 S    
C73   N53   1.479313 S    
C49   C59   1.583987 S    
C51   N35   1.473369 S    
N35   O5    1.303052 A    
C33   H13   1.072396 S    
N69   O74   1.302372 A    
H26   C57   1.102205 S    
N23   Ni7   1.892526 S    
C37   N29   1.341826 A    
N65   O66   1.300807 A    
C93   H45   1.111163 S    
N73   O82   1.300034 A    
C85   C89   1.566502 S    
N56   O48   1.302091 A    
C15   C24   1.385711 A    
C14   N70   1.436266 S    
C76   H52   1.108495 S    
C29   C43   1.395545 A    
N25   N30   1.413589 A    
N23   N24   1.392569 A    
N27   Ni8   1.901504 S    
C1    N1    1.336543 A    
N66   O68   1.297893 A    
C90   I2    2.163961 S    
C68   C70   1.556708 S    
C100  H60   1.113972 S    
C4    C20   1.390989 A    
N40   O15   1.302858 A    
C38   H18   1.075972 S    
C13   N13   1.327096 A    
C75   N55   1.479788 S    
C58   C60   1.563124 S    
H70   C105  1.102510 S    
C34   C46   1.370758 A    
C71   N51   1.468523 S    
N67   O69   1.302410 A    
C106  C112  1.518717 S    
C102  C109  1.575102 S    
N70   O76   1.299419 A    
C91   H55   1.113707 S    
C52   C60   1.579822 S    
C8    C19   1.394755 A    
C54   N42   1.501991 S    
H73   C111  1.108920 S    
C27   N75   1.426649 S    
H30   C63   1.108485 S    
C56   N44   1.499810 S    
C66   H34   1.102456 S    
C72   C88   1.572798 S    
H71   C106  1.097629 S    
C77   C81   1.615152 S    
H74   C111  1.105815 S    
N55   O45   1.299866 A    
N20   Ni4   1.901874 S    
C65   H33   1.099629 S    
N36   O7    1.301523 A    
C80   C94   1.586224 S    
C65   C71   1.553045 S    
C68   H36   1.102730 S    
H25   C57   1.113662 S    
N71   O78   1.302489 A    
C38   N30   1.331754 A    
C77   N57   1.480944 S    
N28   N31   1.413589 A    
N33   O2    1.293331 A    
N22   Ni6   1.886494 S    
C66   N46   1.475869 S    
C74   N54   1.478793 S    
N34   O3    1.300731 A    
C45   C85   1.486721 S    
C88   C92   1.561837 S    
C99   C103  1.552273 S    
N46   O27   1.298161 A    
C32   N24   1.328762 A    
N57   O49   1.299907 A    
C73   C89   1.534704 S    
N4    Ni4   1.901503 S    
C14   C23   1.390543 A    
N7    Ni7   1.892101 S    
N59   O53   1.299966 A    
C104  N68   1.471543 S    
C13   N69   1.433747 S    
C34   N26   1.320386 A    
C6    H6    1.076913 S    
C15   N15   1.329301 A    
C4    H4    1.071600 S    
N74   O84   1.299414 A    
C3    C19   1.393053 A    
N33   O1    1.302903 A    
C76   N56   1.479095 S    
N54   O43   1.298808 A    
N50   O36   1.301829 A    
N52   O39   1.295906 A    
N1    N6    1.413589 A    
C85   C93   1.556458 S    
N36   O8    1.296909 A    
N3    N8    1.413589 A    
C68   N48   1.482011 S    
C55   N39   1.493726 S    
C79   N59   1.479937 S    
C65   N45   1.475786 S    
C30   N22   1.329483 A    
N45   O25   1.298905 A    
C56   C62   1.625350 S    
C104  H68   1.111394 S    
C104  C110  1.577992 S    
C41   C107  1.511406 S    
C7    N7    1.325477 A    
C70   C86   1.577145 S    
C76   C82   1.583100 S    
C8    N8    1.327986 A    
N75   O86   1.300691 A    
C2    H2    1.071439 S    
C91   I3    2.182511 S    
C9    I5    2.131347 S    
C98   C102  1.536559 S    
C5    N5    1.327514 A    
C16   N16   1.329383 A    
N19   Ni3   1.889762 S    
N41   O18   1.302293 A    
C16   N72   1.433225 S    
C67   N47   1.479357 S    
N32   Ni3   1.892101 S    
N37   O10   1.302265 A    
C26   N74   1.424097 S    
C101  H65   1.103969 S    
N42   O19   1.301663 A    
C22   C110  1.493827 S    
C36   H16   1.072216 S    
N27   N32   1.413589 A    
C69   H39   1.114525 S    
C54   C61   1.630496 S    
C50   N34   1.473656 S    
C77   C95   1.560439 S    
C70   H40   1.109687 S    
C78   C96   1.587209 S    
N67   O70   1.297667 A    
N72   O80   1.299397 A    
N49   O34   1.301749 A    
C79   C83   1.615037 S    
N28   Ni7   1.889098 S    
C2    N2    1.329869 A    
N12   Ni7   1.889763 S    
N1    Ni1   1.889099 S    
N58   O51   1.301833 A    
N3    Ni3   1.889099 S    
N47   O30   1.302321 A    
C37   C46   1.389107 A    
C67   C69   1.559551 S    
C14   N14   1.340642 A    
C58   C64   1.546870 S    
N39   O13   1.301996 A    
C49   H21   1.116350 S    
C90   H54   1.111703 S    
C102  N66   1.463952 S    
N62   O59   1.302231 A    
C43   C61   1.491997 S    
N21   Ni5   1.892526 S    
C105  C107  1.554797 S    
C35   H15   1.070821 S    
C73   H49   1.103099 S    
C97   H57   1.112366 S    
N53   O42   1.302295 A    
N13   Ni2   1.886496 S    
N61   O57   1.300690 A    
H72   C106  1.113473 S    
N15   Ni4   1.886496 S    
N18   Ni2   1.901874 S    
C78   C82   1.611890 S    
C75   C91   1.536283 S    
C51   C60   1.591307 S    
N21   N22   1.392569 A    
C79   C93   1.559015 S    
C51   H23   1.116226 S    
C30   C43   1.388420 A    
N69   O73   1.300237 A    
C28   N20   1.328075 A    
C57   C59   1.563406 S    
C53   N37   1.492969 S    
