data_mof_unit_56020.cif
_audit_creation_date              2012-12-10T20:27:51-0500
_audit_creation_method            fapswitch 2.2
_symmetry_space_group_name_H-M    P1
_symmetry_Int_Tables_number       1
_space_group_crystal_system       triclinic
_cell_length_a                    12.774794
_cell_length_b                    10.78439
_cell_length_c                    9.89078
_cell_angle_alpha                 86.854457
_cell_angle_beta                  93.865089
_cell_angle_gamma                 92.530128
_cell_volume                      1356.36972115

loop_
_atom_site_label
_atom_site_type_symbol
_atom_type_description
_atom_site_fract_x
_atom_site_fract_y
_atom_site_fract_z
_atom_type_partial_charge
C1    C     C_R   0.506770 0.260412 0.503635 0.915038
C2    C     C_R   0.034030 0.587037 0.561171 -0.039368
C3    C     C_R   0.982831 0.588523 0.430994 0.012954
C4    C     C_R   0.874241 0.563264 0.417859 -0.031236
C5    C     C_R   0.874280 0.521697 0.664886 -0.127696
C6    C     C_R   0.976580 0.573467 0.676401 0.511313
C7    C     C_R   0.465552 0.054351 0.603081 0.114667
C8    C     C_R   0.519825 0.128367 0.508744 -0.275561
C9    C     C_R   0.570815 0.073352 0.404327 -0.152603
C10   C     C_R   0.555757 0.944171 0.389304 0.468017
C11   C     C_R   0.506000 0.871970 0.491234 -0.269357
C12   C     C_R   0.302345 0.523153 0.475288 0.940681
C13   C     C_R   0.464566 0.927830 0.597072 0.016239
C14   C     C_3   0.483730 0.903842 0.747860 0.500917
C15   C     C_3   0.482225 0.043860 0.755879 -0.627241
C16   C     C_R   0.409161 0.477539 0.064681 0.159418
C17   C     C_R   0.585241 0.541082 0.076150 -0.144572
C18   C     C_R   0.586499 0.538486 0.932952 -0.052394
C19   C     C_R   0.407261 0.486048 0.922886 0.017460
C20   C     C_3   0.322688 0.385007 0.913902 0.216060
C21   C     C_3   0.334394 0.366897 0.072022 0.774398
C22   C     C_R   0.503751 0.739804 0.496932 0.957633
C23   C     C_R   0.703716 0.501920 0.523472 0.848481
C24   C     C_R   0.819427 0.522787 0.534385 -0.303639
C25   C     C_R   0.197868 0.572311 0.460191 -0.196067
C26   C     C_R   0.042899 0.611531 0.316760 -0.292087
C27   C     C_R   0.152858 0.608792 0.331363 0.540623
C28   C     C_R   0.142446 0.583427 0.574687 -0.230172
H1    H     H_    0.411233 0.066847 0.804858 0.181119
H2    H     H_    0.555098 0.092917 0.795465 0.202916
H3    H     H_    0.651990 0.577778 0.132671 0.198274
H4    H     H_    0.656517 0.569588 0.883691 0.195572
H5    H     H_    0.004819 0.623052 0.216613 0.186989
H6    H     H_    0.182217 0.575532 0.674070 0.284185
N1    N     N_R   0.499290 0.499140 0.142710 -0.118752
N2    N     N_R   0.499290 0.499180 0.857070 -0.147110
O1    O     O_R   0.500010 0.316790 0.614690 -0.612143
O2    O     O_R   0.500000 0.316760 0.385350 -0.587766
O3    O     O_R   0.346360 0.499990 0.595720 -0.574607
O4    O     O_R   0.346350 0.499960 0.366370 -0.546175
O5    O     O_R   0.500000 0.683240 0.614650 -0.567472
O6    O     O_R   0.499990 0.683210 0.385310 -0.604606
O7    O     O_R   0.653650 0.500040 0.633630 -0.644557
O8    O     O_R   0.653640 0.500010 0.404280 -0.640028
Zn1   Zn    Zn3+2 0.500010 0.500020 0.653130 1.007314
Zn2   Zn    Zn3+2 0.499990 0.499980 0.346870 1.025624
C29   C     C_2   0.822305 0.571512 0.280521 0.457202
H7    H     H_    0.792455 0.487204 0.233811 0.066871
O9    O     O_2   0.816115 0.672234 0.218244 -0.551489
O10   O     O_3   0.578965 0.844268 0.791856 -0.608845
C30   C     C_3   0.673134 0.910962 0.761854 -0.282814
H8    H     H_    0.697026 0.974840 0.843673 0.181424
H9    H     H_    0.668958 0.962360 0.661631 0.156124
H10   H     H_    0.735962 0.843431 0.759983 0.191015
O11   O     O_3   0.227194 0.438425 0.863826 -0.579596
C31   C     C_3   0.138679 0.355565 0.875518 -0.071979
H11   H     H_    0.156934 0.258832 0.909667 0.103198
H12   H     H_    0.094944 0.352042 0.774972 0.162389
H13   H     H_    0.085865 0.391775 0.947342 0.208382
C32   C     C_2   0.357733 0.286823 0.828890 0.413618
H14   H     H_    0.437146 0.256839 0.849202 0.054313
O12   O     O_2   0.301692 0.246857 0.734710 -0.571385
O13   O     O_3   0.245044 0.400203 0.138854 -0.580796
C33   C     C_3   0.202549 0.305026 0.224895 -0.187466
H15   H     H_    0.261931 0.269478 0.303134 0.206463
H16   H     H_    0.163720 0.229604 0.165735 0.121688
H17   H     H_    0.140253 0.344585 0.280212 0.157439
O14   O     O_3   0.391668 0.264572 0.131976 -0.627260
C34   C     C_3   0.350255 0.146471 0.095248 -0.451971
H18   H     H_    0.408255 0.101895 0.037869 0.172291
H19   H     H_    0.275005 0.147329 0.032995 0.144162
H20   H     H_    0.338690 0.087389 0.188906 0.206939
C35   C     C_2   0.830499 0.458113 0.787707 0.423494
H21   H     H_    0.774048 0.380551 0.777227 0.064212
O15   O     O_2   0.858578 0.488861 0.901961 -0.558586
O16   O     O_3   0.021193 0.607363 0.800802 -0.583749
C36   C     C_3   0.010669 0.736899 0.806583 -0.226295
H22   H     H_    0.026023 0.763870 0.912415 0.168913
H23   H     H_    0.929553 0.766049 0.774941 0.147356
H24   H     H_    0.068605 0.788909 0.743646 0.178597
O17   O     O_3   0.220014 0.633639 0.226246 -0.578099
C37   C     C_3   0.172220 0.688097 0.106763 -0.231703
H25   H     H_    0.129970 0.772341 0.127604 0.129426
H26   H     H_    0.120435 0.618102 0.054001 0.236930
H27   H     H_    0.234477 0.717934 0.037669 0.197014
C38   C     C_2   0.648614 0.148424 0.324003 0.507631
H28   H     H_    0.674340 0.240904 0.353154 0.039027
O18   O     O_2   0.687969 0.107594 0.227469 -0.544872
O19   O     O_3   0.605577 0.885808 0.291690 -0.540494
C39   C     C_3   0.539115 0.883914 0.171764 -0.136472
H29   H     H_    0.456767 0.852962 0.190882 0.118013
H30   H     H_    0.569388 0.817316 0.103785 0.199475
H31   H     H_    0.540317 0.976328 0.117109 0.171749
C40   C     C_2   0.392116 0.836817 0.813353 0.434206
H32   H     H_    0.390018 0.833384 0.922936 0.002625
O20   O     O_2   0.320796 0.785922 0.745758 -0.599005

loop_
_geom_bond_atom_site_label_1
_geom_bond_atom_site_label_2
_ccdc_geom_bond_type
O11   C31   S    
C16   C21   S    
C1    C8    S    
C35   H21   S    
C19   C20   S    
O17   C37   S    
C7    C8    A    
C29   O9    D    
C14   O10   S    
C36   H22   S    
C25   C28   A    
O4    Zn2   S    
C26   C27   A    
C39   H31   S    
C19   N2    A    
C16   N1    A    
C5    C6    A    
C4    C24   A    
C38   O18   D    
C22   O5    A    
C23   O7    A    
C31   H11   S    
C32   O12   D    
O6    Zn2   S    
C34   H19   S    
C10   O19   S    
C8    C9    A    
C23   C24   S    
C20   C32   S    
C9    C10   A    
C1    O1    A    
O3    Zn1   S    
C7    C15   S    
C28   H6    S    
C13   C14   S    
C35   O15   D    
C2    C6    A    
C20   O11   S    
O8    Zn2   S    
C15   H1    S    
C36   H23   S    
O2    Zn2   S    
C30   H8    S    
C33   H17   S    
C27   O17   S    
O16   C36   S    
C38   H28   S    
O14   C34   S    
O10   C30   S    
C23   O8    A    
C32   H14   S    
C30   H9    S    
C33   H16   S    
C12   O4    A    
C34   H20   S    
C9    C38   S    
C26   H5    S    
C39   H30   S    
C29   H7    S    
C17   C18   A    
N2    Zn1   S    
C40   O20   D    
O7    Zn1   S    
C1    O2    A    
C37   H26   S    
C21   O14   S    
C17   H3    S    
C18   H4    S    
O1    Zn1   S    
C3    C4    A    
C15   H2    S    
C36   H24   S    
C3    C26   A    
C6    O16   S    
C25   C27   A    
C37   H27   S    
C11   C22   S    
C31   H13   S    
C12   C25   S    
C30   H10   S    
C33   H15   S    
C12   O3    A    
C2    C3    A    
C11   C13   A    
C39   H29   S    
C22   O6    A    
C5    C24   A    
C16   C19   A    
C31   H12   S    
C5    C35   S    
C40   H32   S    
C34   H18   S    
C21   O13   S    
C10   C11   A    
O13   C33   S    
C7    C13   A    
C20   C21   S    
C37   H25   S    
O5    Zn1   S    
C14   C15   S    
C2    C28   A    
C17   N1    A    
O19   C39   S    
N1    Zn2   S    
C18   N2    A    
C14   C40   S    
C4    C29   S    
