data_mof_unit_17537.cif
_audit_creation_date              2012-12-10T17:23:38-0500
_audit_creation_method            fapswitch 2.2
_symmetry_space_group_name_H-M    P1
_symmetry_Int_Tables_number       1
_space_group_crystal_system       triclinic
_cell_length_a                    10.319918
_cell_length_b                    10.456067
_cell_length_c                    15.739793
_cell_angle_alpha                 92.470622
_cell_angle_beta                  81.603369
_cell_angle_gamma                 94.015701
_cell_volume                      1675.15308913

loop_
_atom_site_label
_atom_site_type_symbol
_atom_type_description
_atom_site_fract_x
_atom_site_fract_y
_atom_site_fract_z
_atom_type_partial_charge
C1    C     C_R   0.554002 0.735145 0.497665 0.968916
C2    C     C_3   0.564768 0.406713 0.965233 0.236007
C3    C     C_3   0.560659 0.613337 0.968994 0.231686
C4    C     C_3   0.441305 0.398030 0.032038 0.239503
C5    C     C_1   0.500989 0.499506 0.750506 -0.190130
C6    C     C_1   0.500760 0.504256 0.249874 -0.190975
C7    C     C_3   0.373898 0.494605 0.983914 -0.301594
C8    C     C_3   0.628184 0.516891 0.017021 -0.321350
C9    C     C_3   0.500267 0.503347 0.916794 -0.002020
C10   C     C_3   0.502116 0.507926 0.084156 -0.003253
C11   C     C_1   0.501156 0.500669 0.825771 -0.066679
C12   C     C_R   0.446873 0.265321 0.507824 0.905000
C13   C     C_1   0.501522 0.507215 0.174816 -0.058554
C14   C     C_2   0.580811 0.874307 0.507854 -0.078089
C15   C     C_2   0.425199 0.128234 0.524129 -0.087603
C16   C     C_3   0.680665 0.818617 0.990854 -0.781958
C17   C     C_3   0.285380 0.213865 0.020030 -0.803960
C18   C     C_3   0.297919 0.778588 0.022179 -0.803938
C19   C     C_3   0.687523 0.220119 0.980624 -0.797491
C20   C     C_3   0.697602 0.143004 0.627459 0.111776
C21   C     C_3   0.746795 0.210697 0.705739 -0.326943
C22   C     C_3   0.894350 0.204386 0.703597 -1.036118
C23   C     C_2   0.512636 0.936736 0.576040 0.363014
C24   C     C_3   0.399512 0.930706 0.719099 0.071278
C25   C     C_3   0.497333 0.922914 0.782499 -0.332297
C26   C     C_3   0.465161 0.013867 0.859693 -0.930766
C27   C     C_3   0.240702 0.968127 0.518616 -0.721846
C28   C     C_3   0.805103 0.914162 0.436803 -0.823234
C29   C     C_3   0.070885 0.240408 0.481101 -0.899018
C30   C     C_3   0.837046 0.669358 0.614425 -0.606891
C31   C     C_3   0.167336 0.689960 0.647945 0.182737
C32   C     C_3   0.120868 0.599029 0.722254 -0.396469
C33   C     C_3   0.184362 0.639155 0.801832 -0.953977
C34   C     C_2   0.504540 0.078326 0.574347 0.316370
C35   C     C_3   0.868858 0.384138 0.320866 0.259920
C36   C     C_3   0.829974 0.244395 0.344565 -0.413316
C37   C     C_3   0.759736 0.175476 0.274878 -0.971114
C38   C     C_2   0.918469 0.487465 0.522916 0.370089
C39   C     C_2   0.068190 0.471778 0.504815 0.349895
C40   C     C_R   0.500132 0.499584 0.661712 0.939355
C41   C     C_R   0.500011 0.500412 0.338426 0.885074
C42   C     C_3   0.437217 0.604602 0.036024 0.240493
H1    H     H_    0.730742 0.525752 0.031220 0.155848
H2    H     H_    0.191824 0.262621 0.030189 0.225987
H3    H     H_    0.314813 0.691191 0.135544 0.232328
H4    H     H_    0.268861 0.871272 0.053681 0.239471
H5    H     H_    0.208072 0.719615 0.010412 0.231159
H6    H     H_    0.359767 0.797868 0.959785 0.275784
H7    H     H_    0.704585 0.331195 0.873592 0.221570
H8    H     H_    0.740101 0.142972 0.942357 0.229742
H9    H     H_    0.607354 0.174600 0.026414 0.276733
H10   H     H_    0.757967 0.276941 0.016693 0.231332
H11   H     H_    0.750006 0.186771 0.567997 0.148522
H12   H     H_    0.271442 0.485825 0.969627 0.158317
H13   H     H_    0.719901 0.040502 0.627390 0.115271
H14   H     H_    0.722360 0.312745 0.709379 0.239472
H15   H     H_    0.696274 0.163934 0.764477 0.235490
H16   H     H_    0.923360 0.104032 0.692421 0.271636
H17   H     H_    0.922452 0.241417 0.765996 0.269346
H18   H     H_    0.947794 0.265402 0.652484 0.264038
H19   H     H_    0.305552 0.882736 0.748211 0.133901
H20   H     H_    0.373926 0.030360 0.711454 0.174317
H21   H     H_    0.493421 0.822980 0.804517 0.219600
H22   H     H_    0.598613 0.947281 0.750870 0.223792
H23   H     H_    0.688888 0.711547 0.876355 0.217390
H24   H     H_    0.477783 0.114699 0.839057 0.285876
H25   H     H_    0.531627 0.001148 0.907558 0.291378
H26   H     H_    0.362201 0.993961 0.890198 0.252848
H27   H     H_    0.321075 0.092039 0.420561 0.220066
H28   H     H_    0.146254 0.982450 0.495738 0.226092
H29   H     H_    0.228332 0.988883 0.589081 0.224745
H30   H     H_    0.261919 0.866323 0.505388 0.291885
H31   H     H_    0.655536 0.036387 0.438264 0.231327
H32   H     H_    0.864992 0.974094 0.387340 0.243511
H33   H     H_    0.820285 0.812823 0.416753 0.287282
H34   H     H_    0.725287 0.904773 0.956269 0.226262
H35   H     H_    0.840885 0.936972 0.499276 0.224390
H36   H     H_    0.201803 0.375737 0.414876 0.273569
H37   H     H_    0.119666 0.223839 0.537601 0.276865
H38   H     H_    0.099643 0.167737 0.429684 0.243927
H39   H     H_    0.963145 0.228410 0.499228 0.230242
H40   H     H_    0.893210 0.494733 0.656332 0.183369
H41   H     H_    0.732425 0.683238 0.637891 0.219495
H42   H     H_    0.865777 0.718833 0.552871 0.247642
H43   H     H_    0.892916 0.717304 0.663090 0.200605
H44   H     H_    0.138781 0.787554 0.670161 0.113906
H45   H     H_    0.758470 0.773910 0.019026 0.233779
H46   H     H_    0.274037 0.697331 0.632556 0.246358
H47   H     H_    0.013659 0.601730 0.741538 0.205254
H48   H     H_    0.143632 0.499008 0.702106 0.239487
H49   H     H_    0.292485 0.650995 0.785662 0.282930
H50   H     H_    0.159167 0.564844 0.850868 0.262131
H51   H     H_    0.147322 0.731277 0.829805 0.249037
H52   H     H_    0.954562 0.379926 0.269329 0.107657
H53   H     H_    0.796975 0.427500 0.287700 0.164308
H54   H     H_    0.919860 0.194681 0.349321 0.216584
H55   H     H_    0.765303 0.237986 0.406651 0.241992
H56   H     H_    0.603608 0.849566 0.042926 0.276147
H57   H     H_    0.664872 0.218295 0.272338 0.269634
H58   H     H_    0.739579 0.072377 0.288644 0.284041
H59   H     H_    0.821706 0.183092 0.211124 0.259016
H60   H     H_    0.343790 0.289797 0.133382 0.223972
H61   H     H_    0.265677 0.113935 0.041747 0.240700
H62   H     H_    0.324048 0.211676 0.950473 0.263424
N1    N     N_2   0.842700 0.448880 0.465440 0.037037
N2    N     N_2   0.860351 0.533361 0.605124 -0.298554
N3    N     N_2   0.157300 0.551120 0.534560 0.023200
N4    N     N_2   0.624484 0.729460 0.931410 -0.309409
N5    N     N_2   0.378970 0.280632 0.068825 -0.297639
N6    N     N_2   0.369671 0.712442 0.077157 -0.296059
N7    N     N_2   0.634840 0.300904 0.923543 -0.303589
N8    N     N_2   0.346020 0.048851 0.473058 -0.342122
N9    N     N_2   0.668111 0.940355 0.442484 -0.337947
N10   N     N_2   0.109458 0.366774 0.449062 -0.295498
O1    O     O_R   0.431060 0.692470 0.506960 -0.608152
O2    O     O_3   0.442784 0.862536 0.641652 -0.698487
O3    O     O_3   0.107642 0.657764 0.574293 -0.622386
O4    O     O_3   0.910463 0.468562 0.385783 -0.595585
O5    O     O_R   0.568940 0.307530 0.493040 -0.621767
O6    O     O_R   0.651120 0.659650 0.484770 -0.609569
O7    O     O_R   0.348880 0.340350 0.515230 -0.629127
O8    O     O_R   0.389990 0.516420 0.634310 -0.632744
O9    O     O_R   0.610010 0.483580 0.365690 -0.613505
O10   O     O_R   0.610050 0.483600 0.612130 -0.597847
O11   O     O_R   0.389950 0.516400 0.387870 -0.632630
O12   O     O_3   0.561934 0.159440 0.632949 -0.659135
Zn1   Zn    Zn3+2 0.353060 0.521920 0.514810 0.951809
Zn2   Zn    Zn3+2 0.646940 0.478080 0.485190 0.965396

loop_
_geom_bond_atom_site_label_1
_geom_bond_atom_site_label_2
_ccdc_geom_bond_type
C29   N10   S    
C3    C42   S    
C24   H19   S    
C10   C42   S    
C35   C36   S    
C8    H1    S    
C4    N5    S    
C28   H32   S    
C18   H5    S    
O1    Zn1   S    
C39   N3    D    
C26   H25   S    
C36   C37   S    
C17   H62   S    
O7    Zn1   S    
C33   H49   S    
C22   H18   S    
C38   C39   S    
H27   N8    S    
O8    Zn1   S    
H31   N9    S    
C25   H21   S    
C7    C42   S    
C30   H41   S    
C31   O3    S    
C23   O2    S    
C19   H10   S    
C32   H48   S    
C12   O7    A    
C31   C32   S    
C6    C41   S    
C16   H45   S    
C36   H55   S    
H23   N4    S    
O10   Zn2   S    
O5    Zn2   S    
C39   N10   S    
C31   H44   S    
C21   C22   S    
C30   N2    S    
C30   H42   S    
H36   N10   S    
C20   H13   S    
C18   H4    S    
C40   O10   A    
C2    N7    S    
C26   H24   S    
C41   O11   A    
C24   C25   S    
C3    C8    S    
C33   H50   S    
C22   H17   S    
H3    N6    S    
C4    C7    S    
C25   C26   S    
C18   H6    S    
C25   H22   S    
C14   C23   D    
C38   N2    S    
C2    C4    S    
C29   H39   S    
C3    C9    S    
C12   O5    A    
C36   H54   S    
C32   H47   S    
C29   H37   S    
C12   C15   S    
C34   O12   S    
C23   C34   S    
C30   H43   S    
C28   H35   S    
C9    C11   S    
C27   H28   S    
C27   N8    S    
C24   O2    S    
C35   H53   S    
N1    O4    S    
C4    C10   S    
C37   H57   S    
C27   H29   S    
C35   H52   S    
C7    C9    S    
C24   H20   S    
C31   H46   S    
C15   C34   D    
N1    Zn2   S    
C16   H34   S    
C15   N8    S    
C2    C8    S    
C18   N6    S    
C20   H11   S    
C35   O4    S    
C10   C13   S    
C33   H51   S    
C22   H16   S    
C21   H14   S    
O6    Zn2   S    
C5    C11   T    
C19   N7    S    
C3    N4    S    
C14   N9    S    
C40   O8    A    
C21   H15   S    
C1    O6    A    
H7    N7    S    
C26   H26   S    
C32   C33   S    
C41   O9    A    
C38   N1    D    
C42   N6    S    
C17   H2    S    
N3    Zn1   S    
C6    C13   T    
C37   H59   S    
C2    C9    S    
C19   H8    S    
C16   H56   S    
O9    Zn2   S    
C29   H38   S    
C17   N5    S    
C20   O12   S    
H40   N2    S    
C17   H61   S    
C28   N9    S    
C16   N4    S    
C19   H9    S    
C20   C21   S    
C8    C10   S    
C5    C40   S    
O11   Zn1   S    
H60   N5    S    
C1    C14   S    
C1    O1    A    
C7    H12   S    
C28   H33   S    
N3    O3    S    
C37   H58   S    
C27   H30   S    
