data_mof_unit_68365.cif
_audit_creation_date              2012-12-10T17:49:34-0500
_audit_creation_method            fapswitch 2.2
_symmetry_space_group_name_H-M    P1
_symmetry_Int_Tables_number       1
_space_group_crystal_system       triclinic
_cell_length_a                    10.916145
_cell_length_b                    10.766023
_cell_length_c                    10.138517
_cell_angle_alpha                 91.318119
_cell_angle_beta                  92.22298
_cell_angle_gamma                 102.231307
_cell_volume                      1162.9955097

loop_
_atom_site_label
_atom_site_type_symbol
_atom_type_description
_atom_site_fract_x
_atom_site_fract_y
_atom_site_fract_z
_atom_type_partial_charge
C1    C     C_R   0.516077 0.263831 0.499679 0.954167
C2    C     C_3   0.967062 0.570645 0.392780 -0.224158
C3    C     C_3   0.026102 0.452674 0.389486 -0.147333
C4    C     C_3   0.125552 0.515900 0.496394 -0.272265
C5    C     C_R   0.626140 0.129230 0.735693 0.264978
C6    C     C_R   0.626973 0.059563 0.851015 0.246364
C7    C     C_R   0.537631 0.947854 0.860846 0.220806
C8    C     C_R   0.468039 0.891647 0.749776 0.312965
C9    C     C_R   0.499007 0.941397 0.625100 -0.121888
C10   C     C_R   0.556872 0.070921 0.618525 -0.041203
C11   C     C_R   0.534885 0.132004 0.498106 -0.161200
C12   C     C_R   0.259178 0.507077 0.498342 1.000778
C13   C     C_R   0.492222 0.056297 0.382098 0.273339
C14   C     C_R   0.449142 0.926005 0.390731 0.273879
C15   C     C_R   0.468917 0.867773 0.507754 -0.183642
C16   C     C_R   0.311032 0.315959 0.130518 0.300345
C17   C     C_R   0.221127 0.231258 0.056368 -0.224669
C18   C     C_R   0.226994 0.216718 0.926143 0.179830
C19   C     C_R   0.316454 0.299782 0.856069 -0.110211
C20   C     C_R   0.410581 0.405364 0.922883 0.029304
C21   C     C_R   0.409135 0.408960 0.068990 0.104838
C22   C     C_R   0.585169 0.587482 0.074878 -0.067223
C23   C     C_R   0.488661 0.737327 0.501659 0.921726
C24   C     C_R   0.581845 0.585980 0.931586 0.324861
C25   C     C_R   0.743162 0.505128 0.501357 0.968969
C26   C     C_3   0.036818 0.456331 0.604020 -0.130154
C27   C     C_3   0.937765 0.391432 0.496579 0.280956
C28   C     C_3   0.879163 0.509745 0.500245 -0.282880
C29   C     C_3   0.978425 0.574597 0.606097 0.224743
C30   C     C_3   0.066888 0.634564 0.498862 0.276235
H1    H     H_    0.145111 0.164443 0.099207 0.267982
N1    N     N_R   0.498800 0.498800 0.142780 -0.129033
N2    N     N_R   0.498760 0.498720 0.857170 -0.128988
O1    O     O_R   0.500000 0.316780 0.614690 -0.626535
O2    O     O_R   0.499990 0.316750 0.385360 -0.558115
O3    O     O_R   0.313960 0.499980 0.614650 -0.575658
O4    O     O_R   0.313940 0.499960 0.385310 -0.577460
O5    O     O_R   0.500010 0.683250 0.614640 -0.590878
O6    O     O_R   0.500000 0.683220 0.385310 -0.549698
O7    O     O_R   0.686060 0.500040 0.614690 -0.555241
O8    O     O_R   0.686040 0.500020 0.385350 -0.569172
Zn1   Zn    Zn3+2 0.500010 0.500020 0.653130 1.080668
Zn2   Zn    Zn3+2 0.499990 0.499980 0.346870 1.094171
Br1   Br    Br    0.860043 0.211444 0.479641 -0.285782
Br2   Br    Br    0.513925 0.867344 0.023374 -0.309322
Br3   Br    Br    0.318424 0.763064 0.774257 -0.259704
Br4   Br    Br    0.328677 0.832444 0.260809 -0.233905
C31   C     C_2   0.682378 0.691070 0.147354 1.028341
O9    O     O_2   0.755954 0.768328 0.087050 -0.515173
O10   O     O_R   0.693843 0.703371 0.283410 -0.755973
H2    H     H_    0.757383 0.781547 0.317554 0.359071
Br5   Br    Br    0.263941 0.255881 0.304547 -0.378537
Br6   Br    Br    0.109352 0.063648 0.854578 -0.196495
C32   C     C_2   0.303043 0.243552 0.722130 1.068811
O11   O     O_2   0.232581 0.273415 0.638566 -0.602503
O12   O     O_R   0.340011 0.128249 0.704187 -0.792778
H3    H     H_    0.303630 0.082077 0.618471 0.374257
Br7   Br    Br    0.687866 0.707858 0.828376 -0.313154
C33   C     C_2   0.064031 0.407184 0.736506 1.070463
O13   O     O_2   0.139604 0.473863 0.814431 -0.591638
O14   O     O_R   0.996366 0.290086 0.774256 -0.696855
H4    H     H_    0.002111 0.280677 0.873348 0.362500
Br8   Br    Br    0.966094 0.668545 0.768521 -0.222331
Br9   Br    Br    0.135212 0.816427 0.509648 -0.297461
C34   C     C_2   0.938390 0.626973 0.264005 1.056363
O15   O     O_2   0.980205 0.739240 0.244559 -0.489825
O16   O     O_R   0.873583 0.546518 0.162301 -0.780295
H5    H     H_    0.878869 0.588061 0.073440 0.378604
C35   C     C_2   0.044613 0.397684 0.256133 1.060569
O17   O     O_2   0.988143 0.290740 0.221610 -0.524561
O18   O     O_R   0.118480 0.475014 0.167644 -0.754467
H6    H     H_    0.110267 0.435975 0.075096 0.357261
Br10  Br    Br    0.505725 0.122485 0.207096 -0.313967
Br11  Br    Br    0.728440 0.295088 0.752358 -0.382729
Br12  Br    Br    0.749327 0.114904 0.995652 -0.193087

loop_
_geom_bond_atom_site_label_1
_geom_bond_atom_site_label_2
_ccdc_geom_bond_type
C22   C31   S    
C29   Br8   S    
C16   C21   A    
C30   Br9   S    
O3    Zn1   S    
C19   C20   A    
C1    C11   S    
C2    C34   S    
C7    C8    A    
C25   C28   S    
C26   C27   S    
C22   N1    A    
N2    Zn1   S    
C7    Br2   S    
C28   C29   S    
C3    C35   S    
O5    Zn1   S    
C25   O7    A    
C5    C6    A    
C5    Br11  S    
O12   H3    S    
C18   C19   A    
C12   O4    A    
C35   O18   S    
C18   Br6   S    
C27   Br1   S    
C8    C9    A    
C34   O16   S    
O1    Zn1   S    
C12   O3    A    
O2    Zn2   S    
C26   C33   S    
C15   C23   S    
C33   O13   D    
C13   C14   A    
O8    Zn2   S    
C35   O17   D    
C1    O1    A    
C17   C18   A    
C21   N1    A    
C32   O12   S    
C33   O14   S    
O16   H5    S    
C6    Br12  S    
C25   O8    A    
C16   C17   A    
O6    Zn2   S    
O4    Zn2   S    
C29   C30   S    
O10   H2    S    
C31   O10   S    
C14   Br4   S    
C20   N2    A    
C19   C32   S    
C31   O9    D    
C13   Br10  S    
C17   H1    S    
C22   C24   A    
C4    C12   S    
C3    C4    S    
C1    O2    A    
C9    C10   A    
C32   O11   D    
C16   Br5   S    
C4    C26   S    
C6    C7    A    
C23   O5    A    
C24   N2    A    
C2    C30   S    
C3    C27   S    
C2    C3    S    
C9    C15   A    
C5    C10   A    
C11   C13   A    
C23   O6    A    
O7    Zn1   S    
N1    Zn2   S    
O14   H4    S    
C8    Br3   S    
C10   C11   A    
O18   H6    S    
C20   C21   A    
C26   C29   S    
C24   Br7   S    
C34   O15   D    
C27   C28   S    
C14   C15   A    
C2    C28   S    
C4    C30   S    
