data_mof_unit_9838.cif
_audit_creation_date              2012-10-26T20:05:03-0400
_audit_creation_method            fapswitch 2.2
_symmetry_space_group_name_H-M    P1
_symmetry_Int_Tables_number       1
_space_group_crystal_system       triclinic
_cell_length_a                    15.857914
_cell_length_b                    15.029522
_cell_length_c                    13.774739
_cell_angle_alpha                 90.987464
_cell_angle_beta                  89.297344
_cell_angle_gamma                 88.801639
_cell_volume                      3281.56093027

loop_
_atom_site_label
_atom_site_type_symbol
_atom_type_description
_atom_site_fract_x
_atom_site_fract_y
_atom_site_fract_z
_atom_type_partial_charge
C1    C     C_R   0.499884 0.329164 0.499310 0.650831
C2    C     C_R   0.499925 0.047007 0.499455 -0.004625
C3    C     C_R   0.422988 0.907956 0.511152 0.026668
C4    C     C_R   0.577012 0.092043 0.488847 0.026668
C5    C     C_R   0.652949 0.950239 0.480636 -0.099790
C6    C     C_R   0.347051 0.049761 0.519364 -0.099790
C7    C     C_R   0.652816 0.042550 0.479668 -0.104230
C8    C     C_R   0.347184 0.957450 0.520332 -0.104230
C9    C     C_R   0.555116 0.445695 0.791568 0.011147
C10   C     C_R   0.444884 0.554305 0.208432 0.011148
C11   C     C_R   0.444417 0.555019 0.795927 0.361438
C12   C     C_R   0.500116 0.670836 0.500690 0.650831
C13   C     C_R   0.555583 0.444981 0.204073 0.361438
C14   C     C_R   0.442873 0.555765 0.899135 0.004335
C15   C     C_R   0.557127 0.444235 0.100864 0.004335
C16   C     C_R   0.339923 0.500843 0.500446 0.617294
C17   C     C_R   0.660077 0.499157 0.499554 0.617294
C18   C     C_R   0.499798 0.500112 0.948266 0.025791
C19   C     C_R   0.500202 0.499888 0.051734 0.025791
C20   C     C_R   0.556443 0.444767 0.894106 -0.022611
C21   C     C_R   0.443557 0.555233 0.105894 -0.022611
C22   C     C_R   0.386293 0.610619 0.954731 -0.115001
C23   C     C_R   0.500282 0.767143 0.502122 0.042143
C24   C     C_R   0.613707 0.389381 0.045269 -0.115001
C25   C     C_R   0.386772 0.610266 0.056487 -0.145403
C26   C     C_R   0.613228 0.389734 0.943513 -0.145403
C27   C     C_3   0.978209 0.419214 0.530023 0.003072
C28   C     C_3   0.021791 0.580786 0.469977 0.003072
C29   C     C_3   0.036353 0.437492 0.441509 -0.115406
C30   C     C_3   0.963647 0.562508 0.558491 -0.115406
C31   C     C_1   0.250437 0.503487 0.501310 0.038275
C32   C     C_1   0.749563 0.496513 0.498689 0.038275
C33   C     C_3   0.025968 0.488383 0.591149 0.006566
C34   C     C_R   0.499718 0.232857 0.497877 0.042143
C35   C     C_3   0.974032 0.511617 0.408850 0.006566
C36   C     C_3   0.083418 0.507055 0.503151 0.005019
C37   C     C_3   0.916582 0.492945 0.496849 0.005019
C38   C     C_1   0.174961 0.505872 0.501958 -0.066346
C39   C     C_1   0.825038 0.494128 0.498042 -0.066346
C40   C     C_R   0.423489 0.814553 0.512024 0.184088
C41   C     C_R   0.576511 0.185447 0.487976 0.184088
C42   C     C_R   0.963837 0.325322 0.562488 0.018600
C43   C     C_R   0.034084 0.269771 0.580613 -0.081624
C44   C     C_R   0.023114 0.182531 0.611197 -0.099448
C45   C     C_R   0.577037 0.810870 0.491569 0.171430
C46   C     C_R   0.941947 0.150097 0.624418 -0.107976
C47   C     C_R   0.871719 0.204964 0.607262 -0.090989
C48   C     C_R   0.882447 0.292252 0.576415 -0.070670
C49   C     C_R   0.036163 0.674678 0.437512 0.018600
C50   C     C_R   0.965916 0.730229 0.419387 -0.081624
C51   C     C_R   0.976886 0.817469 0.388803 -0.099448
C52   C     C_R   0.058052 0.849903 0.375582 -0.107976
C53   C     C_R   0.128281 0.795036 0.392738 -0.090988
C54   C     C_R   0.117553 0.707748 0.423585 -0.070670
C55   C     C_R   0.953816 0.522313 0.302682 0.027734
C56   C     C_R   0.422963 0.189130 0.508431 0.171430
C57   C     C_R   0.017616 0.549259 0.238500 -0.088618
C58   C     C_R   0.000902 0.560250 0.139972 -0.110212
C59   C     C_R   0.920664 0.543319 0.104267 -0.105371
C60   C     C_R   0.857213 0.514847 0.166973 -0.094457
C61   C     C_R   0.873613 0.504092 0.265669 -0.067442
C62   C     C_R   0.046184 0.477687 0.697318 0.027734
C63   C     C_R   0.982384 0.450741 0.761500 -0.088618
C64   C     C_R   0.999098 0.439750 0.860028 -0.110212
C65   C     C_R   0.079336 0.456681 0.895733 -0.105371
C66   C     C_R   0.142787 0.485152 0.833027 -0.094457
C67   C     C_R   0.577300 0.904293 0.490904 0.030111
C68   C     C_R   0.126387 0.495908 0.734331 -0.067442
C69   C     C_R   0.422700 0.095707 0.509096 0.030111
C70   C     C_R   0.500075 0.952993 0.500545 -0.004625
Cl1   Cl    Cl    0.328460 0.755268 0.524021 -0.636345
Cl2   Cl    Cl    0.671540 0.244732 0.475979 -0.636345
Cl3   Cl    Cl    0.672205 0.747032 0.479371 -0.657686
Cl4   Cl    Cl    0.327794 0.252968 0.520629 -0.657686
Cl5   Cl    Cl    0.374714 0.627314 0.734996 -0.547073
Cl6   Cl    Cl    0.625286 0.372686 0.265004 -0.547073
Cu1   Cu    Cu3+1 0.500010 0.499990 0.597420 1.093005
Cu2   Cu    Cu3+1 0.499990 0.500010 0.402580 1.093005
H1    H     H_    0.066388 0.385913 0.392961 0.129403
H2    H     H_    0.287011 0.925625 0.528384 0.174717
H3    H     H_    0.598337 0.403078 0.749669 0.134017
H4    H     H_    0.401663 0.596922 0.250331 0.134017
H5    H     H_    0.097428 0.294119 0.571027 0.150642
H6    H     H_    0.077563 0.140125 0.624732 0.129028
H7    H     H_    0.933462 0.082555 0.648173 0.119647
H8    H     H_    0.808882 0.179843 0.618098 0.151010
H9    H     H_    0.827121 0.333240 0.564475 0.156518
H10   H     H_    0.902572 0.705881 0.428973 0.150642
H11   H     H_    0.922437 0.859875 0.375267 0.129028
H12   H     H_    0.933612 0.614087 0.607039 0.129403
H13   H     H_    0.066538 0.917445 0.351827 0.119647
H14   H     H_    0.191118 0.820157 0.381902 0.151010
H15   H     H_    0.172879 0.666759 0.435525 0.156518
H16   H     H_    0.080327 0.562144 0.264875 0.112288
H17   H     H_    0.050229 0.581814 0.091287 0.111846
H18   H     H_    0.907764 0.551863 0.027984 0.115575
H19   H     H_    0.795279 0.500761 0.139045 0.134426
H20   H     H_    0.823709 0.480395 0.311604 0.156550
H21   H     H_    0.919673 0.437856 0.735125 0.112287
H22   H     H_    0.949771 0.418185 0.908712 0.111846
H23   H     H_    0.340981 0.654353 0.920600 0.174228
H24   H     H_    0.092236 0.448137 0.972015 0.115575
H25   H     H_    0.204721 0.499239 0.860955 0.134426
H26   H     H_    0.176290 0.519605 0.688396 0.156550
H27   H     H_    0.659018 0.345647 0.079400 0.174228
H28   H     H_    0.342503 0.653235 0.096581 0.113639
H29   H     H_    0.657497 0.346765 0.903419 0.113639
H30   H     H_    0.713204 0.915589 0.473191 0.176136
H31   H     H_    0.286795 0.084411 0.526809 0.176136
H32   H     H_    0.712988 0.074375 0.471616 0.174717
N1    N     N_R   0.499960 0.499930 0.743810 -0.237250
N2    N     N_R   0.500040 0.500070 0.256190 -0.237250
O1    O     O_R   0.500020 0.370250 0.582280 -0.503130
O2    O     O_R   0.499980 0.629750 0.417720 -0.503131
O3    O     O_R   0.500010 0.370270 0.417740 -0.428110
O4    O     O_R   0.499990 0.629730 0.582260 -0.428109
O5    O     O_R   0.379080 0.499980 0.582260 -0.436758
O6    O     O_R   0.620920 0.500020 0.417740 -0.436758
O7    O     O_R   0.379070 0.500000 0.417710 -0.520649
O8    O     O_R   0.620930 0.500000 0.582290 -0.520649

loop_
_geom_bond_atom_site_label_1
_geom_bond_atom_site_label_2
_ccdc_geom_bond_type
C9    N1    A    
C6    C69   A    
C66   C68   A    
C34   C56   A    
C23   C45   A    
C40   Cl1   S    
C27   C29   S    
C43   H5    S    
C14   C18   A    
Cu2   O3    S    
C30   H12   S    
Cu1   O8    S    
C49   C50   A    
C53   C54   A    
C27   C33   S    
C16   C31   S    
C15   C19   A    
C29   C36   S    
C22   H23   S    
Cu2   O6    S    
C24   C26   A    
C13   N2    A    
Cu1   O5    S    
C11   C14   A    
C4    C41   A    
C49   C54   A    
C33   C36   S    
C45   Cl3   S    
C18   C19   A    
C32   C39   T    
Cu1   N1    S    
C54   H15   S    
C63   H21   S    
C17   O8    A    
C19   C21   A    
C61   H20   S    
C28   C35   S    
C33   C62   S    
C22   C25   A    
C45   C67   A    
C10   N2    A    
C2    C69   A    
C5    C67   A    
C46   H7    S    
C59   C60   A    
Cu2   O2    S    
C34   C41   A    
C1    O1    A    
C65   H24   S    
C4    C7    A    
Cu1   O1    S    
C44   C46   A    
C1    C34   S    
C12   O2    A    
C10   C21   A    
C56   Cl4   S    
C35   C55   S    
C51   C52   A    
C47   H8    S    
C3    C70   A    
C60   H19   S    
C16   O7    A    
C12   C23   S    
C5    C7    A    
C6    C8    A    
C58   C59   A    
Cu1   Cu2   S    
C11   N1    A    
C10   H4    S    
C30   C37   S    
C60   C61   A    
C2    C4    A    
C58   H17   S    
C62   C63   A    
C28   C49   S    
C9    C20   A    
C47   C48   A    
C29   H1    S    
C13   Cl6   S    
C53   H14   S    
C50   C51   A    
C48   H9    S    
C42   C48   A    
C17   O6    A    
C41   Cl2   S    
C15   C24   A    
C3    C40   A    
C3    C8    A    
C57   H16   S    
C55   C57   A    
C43   C44   A    
C6    H31   S    
C59   H18   S    
C36   C38   S    
Cu1   O4    S    
C52   C53   A    
C21   C25   A    
C46   C47   A    
C25   H28   S    
C30   C33   S    
C35   C37   S    
C66   H25   S    
C68   H26   S    
C44   H6    S    
C26   H29   S    
C7    H32   S    
C50   H10   S    
C29   C35   S    
C31   C38   T    
C62   C68   A    
C67   C70   A    
C64   C65   A    
C14   C22   A    
C13   C15   A    
Cu2   O7    S    
C37   C39   S    
C11   Cl5   S    
C16   O5    A    
C51   H11   S    
C27   C42   S    
C57   C58   A    
C20   C26   A    
C27   C37   S    
C55   C61   A    
C28   C30   S    
C18   C20   A    
C65   C66   A    
C63   C64   A    
C64   H22   S    
C28   C36   S    
C56   C69   A    
C42   C43   A    
C8    H2    S    
C17   C32   S    
C52   H13   S    
Cu2   N2    S    
C24   H27   S    
C1    O3    A    
C2    C70   A    
C23   C40   A    
C9    H3    S    
C12   O4    A    
C5    H30   S    
