data_mof_unit_27749.cif
_audit_creation_date              2012-12-10T17:19:57-0500
_audit_creation_method            fapswitch 2.2
_symmetry_space_group_name_H-M    P1
_symmetry_Int_Tables_number       1
_space_group_crystal_system       triclinic
_cell_length_a                    9.602184
_cell_length_b                    10.782636
_cell_length_c                    15.37238
_cell_angle_alpha                 87.75704
_cell_angle_beta                  74.188842
_cell_angle_gamma                 88.437768
_cell_volume                      1529.98796127

loop_
_atom_site_label
_atom_site_type_symbol
_atom_type_description
_atom_site_fract_x
_atom_site_fract_y
_atom_site_fract_z
_atom_type_partial_charge
C1    C     C_R   0.005637 0.262978 0.492961 0.945500
C2    C     C_R   0.664671 0.546204 0.903117 0.031348
C3    C     C_R   0.749832 0.614621 0.946135 0.006931
C4    C     C_R   0.515860 0.524074 0.947728 0.102412
C5    C     C_R   0.458835 0.557484 0.039152 0.095935
C6    C     C_R   0.546091 0.626602 0.079410 -0.235242
C7    C     C_R   0.687552 0.655118 0.033761 -0.142973
C8    C     C_R   0.421102 0.473004 0.903179 -0.170833
C9    C     C_R   0.277903 0.448679 0.948157 -0.139992
C10   C     C_R   0.222337 0.471602 0.040371 0.096945
C11   C     C_R   0.315199 0.523165 0.087034 0.056480
C12   C     C_R   0.918308 0.506648 0.672106 0.928151
C13   C     C_R   0.077399 0.440687 0.087365 0.290307
C14   C     C_R   0.030742 0.456149 0.181487 -0.202396
C15   C     C_R   0.264681 0.532600 0.181267 -0.219531
C16   C     C_R   0.157143 0.115574 0.328251 0.351797
C17   C     C_R   0.187064 0.049506 0.248572 -0.131263
C18   C     C_R   0.145557 0.927159 0.250417 -0.203758
C19   C     C_R   0.080812 0.867771 0.332607 -0.182422
C20   C     C_R   0.047375 0.932924 0.414091 0.011047
C21   C     C_R   0.072649 0.061727 0.411603 -0.030796
C22   C     C_R   0.013615 0.128014 0.492532 -0.201799
C23   C     C_R   0.996643 0.736806 0.502811 0.839457
C24   C     C_R   0.952092 0.064386 0.575341 0.290029
C25   C     C_R   0.945959 0.934918 0.578685 0.186314
C26   C     C_R   0.993079 0.870606 0.498147 -0.141845
C27   C     C_R   0.692373 0.663887 0.380956 -0.141460
C28   C     C_R   0.643998 0.745617 0.323155 -0.192680
C29   C     C_R   0.500442 0.747165 0.323383 -0.217593
C30   C     C_R   0.404746 0.666176 0.380729 -0.127809
C31   C     C_R   0.448840 0.581275 0.441410 0.235105
C32   C     C_R   0.598379 0.580792 0.441445 0.196047
C33   C     C_R   0.551777 0.423274 0.555920 -0.044476
C34   C     C_R   0.081472 0.501476 0.327586 0.805071
C35   C     C_R   0.403961 0.423244 0.555845 0.007891
C36   C     C_R   0.872106 0.533121 0.769388 -0.189768
C37   C     C_R   0.124993 0.498618 0.228332 -0.069755
C38   C     C_R   0.895175 0.642399 0.900409 0.294424
C39   C     C_R   0.955790 0.603099 0.811743 0.309759
C40   C     C_R   0.731083 0.501579 0.816812 -0.287726
Cu1   Cu    Cu3+1 0.140660 0.499990 0.500010 1.027094
Cu2   Cu    Cu3+1 0.859340 0.500010 0.499990 0.955542
H1    H     H_    0.747430 0.709100 0.068747 0.199436
H2    H     H_    0.249888 0.091193 0.185264 0.176694
H3    H     H_    0.171050 0.876042 0.188639 0.174659
H4    H     H_    0.057102 0.770460 0.331665 0.107524
H5    H     H_    0.588699 0.360322 0.601834 0.159601
H6    H     H_    0.804389 0.670113 0.375372 0.195253
H7    H     H_    0.718752 0.808239 0.277860 0.166920
H8    H     H_    0.334827 0.560554 0.220631 0.159460
H9    H     H_    0.462679 0.811212 0.278335 0.164852
H10   H     H_    0.298120 0.674882 0.373744 0.184660
H11   H     H_    0.330624 0.360324 0.601636 0.151305
H12   H     H_    0.922279 0.431794 0.219677 0.165922
H13   H     H_    0.212979 0.408109 0.909567 0.169058
H14   H     H_    0.674768 0.441628 0.783903 0.187771
H15   H     H_    0.506059 0.664933 0.145371 0.143211
H16   H     H_    0.452708 0.454098 0.832115 0.154173
N1    N     N_R   0.648320 0.501210 0.499140 -0.207055
N2    N     N_R   0.352470 0.501290 0.499110 -0.188949
O1    O     O_R   0.118810 0.319640 0.500010 -0.527288
O2    O     O_R   0.881240 0.319660 0.500000 -0.568036
O3    O     O_R   0.055570 0.499980 0.629840 -0.529981
O4    O     O_R   0.818000 0.500010 0.629830 -0.585164
O5    O     O_R   0.118760 0.680340 0.500000 -0.582846
O6    O     O_R   0.881190 0.680360 0.499990 -0.618340
O7    O     O_R   0.182000 0.499990 0.370170 -0.562947
O8    O     O_R   0.944430 0.500020 0.370160 -0.621822
N3    N     N_2   0.982666 0.392138 0.039518 -0.434432
H17   H     H_    0.984244 0.437838 0.979276 0.264237
C41   C     C_3   0.840880 0.347565 0.088263 -0.626565
H18   H     H_    0.771150 0.425440 0.121741 0.228466
H19   H     H_    0.850639 0.273849 0.138904 0.237880
H20   H     H_    0.788634 0.306833 0.040066 0.243000
Cl1   Cl    Cl    0.884624 0.147072 0.676176 -0.650281
Cl2   Cl    Cl    0.264052 0.246309 0.320930 -0.641586
N4    N     N_2   0.895873 0.868008 0.662939 -0.416094
H21   H     H_    0.931848 0.901546 0.714734 0.322867
C42   C     C_3   0.742219 0.844284 0.689808 -0.580069
H22   H     H_    0.715044 0.785623 0.752938 0.226787
H23   H     H_    0.710435 0.794258 0.636640 0.241517
H24   H     H_    0.679416 0.932913 0.702530 0.257353
Cl3   Cl    Cl    0.003251 0.727940 0.952876 -0.586790
Cl4   Cl    Cl    0.134125 0.648170 0.754322 -0.543834

loop_
_geom_bond_atom_site_label_1
_geom_bond_atom_site_label_2
_ccdc_geom_bond_type
C27   H6    S    
C16   C21   A    
C38   Cl3   S    
C35   H11   S    
C34   C37   S    
Cu1   Cu2   S    
C19   C20   A    
Cu1   O1    S    
C4    C8    A    
C1    O2    A    
C19   H4    S    
Cu1   O7    S    
N4    H21   S    
C13   N3    S    
C25   N4    S    
C23   O6    A    
C28   C29   A    
C39   Cl4   S    
C5    C11   A    
C3    C7    A    
C5    C6    A    
C12   O4    A    
C23   C26   S    
C18   C19   A    
C15   H8    S    
N3    C41   S    
C15   C37   A    
C8    H16   S    
C11   C15   A    
C3    C38   A    
C8    C9    A    
C40   H14   S    
C9    H13   S    
C7    H1    S    
C12   C36   S    
C9    C10   A    
Cu2   O2    S    
C1    C22   S    
C33   N1    A    
C21   C22   A    
Cu2   O8    S    
C6    H15   S    
N4    C42   S    
C38   C39   A    
C36   C40   A    
C24   C25   A    
C34   O8    A    
C42   H23   S    
C12   O3    A    
C16   C17   A    
Cu1   O5    S    
C25   C26   A    
C35   N2    A    
C31   N2    A    
Cu2   N1    S    
C2    C4    A    
C29   C30   A    
C42   H24   S    
C28   H7    S    
C31   C32   A    
C17   C18   A    
C14   H12   S    
C33   H5    S    
C22   C24   A    
Cu1   O3    S    
C18   H3    S    
Cu2   O4    S    
C41   H19   S    
C29   H9    S    
C30   H10   S    
C27   C32   A    
C16   Cl2   S    
C36   C39   A    
Cu1   N2    S    
C4    C5    A    
C10   C13   A    
C1    O1    A    
C34   O7    A    
C41   H20   S    
C24   Cl1   S    
C6    C7    A    
C23   O5    A    
C2    C3    A    
C17   H2    S    
C41   H18   S    
C14   C37   A    
C30   C31   A    
C20   C26   A    
C33   C35   A    
N3    H17   S    
C10   C11   A    
C42   H22   S    
C2    C40   A    
C20   C21   A    
C27   C28   A    
Cu2   O6    S    
C32   N1    A    
C13   C14   A    
