data_mof_unit_34677.cif
_audit_creation_date              2013-03-05T16:16:38-0500
_audit_creation_method            fapswitch 2.2
_symmetry_space_group_name_H-M    P1
_symmetry_Int_Tables_number       1
_space_group_crystal_system       triclinic
_cell_length_a                    8.384574
_cell_length_b                    19.108449
_cell_length_c                    18.906826
_cell_angle_alpha                 103.014979
_cell_angle_beta                  93.796198
_cell_angle_gamma                 91.14803
_cell_volume                      2942.98507869

loop_
_atom_site_label
_atom_site_type_symbol
_atom_site_description
_atom_site_fract_x
_atom_site_fract_y
_atom_site_fract_z
_atom_type_partial_charge
P1    P     P_3+3 0.943060 0.664750 0.570190 0.445729
O1    O     O_2   0.114910 0.675240 0.550030 -0.356668
O2    O     O_3   0.867890 0.586390 0.543600 -0.412451
O3    O     O_3   0.355250 0.627820 0.418550 -0.378885
O4    O     O_2   0.358982 0.743478 0.525475 -0.448401
O5    O     O_3   0.962994 0.687085 0.665453 -0.571074
O6    O     O_3   0.286494 0.779909 0.405406 -0.573791
H1    H     H_    0.111488 0.700617 0.367058 0.135275
C1    C     C_3   0.060791 0.797837 0.331821 -0.984943
H2    H     H_    0.003913 0.780004 0.276313 0.264447
H3    H     H_    0.967071 0.805563 0.371393 0.245209
P2    P     P_3+3 0.360910 0.439170 0.334000 0.426372
P3    P     P_3+3 0.902395 0.574279 0.285293 0.424839
O7    O     O_2   0.187140 0.460320 0.325000 -0.402232
O8    O     O_3   0.941730 0.590880 0.379870 -0.357982
O9    O     O_2   0.064717 0.554471 0.253211 -0.428368
O10   O     O_3   0.358980 0.344353 0.307034 -0.575008
O11   O     O_3   0.864450 0.659177 0.267812 -0.540372
C2    C     C_3   0.774048 0.650885 0.200895 0.375040
H4    H     H_    0.650233 0.632123 0.206520 0.103573
H5    H     H_    0.831340 0.613554 0.156679 0.100260
C3    C     C_3   0.762675 0.722576 0.178944 -1.018949
H6    H     H_    0.724282 0.764681 0.224721 0.276103
H7    H     H_    0.880082 0.738768 0.162523 0.261864
C4    C     C_3   0.777574 0.358717 0.304965 0.400944
H8    H     H_    0.665016 0.375219 0.330344 0.136725
H9    H     H_    0.861921 0.405655 0.312153 0.080771
C5    C     C_3   0.739055 0.326413 0.224409 -0.969107
H10   H     H_    0.678145 0.272853 0.216847 0.305856
H11   H     H_    0.658844 0.361252 0.200380 0.213884
H12   H     H_    0.850333 0.320335 0.195458 0.239037
Ba1   Ba    Ba6+2 0.153030 0.533740 0.468880 1.527066
C6    C     C_3   0.014582 0.627383 0.690995 0.407234
H13   H     H_    0.127071 0.608172 0.667041 0.098029
H14   H     H_    0.921671 0.583276 0.677570 0.131973
C7    C     C_3   0.044654 0.649550 0.773345 -0.930337
H15   H     H_    0.141595 0.691825 0.788247 0.286031
H16   H     H_    0.080539 0.602743 0.795463 0.220847
H17   H     H_    0.933900 0.670740 0.798169 0.263690
C8    C     C_3   0.218145 0.314883 0.264235 0.323288
H18   H     H_    0.109385 0.336904 0.289443 0.101970
H19   H     H_    0.211677 0.256534 0.263143 0.108932
C9    C     C_3   0.212904 0.321711 0.184855 -0.698548
H20   H     H_    0.196999 0.378103 0.181747 0.167651
H21   H     H_    0.106279 0.290769 0.154782 0.173327
P4    P     P_3+3 0.867240 0.335250 0.429760 0.468779
O12   O     O_2   0.695400 0.324710 0.449950 -0.334761
O13   O     O_3   0.942410 0.413600 0.456340 -0.424844
O14   O     O_3   0.455050 0.372170 0.581390 -0.383116
O15   O     O_3   0.849526 0.306381 0.335322 -0.575513
P5    P     P_3+3 0.893422 0.416201 0.714714 0.459423
O16   O     O_3   0.370790 0.538810 0.587440 -0.401296
O17   O     O_3   0.868570 0.409120 0.620070 -0.364004
O18   O     O_2   0.775625 0.471923 0.751039 -0.373254
O19   O     O_3   0.822129 0.336213 0.733340 -0.492777
Ba2   Ba    Ba6+2 0.657140 0.466250 0.531070 1.548063
P6    P     P_3+3 0.399586 0.721361 0.445216 0.409806
C10   C     C_3   0.179583 0.743018 0.348963 0.724889
H22   H     H_    0.122587 0.850677 0.335381 0.261792
O20   O     O_3   0.439510 0.461180 0.412500 -0.411820
C11   C     C_3   0.518321 0.686332 0.662876 0.296909
H23   H     H_    0.643280 0.669480 0.655701 0.108633
H24   H     H_    0.448568 0.671353 0.609495 0.137032
C12   C     C_3   0.521941 0.767945 0.690291 -0.692813
H25   H     H_    0.601992 0.783348 0.741029 0.239194
H26   H     H_    0.571750 0.793539 0.648867 0.147827
P7    P     P_3+3 0.443369 0.560518 0.679810 0.442374
O21   O     O_2   0.623160 0.539640 0.674980 -0.352012
O22   O     O_3   0.449539 0.653663 0.713625 -0.566162
H27   H     H_    0.673795 0.717333 0.131633 0.241731
C13   C     C_3   0.941675 0.285629 0.720283 0.385725
H28   H     H_    0.975052 0.277319 0.663257 0.080199
H29   H     H_    0.048682 0.303275 0.758582 0.059966
C14   C     C_3   0.878853 0.214588 0.732840 -0.900059
H30   H     H_    0.772898 0.194290 0.694898 0.260258
H31   H     H_    0.972754 0.174445 0.723745 0.233442
H32   H     H_    0.845513 0.221606 0.789800 0.254803
P8    P     P_3+3 0.423365 0.279176 0.570635 0.428424
C15   C     C_3   0.424944 0.299031 0.708346 0.364439
H33   H     H_    0.292874 0.297806 0.696604 -0.026090
O23   O     O_2   0.532590 0.245683 0.510526 -0.393911
O24   O     O_3   0.501961 0.256833 0.650225 -0.537057
H34   H     H_    0.471051 0.355702 0.718994 0.139677
H35   H     H_    0.397504 0.306607 0.822522 0.188225
C16   C     C_3   0.457913 0.271739 0.777589 -0.659353
H36   H     H_    0.587928 0.275555 0.793332 0.219027
C17   C     C_R   0.896649 0.202400 0.494315 -0.258626
H37   H     H_    0.779986 0.185299 0.468514 0.179916
C18   C     C_R   0.968191 0.264580 0.476222 0.259479
C19   C     C_R   0.141192 0.188708 0.566006 -0.405002
H38   H     H_    0.218083 0.167164 0.601935 0.149339
C20   C     C_R   0.213447 0.244347 0.541321 0.209838
C21   C     C_R   0.670170 0.814184 0.450292 -0.301583
H39   H     H_    0.608882 0.843569 0.414760 0.147110
C22   C     C_R   0.612703 0.744029 0.449002 0.286358
C23   C     C_R   0.867888 0.802475 0.545092 -0.321887
H40   H     H_    0.952358 0.823879 0.590894 0.158715
C24   C     C_R   0.833212 0.727729 0.527950 0.294027
C25   C     C_R   0.984997 0.159703 0.538251 0.112436
C26   C     C_R   0.131870 0.270257 0.487688 -0.161662
C27   C     C_R   0.793760 0.847855 0.502921 0.080954
C28   C     C_R   0.705716 0.699353 0.480067 -0.351126
H41   H     H_    0.665431 0.644080 0.474739 0.148460
C29   C     C_R   0.149885 0.050811 0.626899 -0.184064
C30   C     C_R   0.261187 0.001139 0.640121 -0.061373
C31   C     C_R   0.253523 0.932034 0.596387 -0.120992
C32   C     C_R   0.124659 0.910543 0.545152 -0.185829
C33   C     C_R   0.996507 0.956699 0.541421 0.076225
C34   C     C_R   0.028391 0.032178 0.569904 0.092064
C35   C     C_R   0.837594 0.929332 0.517000 -0.054165
C36   C     C_R   0.718876 0.982421 0.516437 0.100746
C37   C     C_R   0.763471 0.058075 0.531469 0.046826
C38   C     C_R   0.924628 0.084085 0.549177 -0.068667
C39   C     C_R   0.553516 0.963364 0.504287 -0.173614
C40   C     C_R   0.441088 0.013503 0.495343 -0.122334
C41   C     C_R   0.484468 0.085532 0.513398 -0.066228
C42   C     C_R   0.641265 0.107305 0.537719 -0.154269
H42   H     H_    0.151600 0.101313 0.665989 0.132129
H43   H     H_    0.354804 0.016649 0.683452 0.133821
H44   H     H_    0.344906 0.894535 0.603503 0.129882
H45   H     H_    0.121700 0.856434 0.512108 0.189765
H46   H     H_    0.505274 0.911023 0.504312 0.154197
H47   H     H_    0.317212 0.996986 0.479868 0.147737
H48   H     H_    0.394445 0.124148 0.511389 0.151487
H49   H     H_    0.667771 0.162620 0.564063 0.195005
N1    N     N_R   0.518360 0.498147 0.954858 -0.072000
N2    N     N_R   0.571262 0.499318 0.023371 -0.080516
C43   C     C_2   0.606610 0.514825 0.299744 -0.400778
C44   C     C_3   0.743907 0.502293 0.251245 0.178787
C45   C     C_2   0.687757 0.492176 0.170934 -0.341732
C46   C     C_2   0.529222 0.486785 0.149380 0.036594
C47   C     C_2   0.413263 0.486534 0.206584 -0.328779
C48   C     C_1   0.466234 0.484939 0.274030 0.358931
N3    N     N_R   0.315300 0.466087 0.048181 -0.083586
N4    N     N_R   0.262579 0.464537 0.979525 -0.076942
C49   C     C_R   0.362659 0.480810 0.931214 0.156032
C50   C     C_R   0.470993 0.483424 0.071761 0.141145
C51   C     C_R   0.397153 0.511015 0.808970 -0.240274
C52   C     C_R   0.342036 0.509136 0.736573 0.301648
C53   C     C_R   0.098008 0.446872 0.752756 0.197522
C54   C     C_R   0.150746 0.449275 0.825583 -0.285369
C55   C     C_R   0.303497 0.479669 0.854219 0.030628
C56   C     C_R   0.196838 0.474164 0.708344 -0.483445
H50   H     H_    0.777004 0.488935 0.131381 0.151857
H51   H     H_    0.287468 0.491861 0.193448 0.183196
H52   H     H_    0.510392 0.538401 0.830241 0.165449
H53   H     H_    0.072767 0.427669 0.859458 0.156823
H54   H     H_    0.626421 0.542926 0.356465 0.160927
H55   H     H_    0.154574 0.473353 0.652797 0.150961
C57   C     C_2   0.356950 0.292743 0.147066 0.716054
H56   H     H_    0.427610 0.326718 0.121281 -0.007487
O25   O     O_2   0.392129 0.230294 0.142628 -0.565713
N5    N     N_2   0.262969 0.710546 0.285085 -0.112372
H57   H     H_    0.190008 0.677697 0.244513 0.192531
C58   C     C_3   0.369858 0.756755 0.257378 -0.899211
H58   H     H_    0.302615 0.799275 0.238250 0.258512
H59   H     H_    0.427873 0.724206 0.210514 0.245067
H60   H     H_    0.464672 0.781595 0.299791 0.263695
C59   C     C_2   0.357179 0.794713 0.704215 0.718216
H61   H     H_    0.263587 0.785174 0.660383 0.051145
O26   O     O_2   0.327260 0.827386 0.764861 -0.563359
C60   C     C_2   0.398887 0.195243 0.767087 0.618840
H62   H     H_    0.449637 0.153283 0.727130 0.029699
O27   O     O_2   0.294415 0.179655 0.803431 -0.581886
N6    N     N_2   0.219731 0.294639 0.438114 -0.137755
H63   H     H_    0.174336 0.277880 0.385054 0.133042
C61   C     C_3   0.260145 0.368746 0.461803 -0.454150
H64   H     H_    0.197768 0.395785 0.424341 0.240647
H65   H     H_    0.390757 0.371906 0.462270 0.294280
H66   H     H_    0.219896 0.394397 0.516396 0.187387

loop_
_geom_bond_atom_site_label_1
_geom_bond_atom_site_label_2
_geom_bond_distance
_ccdc_geom_bond_type
C17   H37   1.074139 S    
N6    H63   1.026483 S    
C58   H59   1.108830 S    
C33   C34   1.434333 A    
C2    H4    1.111054 S    
C53   C56   1.391308 A    
C43   C44   1.508409 S    
N3    C50   1.360770 A    
C39   C40   1.386777 A    
N4    C49   1.361664 A    
C61   H65   1.094924 S    
P4    C18   1.947642 S    
C16   H36   1.107403 S    
C41   C42   1.387366 A    
C4    C5    1.519367 S    
C21   H39   1.080012 S    
C14   H31   1.104779 S    
P3    O11   1.757993 S    
C47   H51   1.079585 S    
C5    H10   1.110029 S    
C2    H5    1.112099 S    
O11   C2    1.406495 S    
P1    O2    1.572634 S    
C37   C42   1.397640 A    
C31   C32   1.392442 A    
C40   C41   1.376621 A    
C6    C7    1.521139 S    
O14   P8    1.755203 S    
O1    Ba1   2.828075 S    
P1    O1    1.535314 D    
C11   H24   1.107971 S    
C4    O15   1.389386 S    
Ba1   O16   2.778653 S    
C49   C55   1.501788 S    
H1    C10   1.109803 S    
C35   C36   1.436648 A    
C52   C56   1.390781 A    
C8    C9    1.533330 S    
C36   C37   1.445551 A    
C47   C48   1.329429 D    
C14   H32   1.110046 S    
C23   C24   1.411347 A    
P2    O10   1.767635 S    
C32   C33   1.411861 A    
C59   O26   1.220395 D    
N5    C58   1.447776 S    
C45   H50   1.085414 S    
C1    H2    1.100495 S    
O6    C10   1.395879 S    
C60   O27   1.220507 D    
C11   H23   1.110174 S    
C22   C28   1.368881 A    
C34   C38   1.434849 A    
P5    C53   1.846560 S    
C8    H19   1.110656 S    
N1    C49   1.361087 A    
C21   C22   1.409841 A    
C23   C27   1.428762 A    
P2    Ba1   3.383191 S    
C58   H60   1.108756 S    
Ba1   Ba2   4.631272 S    
C16   C60   1.499421 S    
Ba1   O13   2.825237 S    
O2    Ba1   2.937208 S    
C29   C30   1.394910 A    
C61   H66   1.115527 S    
C29   H42   1.074467 S    
C5    H12   1.107677 S    
P4    O13   1.572453 S    
C58   H58   1.110185 S    
C40   H47   1.081217 S    
C14   H30   1.109402 S    
C18   C26   1.373402 A    
P7    O21   1.570315 D    
O8    Ba1   2.770091 S    
C2    C3    1.521195 S    
C53   C54   1.408428 A    
C51   C55   1.417118 A    
C21   C27   1.423474 A    
C61   H64   1.081096 S    
C13   H29   1.111258 S    
C43   H54   1.086025 S    
P5    O19   1.746756 S    
P8    C20   1.872357 S    
C27   C35   1.551553 S    
Ba2   O21   2.801970 S    
P1    Ba1   3.390970 S    
C39   H46   1.071425 S    
Ba2   O20   2.778138 S    
C26   N6    1.382983 S    
P5    O17   1.761872 S    
O10   C8    1.416990 S    
C12   H26   1.111145 S    
O3    P6    1.769165 S    
C11   C12   1.527604 S    
C9    H20   1.102564 S    
C46   C50   1.502522 S    
C10   N5    1.457435 S    
C15   O24   1.410852 S    
C1    H3    1.109857 S    
O2    Ba2   2.825920 S    
P8    O24   1.746508 S    
C19   C20   1.396533 A    
C59   H61   1.084414 S    
C23   H40   1.080027 S    
C6    H13   1.106800 S    
H35   C16   1.112543 S    
C9    H21   1.110054 S    
Ba1   O20   2.938565 S    
O3    Ba1   2.806092 S    
C9    C57   1.496156 S    
C8    H18   1.103804 S    
P2    O7    1.528672 D    
P2    C48   1.838097 S    
P3    O8    1.751882 S    
C3    H7    1.110269 S    
C4    H9    1.109068 S    
C32   H45   1.079789 S    
C46   C47   1.502142 S    
C19   C25   1.430588 A    
C15   C16   1.525675 S    
P7    C52   1.843785 S    
C20   C26   1.374436 A    
C44   C45   1.527776 S    
O17   Ba2   2.770528 S    
C11   O22   1.404136 S    
O13   Ba2   2.938224 S    
P4    O12   1.535587 D    
C7    H15   1.110616 S    
C41   H48   1.070891 S    
C31   H44   1.081842 S    
C57   H56   1.084226 S    
C7    H17   1.110750 S    
O7    Ba1   2.801837 S    
P1    C24   1.820515 S    
C25   C38   1.582943 S    
C13   C14   1.519748 S    
N3    N4    1.336945 A    
C60   H62   1.085384 S    
O14   Ba2   2.805324 S    
C30   C31   1.388991 A    
P4    O15   1.741378 S    
O5    C6    1.400711 S    
O4    P6    1.543532 D    
P5    O18   1.543857 D    
C12   H25   1.112211 S    
C17   C18   1.438835 A    
C45   C46   1.359213 D    
C4    H8    1.106380 S    
C13   H28   1.109342 S    
C24   C28   1.372552 A    
C43   C48   1.311502 D    
C7    H16   1.108123 S    
C15   H34   1.112369 S    
P8    O23   1.540636 D    
C19   H38   1.060743 S    
C29   C34   1.411724 A    
C42   H49   1.073998 S    
O16   P7    1.765016 S    
C51   H52   1.082503 S    
N1    N2    1.336287 A    
C12   C59   1.501721 S    
C5    H11   1.102535 S    
C6    H14   1.110307 S    
C33   C35   1.429635 A    
C36   C39   1.416906 A    
C57   O25   1.220766 D    
C28   H41   1.083064 S    
O6    P6    1.744869 S    
C51   C52   1.407789 A    
C54   H53   1.082532 S    
C15   H33   1.113609 S    
P2    O20   1.546686 S    
C17   C25   1.467120 A    
C37   C38   1.422391 A    
C56   H55   1.082564 S    
C1    C10   1.531768 S    
N6    C61   1.412688 S    
P6    C22   1.823133 S    
P3    O9    1.545982 D    
P4    Ba2   3.391477 S    
P1    O5    1.750770 S    
P3    C44   1.867351 S    
C3    H6    1.110712 S    
C30   H43   1.082269 S    
N2    C50   1.361200 A    
P7    O22   1.748912 S    
N5    H57   1.030659 S    
C54   C55   1.416862 A    
C1    H22   1.111889 S    
C3    H27   1.110799 S    
O19   C13   1.401450 S    
O16   Ba2   2.937578 S    
O12   Ba2   2.828726 S    
