data_mof_unit_59428.cif
_audit_creation_date              2012-12-10T19:10:05-0500
_audit_creation_method            fapswitch 2.2
_symmetry_space_group_name_H-M    P1
_symmetry_Int_Tables_number       1
_space_group_crystal_system       triclinic
_cell_length_a                    10.857568
_cell_length_b                    10.802593
_cell_length_c                    9.575896
_cell_angle_alpha                 89.680244
_cell_angle_beta                  91.03977
_cell_angle_gamma                 90.741906
_cell_volume                      1122.86063656

loop_
_atom_site_label
_atom_site_type_symbol
_atom_type_description
_atom_site_fract_x
_atom_site_fract_y
_atom_site_fract_z
_atom_type_partial_charge
C1    C     C_R   0.500376 0.262439 0.500610 0.792459
C2    C     C_R   0.251423 0.796040 0.098299 -0.099238
C3    C     C_R   0.932892 0.559926 0.393822 -0.233008
C4    C     C_R   0.872321 0.498821 0.503368 -0.074734
C5    C     C_R   0.942256 0.442536 0.611882 0.039937
C6    C     C_R   0.069487 0.441050 0.602845 -0.187817
C7    C     C_R   0.129226 0.502422 0.494984 -0.074782
C8    C     C_R   0.061028 0.564910 0.390327 0.008365
C9    C     C_R   0.912801 0.456749 0.868836 0.250208
C10   C     C_R   0.884491 0.400562 0.996450 -0.182274
C11   C     C_R   0.838543 0.279398 0.999754 -0.149317
C12   C     C_R   0.262716 0.502570 0.498406 0.791671
C13   C     C_R   0.820894 0.213980 0.875505 -0.139623
C14   C     C_R   0.845186 0.270549 0.746994 -0.180953
C15   C     C_R   0.891380 0.392307 0.742716 0.083329
C16   C     C_R   0.428685 0.060846 0.596842 0.091868
C17   C     C_R   0.496845 0.128915 0.499745 -0.082989
C18   C     C_R   0.548755 0.065338 0.387929 -0.236155
C19   C     C_R   0.545673 0.936245 0.385746 -0.203714
C20   C     C_R   0.488473 0.869827 0.493924 -0.068716
C21   C     C_R   0.419303 0.934438 0.589643 0.057902
C22   C     C_3   0.396644 0.919286 0.741789 -0.463678
C23   C     C_R   0.496853 0.737169 0.499126 0.810907
C24   C     C_3   0.414194 0.059866 0.752696 -0.039776
C25   C     C_R   0.540590 0.601373 0.073567 0.214996
C26   C     C_R   0.439954 0.408643 0.070936 0.245147
C27   C     C_R   0.441814 0.409484 0.922637 -0.083148
C28   C     C_R   0.537976 0.602438 0.926730 0.191523
C29   C     C_3   0.659339 0.666291 0.919989 -0.424854
C30   C     C_3   0.664853 0.661410 0.078771 -0.466778
C31   C     C_R   0.737896 0.498556 0.501435 0.793766
C32   C     C_R   0.203120 0.848046 0.219254 0.245123
C33   C     C_R   0.138712 0.772126 0.313228 -0.165084
C34   C     C_R   0.121213 0.645522 0.285757 0.062259
C35   C     C_R   0.166876 0.595443 0.162559 -0.052727
C36   C     C_R   0.233003 0.670368 0.070178 -0.114657
Cu1   Cu    Cu3+1 0.499990 0.499980 0.640670 0.946663
Cu2   Cu    Cu3+1 0.500010 0.500020 0.359330 0.939476
H1    H     H_    0.302551 0.852741 0.025388 0.123549
H2    H     H_    0.819166 0.235230 0.098835 0.137996
H3    H     H_    0.791798 0.118143 0.879493 0.142858
H4    H     H_    0.833783 0.217714 0.651719 0.128185
H5    H     H_    0.597102 0.114767 0.306368 0.153591
H6    H     H_    0.593458 0.888905 0.304008 0.148661
H7    H     H_    0.300412 0.888335 0.761263 0.183647
H8    H     H_    0.467968 0.863408 0.796611 0.207923
H9    H     H_    0.330567 0.108761 0.786971 0.153392
H10   H     H_    0.396062 0.336619 0.863707 0.147961
H11   H     H_    0.726968 0.608125 0.868020 0.252362
H12   H     H_    0.652149 0.761885 0.877541 0.186077
H13   H     H_    0.736847 0.598765 0.120642 0.215161
H14   H     H_    0.663593 0.754527 0.126982 0.182846
H15   H     H_    0.103423 0.811201 0.408322 0.143288
H16   H     H_    0.153666 0.498028 0.139815 0.133564
H17   H     H_    0.269113 0.631109 0.975854 0.151325
H18   H     H_    0.880477 0.608708 0.314009 0.152450
H19   H     H_    0.122775 0.394898 0.684390 0.153179
H20   H     H_    0.901041 0.449606 0.093329 0.152058
N1    N     N_R   0.500790 0.500930 0.147930 -0.182010
N2    N     N_R   0.500790 0.500890 0.852020 -0.199035
O1    O     O_R   0.500000 0.319640 0.618810 -0.588325
O2    O     O_R   0.500010 0.319680 0.381230 -0.584075
O3    O     O_R   0.319640 0.499990 0.618790 -0.576978
O4    O     O_R   0.319650 0.500030 0.381210 -0.592944
O5    O     O_R   0.499990 0.680320 0.618770 -0.581314
O6    O     O_R   0.500000 0.680360 0.381190 -0.580429
O7    O     O_R   0.680350 0.499970 0.618790 -0.567439
O8    O     O_R   0.680360 0.500010 0.381210 -0.587745
C37   C     C_3   0.531845 0.093099 0.835333 -0.838602
H21   H     H_    0.610488 0.039222 0.796449 0.237197
H22   H     H_    0.554431 0.192706 0.825791 0.263952
H23   H     H_    0.518934 0.070921 0.947539 0.223877
C38   C     C_3   0.370060 0.302555 0.135936 -0.809363
H24   H     H_    0.316739 0.331495 0.226564 0.264091
H25   H     H_    0.300866 0.262995 0.061152 0.178183
H26   H     H_    0.434194 0.226843 0.163202 0.234776
C39   C     C_3   0.219189 0.983665 0.248462 -0.898606
H27   H     H_    0.275579 0.030401 0.167640 0.233640
H28   H     H_    0.127621 0.028148 0.250181 0.234050
H29   H     H_    0.265578 0.996799 0.351411 0.241866
Br1   Br    Br    0.982408 0.621311 0.869404 -0.616414

loop_
_geom_bond_atom_site_label_1
_geom_bond_atom_site_label_2
_ccdc_geom_bond_type
C27   H10   S    
C30   H13   S    
C16   C21   A    
C38   H24   S    
C19   C20   A    
C1    O2    A    
C13   H3    S    
C7    C8    A    
C29   H11   S    
C39   H27   S    
C25   C28   A    
C31   O7    A    
C26   C27   A    
Cu1   Cu2   S    
C23   O6    A    
C28   C29   S    
C10   H20   S    
C18   C19   A    
C27   N2    A    
C5    C6    A    
C12   O4    A    
C26   C38   S    
C31   O8    A    
C2    C32   A    
C34   C35   A    
C37   H22   S    
C32   C39   S    
C2    H1    S    
C35   C36   A    
C16   C17   A    
Cu1   O5    S    
C9    C10   A    
C14   H4    S    
C39   H28   S    
C16   C24   S    
C13   C14   A    
C35   H16   S    
C38   H25   S    
C6    H19   S    
C37   H21   S    
Cu1   O3    S    
C24   C37   S    
C17   C18   A    
Cu2   O4    S    
C29   H12   S    
C28   N2    A    
C33   H15   S    
C7    C12   S    
Cu1   N2    S    
Cu2   O6    S    
C3    C8    A    
C12   O3    A    
C37   H23   S    
C29   C30   S    
C3    H18   S    
C20   C23   S    
C33   C34   A    
C8    C34   S    
C22   H8    S    
Cu2   O8    S    
C38   H26   S    
C22   C24   S    
C3    C4    A    
C19   H6    S    
C26   N1    A    
C39   H29   S    
C2    C36   A    
C25   C30   S    
C30   H14   S    
C24   H9    S    
C4    C5    A    
C1    O1    A    
Cu1   O1    S    
C6    C7    A    
C1    C17   S    
C32   C33   A    
C23   O5    A    
C9    C15   A    
C36   H17   S    
C18   H5    S    
C11   C13   A    
Cu1   O7    S    
C11   H2    S    
C5    C15   S    
C4    C31   S    
C10   C11   A    
Cu2   N1    S    
C22   H7    S    
C20   C21   A    
C14   C15   A    
C25   N1    A    
C21   C22   S    
C9    Br1   S    
Cu2   O2    S    
