data_mof_unit_64530.cif
_audit_creation_date              2012-12-10T20:33:31-0500
_audit_creation_method            fapswitch 2.2
_symmetry_space_group_name_H-M    P1
_symmetry_Int_Tables_number       1
_space_group_crystal_system       triclinic
_cell_length_a                    14.146932
_cell_length_b                    10.68731
_cell_length_c                    9.887477
_cell_angle_alpha                 89.777649
_cell_angle_beta                  89.933421
_cell_angle_gamma                 90.353223
_cell_volume                      1494.87311224

loop_
_atom_site_label
_atom_site_type_symbol
_atom_type_description
_atom_site_fract_x
_atom_site_fract_y
_atom_site_fract_z
_atom_type_partial_charge
C1    C     C_R   0.496879 0.260050 0.500297 0.900175
C2    C     C_1   0.772267 0.500116 0.499733 -0.111985
C3    C     C_R   0.485082 0.063312 0.623173 0.004283
C4    C     C_R   0.481331 0.128777 0.501500 -0.222934
C5    C     C_R   0.459008 0.065823 0.381467 -0.210982
C6    C     C_R   0.458575 0.936380 0.380411 0.664022
C7    C     C_R   0.481603 0.871465 0.499971 -0.215855
C8    C     C_R   0.486037 0.935664 0.622213 -0.167519
C9    C     C_3   0.556385 0.929172 0.734993 0.496910
C10   C     C_3   0.554982 0.071007 0.736149 0.403559
C11   C     C_R   0.441406 0.421318 0.071196 0.079970
C12   C     C_R   0.329203 0.499813 0.500106 0.882381
C13   C     C_R   0.561870 0.572790 0.070337 0.230337
C14   C     C_R   0.561706 0.572305 0.926776 0.605229
C15   C     C_R   0.443514 0.418494 0.928859 0.099522
C16   C     C_3   0.338967 0.408894 0.917397 -0.473370
C17   C     C_3   0.335305 0.420447 0.070340 0.436165
C18   C     C_R   0.496788 0.740041 0.499658 0.981725
C19   C     C_R   0.670800 0.500111 0.499905 0.906387
C20   C     C_1   0.227760 0.499667 0.500211 -0.113241
C21   C     C_1   0.142519 0.499643 0.500042 0.054347
C22   C     C_1   0.042651 0.499742 0.499801 0.062397
C23   C     C_1   0.957401 0.499883 0.499675 0.059356
C24   C     C_1   0.857521 0.500044 0.499652 0.046299
H1    H     H_    0.448179 0.115682 0.287233 0.230721
H2    H     H_    0.316638 0.315765 0.878813 0.237911
H3    H     H_    0.527966 0.883975 0.828117 0.167176
H4    H     H_    0.622919 0.117013 0.707673 0.113282
H5    H     H_    0.307667 0.489386 0.862272 0.217587
N1    N     N_R   0.499420 0.499140 0.142800 -0.159305
N2    N     N_R   0.499420 0.499180 0.857150 -0.172871
O1    O     O_R   0.500010 0.316790 0.614690 -0.591075
O2    O     O_R   0.500000 0.316760 0.385350 -0.607261
O3    O     O_R   0.373720 0.500020 0.614700 -0.629129
O4    O     O_R   0.373710 0.499980 0.385350 -0.549920
O5    O     O_R   0.500000 0.683240 0.614650 -0.576070
O6    O     O_R   0.499990 0.683210 0.385310 -0.530033
O7    O     O_R   0.626290 0.500020 0.614650 -0.547047
O8    O     O_R   0.626280 0.499980 0.385300 -0.584172
Zn1   Zn    Zn3+2 0.500010 0.500020 0.653130 1.044273
Zn2   Zn    Zn3+2 0.499990 0.499980 0.346870 1.066888
Br1   Br    Br    0.277487 0.577383 0.125109 -0.391091
Br2   Br    Br    0.281973 0.275045 0.161084 -0.415968
F1    F     F_    0.442649 0.876647 0.261518 -0.596946
F2    F     F_    0.642714 0.882889 0.692676 -0.610482
F3    F     F_    0.514146 0.117975 0.852526 -0.635257
Br3   Br    Br    0.647924 0.684705 0.158341 -0.298664
F4    F     F_    0.622324 0.647515 0.857465 -0.579726

loop_
_geom_bond_atom_site_label_1
_geom_bond_atom_site_label_2
_ccdc_geom_bond_type
C10   F3    S    
C23   C24   S    
C17   Br2   S    
N1    Zn2   S    
C15   N2    A    
C6    C7    A    
C19   O7    A    
C13   C14   A    
C9    C10   S    
C14   N2    A    
C1    C4    S    
O2    Zn2   S    
C12   C20   S    
C16   H5    S    
C1    O2    A    
C7    C8    A    
O8    Zn2   S    
C3    C10   S    
C6    F1    S    
C21   C22   S    
N2    Zn1   S    
C12   O4    A    
O7    Zn1   S    
C18   O5    A    
C16   C17   S    
C19   O8    A    
O6    Zn2   S    
O3    Zn1   S    
C9    F2    S    
C18   O6    A    
O1    Zn1   S    
C2    C24   T    
C5    C6    A    
O4    Zn2   S    
C5    H1    S    
C12   O3    A    
C3    C4    A    
C13   N1    A    
O5    Zn1   S    
C7    C18   S    
C20   C21   T    
C9    H3    S    
C3    C8    A    
C10   H4    S    
C13   Br3   S    
C17   Br1   S    
C8    C9    S    
C14   F4    S    
C2    C19   S    
C22   C23   T    
C11   C15   A    
C1    O1    A    
C11   C17   S    
C15   C16   S    
C11   N1    A    
C4    C5    A    
C16   H2    S    
