data_mof_unit_61254.cif
_audit_creation_date              2012-12-10T16:57:23-0500
_audit_creation_method            fapswitch 2.2
_symmetry_space_group_name_H-M    P1
_symmetry_Int_Tables_number       1
_space_group_crystal_system       triclinic
_cell_length_a                    21.746421
_cell_length_b                    21.744712
_cell_length_c                    21.76521
_cell_angle_alpha                 61.28833
_cell_angle_beta                  118.136954
_cell_angle_gamma                 88.548113
_cell_volume                      7525.93827321

loop_
_atom_site_label
_atom_site_type_symbol
_atom_type_description
_atom_site_fract_x
_atom_site_fract_y
_atom_site_fract_z
_atom_type_partial_charge
C1    C     C_R   0.615775 0.502187 0.493607 0.941857
C2    C     C_3   0.290344 0.706140 0.082936 0.106415
C3    C     C_3   0.180877 0.742475 0.974270 -0.047988
C4    C     C_3   0.206349 0.789671 0.917112 0.090435
C5    C     C_3   0.219006 0.771032 0.031097 -0.333462
C6    C     C_3   0.244702 0.818192 0.973387 0.007472
C7    C     C_1   0.336075 0.661478 0.173733 0.016944
C8    C     C_1   0.160887 0.835632 0.826247 0.083461
C9    C     C_2   0.753780 0.564961 0.441481 -0.189300
C10   C     C_2   0.818926 0.512009 0.508775 -0.172114
C11   C     C_2   0.687911 0.568598 0.444258 -0.100441
C12   C     C_R   0.418725 0.581050 0.337371 0.894339
C13   C     C_2   0.673868 0.505588 0.478778 -0.277575
C14   C     C_3   0.708469 0.227662 0.030013 0.124768
C15   C     C_3   0.699329 0.310026 0.975041 0.122327
C16   C     C_1   0.625562 0.375193 0.751818 -0.175065
C17   C     C_1   0.875815 0.126837 0.248326 -0.187457
C18   C     C_3   0.717302 0.211717 0.972086 -0.211239
C19   C     C_3   0.708582 0.293987 0.917883 0.135501
C20   C     C_3   0.801776 0.194794 0.025639 -0.169237
C21   C     C_3   0.792156 0.211117 0.082427 0.136473
C22   C     C_3   0.792340 0.277610 0.969966 -0.159383
C23   C     C_R   0.382339 0.499395 0.503007 0.930766
C24   C     C_3   0.783632 0.293316 0.028321 -0.208478
C25   C     C_1   0.663011 0.338584 0.826882 -0.070185
C26   C     C_1   0.838448 0.165092 0.173324 -0.077597
C27   C     C_2   0.244781 0.436675 0.556158 -0.154311
C28   C     C_2   0.182454 0.494102 0.494661 -0.325829
C29   C     C_2   0.308237 0.434985 0.549172 -0.154321
C30   C     C_2   0.320943 0.498268 0.511975 -0.328868
C31   C     C_R   0.003616 0.878147 0.505038 0.883827
C32   C     C_R   0.080733 0.918615 0.662614 0.949444
C33   C     C_R   0.998036 0.120584 0.496846 0.916983
C34   C     C_R   0.581225 0.418901 0.662772 0.917108
C35   C     C_R   0.919204 0.081464 0.337279 0.887746
C36   C     C_R   0.994681 0.618819 0.500261 0.976782
C37   C     C_R   0.881250 0.502522 0.501547 0.828484
C38   C     C_R   0.997185 0.380916 0.499811 0.951619
C39   C     C_R   0.118664 0.498408 0.498909 0.956268
C40   C     C_2   0.003399 0.681328 0.569853 -0.190686
C41   C     C_2   0.980817 0.684549 0.499357 -0.289545
C42   C     C_2   0.999164 0.749900 0.567713 -0.016793
C43   C     C_2   0.016807 0.804764 0.519957 -0.202115
C44   C     C_2   0.939508 0.318679 0.430657 -0.169475
C45   C     C_3   0.277851 0.724369 0.969781 0.022719
C46   C     C_2   0.987356 0.315115 0.500707 -0.379638
C47   C     C_2   0.932688 0.250161 0.433268 0.124049
C48   C     C_2   0.994569 0.190682 0.488462 -0.360125
C49   C     C_3   0.316476 0.753449 0.026074 0.059773
C50   C     C_1   0.373938 0.624747 0.248619 -0.159318
C51   C     C_1   0.123929 0.873624 0.751359 -0.100175
C52   C     C_3   0.251960 0.677207 0.027194 -0.043280
H1    H     H_    0.706069 0.454376 0.495930 0.138793
H2    H     H_    0.811764 0.325658 0.053033 0.142205
H3    H     H_    0.825961 0.298855 0.943686 0.151902
H4    H     H_    0.844746 0.146785 0.048029 0.145873
H5    H     H_    0.689496 0.179185 0.947483 0.140897
H6    H     H_    0.248370 0.389746 0.609968 0.166640
H7    H     H_    0.176182 0.536853 0.436609 0.159130
H8    H     H_    0.345722 0.381829 0.577052 0.167205
H9    H     H_    0.288368 0.550321 0.492700 0.163284
H10   H     H_    0.026555 0.628510 0.629564 0.170672
H11   H     H_    0.952117 0.737626 0.438921 0.133708
H12   H     H_    0.905713 0.372190 0.371483 0.167861
H13   H     H_    0.017826 0.262555 0.561631 0.166187
H14   H     H_    0.047770 0.195820 0.522797 0.149518
H15   H     H_    0.195346 0.789601 0.057126 0.159480
H16   H     H_    0.747776 0.604080 0.382383 0.157188
H17   H     H_    0.652070 0.621658 0.418871 0.158601
O1    O     O_R   0.590490 0.448940 0.499990 -0.630677
O2    O     O_R   0.948920 0.909510 0.500030 -0.580443
O3    O     O_R   0.112670 0.938280 0.623210 -0.630570
O4    O     O_R   0.010540 0.938370 0.623230 -0.563909
O5    O     O_R   0.051080 0.090340 0.499970 -0.616381
O6    O     O_R   0.948950 0.090430 0.499990 -0.627411
O7    O     O_R   0.989460 0.061480 0.376770 -0.616320
O8    O     O_R   0.887330 0.061570 0.376790 -0.628814
O9    O     O_R   0.965150 0.625240 0.430430 -0.631930
O10   O     O_R   0.034710 0.555670 0.569560 -0.609603
O11   O     O_R   0.874770 0.534770 0.430450 -0.619504
O12   O     O_R   0.590420 0.551070 0.499980 -0.603640
O13   O     O_R   0.944330 0.465210 0.569580 -0.637703
O14   O     O_R   0.965290 0.444330 0.430440 -0.620682
O15   O     O_R   0.034850 0.374760 0.569570 -0.623381
O16   O     O_R   0.055670 0.534790 0.430420 -0.620633
O17   O     O_R   0.125230 0.465230 0.569550 -0.610993
O18   O     O_R   0.438430 0.510550 0.376780 -0.596937
O19   O     O_R   0.438360 0.612680 0.376770 -0.632076
O20   O     O_R   0.409580 0.448930 0.500020 -0.613710
O21   O     O_R   0.409510 0.551060 0.500010 -0.623373
O22   O     O_R   0.561640 0.387320 0.623230 -0.620908
O23   O     O_R   0.561570 0.489450 0.623220 -0.610678
O24   O     O_R   0.051050 0.909420 0.500010 -0.633125
Zn1   Zn    Zn3+2 0.500050 0.431810 0.500010 0.980796
Zn2   Zn    Zn3+2 0.499950 0.568190 0.499990 0.974496
Zn3   Zn    Zn3+2 0.068190 0.999870 0.499990 0.976543
Zn4   Zn    Zn3+2 0.931810 0.999990 0.500010 1.005148
Zn5   Zn    Zn3+2 0.953560 0.546450 0.407100 0.952465
Zn6   Zn    Zn3+2 0.046440 0.453550 0.592900 0.967668
C53   C     C_3   0.394363 0.759126 0.062119 -0.443519
C54   C     C_3   0.407555 0.808603 0.993427 -0.333127
C55   C     C_3   0.484454 0.815360 0.031441 -0.878750
H18   H     H_    0.490925 0.840692 0.067024 0.261584
H19   H     H_    0.527167 0.759854 0.074217 0.260306
H20   H     H_    0.492732 0.851179 0.980528 0.253351
H21   H     H_    0.402391 0.784939 0.956747 0.227939
H22   H     H_    0.366160 0.864912 0.949771 0.235797
H23   H     H_    0.401948 0.782349 0.099939 0.197785
H24   H     H_    0.435293 0.702608 0.105051 0.203264
C56   C     C_3   0.642186 0.379643 0.941050 -0.426602
C57   C     C_3   0.647276 0.383254 0.011853 -0.356036
C58   C     C_3   0.592496 0.454837 0.976697 -0.859276
H25   H     H_    0.604436 0.503760 0.939753 0.263556
H26   H     H_    0.535203 0.458286 0.935843 0.264347
H27   H     H_    0.597050 0.455839 0.029190 0.244670
H28   H     H_    0.634944 0.335691 0.049991 0.226136
H29   H     H_    0.703941 0.380611 0.053492 0.224351
H30   H     H_    0.652199 0.428914 0.901648 0.213115
H31   H     H_    0.586109 0.380859 0.900159 0.195769
C59   C     C_3   0.665712 0.192907 0.069620 -0.430579
C60   C     C_3   0.583629 0.216445 0.003225 -0.349757
C61   C     C_3   0.543106 0.177276 0.043730 -0.862397
H32   H     H_    0.566340 0.116221 0.077753 0.260649
H33   H     H_    0.547961 0.191177 0.088400 0.262728
H34   H     H_    0.483774 0.195582 0.994356 0.250553
H35   H     H_    0.557967 0.277147 0.968244 0.225845
H36   H     H_    0.576939 0.202614 0.957916 0.221977
H37   H     H_    0.690056 0.131598 0.106806 0.209285
H38   H     H_    0.672766 0.208611 0.113553 0.196103
C62   C     C_3   0.304800 0.699451 0.929170 -0.430729
C63   C     C_3   0.377329 0.634354 0.994092 -0.335660
C64   C     C_3   0.400744 0.609052 0.951737 -0.863256
H39   H     H_    0.358124 0.590204 0.917938 0.268022
H40   H     H_    0.409049 0.655154 0.906554 0.263497
H41   H     H_    0.453444 0.562133 0.999973 0.248839
H42   H     H_    0.421801 0.650948 0.028850 0.226489
H43   H     H_    0.370950 0.586840 0.040028 0.239275
H44   H     H_    0.261361 0.682713 0.893023 0.208999
H45   H     H_    0.311707 0.747201 0.884046 0.203415
C65   C     C_2   0.978334 0.752605 0.622490 0.413977
H46   H     H_    0.946109 0.718926 0.639504 0.067174
O25   O     O_2   0.000327 0.788189 0.653210 -0.539982
C66   C     C_2   0.060746 0.791343 0.488888 0.410420
H47   H     H_    0.052957 0.836281 0.431042 0.054539
O26   O     O_2   0.108532 0.732069 0.529736 -0.542821
C67   C     C_3   0.860455 0.247905 0.372268 -0.353252
C68   C     C_3   0.799029 0.323275 0.302859 -0.382427
C69   C     C_3   0.729426 0.315152 0.245196 -0.878769
H48   H     H_    0.741227 0.291785 0.214877 0.255843
H49   H     H_    0.708241 0.278176 0.281466 0.265379
H50   H     H_    0.686161 0.370385 0.195365 0.252442
H51   H     H_    0.785331 0.347614 0.331376 0.230370
H52   H     H_    0.817717 0.361645 0.264155 0.221270
H53   H     H_    0.871774 0.224831 0.341376 0.192195
H54   H     H_    0.839955 0.209949 0.408825 0.220796
C70   C     C_2   0.240165 0.896895 0.945583 0.378174
H55   H     H_    0.269686 0.909418 0.992203 0.061402
O27   O     O_2   0.203786 0.946925 0.871154 -0.571349
C71   C     C_2   0.105581 0.735372 0.947583 0.401645
H56   H     H_    0.094885 0.700201 0.994841 0.066236
O28   O     O_2   0.056283 0.768647 0.873318 -0.534534
C72   C     C_2   0.253585 0.598876 0.055787 0.356394
H57   H     H_    0.223415 0.586080 0.009558 0.073942
O29   O     O_2   0.288560 0.549459 0.130417 -0.554012
C73   C     C_2   0.834298 0.466816 0.595442 0.425996
H58   H     H_    0.874617 0.411541 0.640553 0.065557
O30   O     O_2   0.805251 0.492123 0.618324 -0.548978

loop_
_geom_bond_atom_site_label_1
_geom_bond_atom_site_label_2
_ccdc_geom_bond_type
C54   H22   S    
C21   C26   S    
C73   H58   S    
C38   O14   A    
C27   C29   S    
O13   Zn6   S    
C14   C18   S    
C43   C66   S    
C57   C58   S    
C69   H50   S    
C4    C8    S    
C56   H30   S    
C58   H26   S    
O21   Zn2   S    
C32   O3    A    
C44   H12   S    
C15   C19   S    
O2    Zn4   S    
C54   C55   S    
C31   C43   S    
C10   C37   S    
C17   C26   T    
C14   C21   S    
O10   Zn6   S    
C70   H55   S    
O1    Zn1   S    
C65   O25   D    
C60   H36   S    
C10   C73   S    
C5    C6    S    
O12   Zn2   S    
C1    O12   A    
C66   H47   S    
O18   Zn1   S    
O6    Zn4   S    
C40   H10   S    
C55   H20   S    
C18   C19   S    
O20   Zn1   S    
C56   C57   S    
O16   Zn5   S    
C68   C69   S    
C16   C34   S    
C34   O22   A    
C33   O6    A    
C67   H54   S    
C2    C7    S    
C64   H39   S    
O14   Zn5   S    
O9    Zn5   S    
C47   C48   D    
C71   O28   D    
O8    Zn4   S    
C57   H28   S    
C9    C10   D    
C13   H1    S    
C44   C47   S    
C5    H15   S    
C38   O15   A    
C40   C42   S    
C47   C67   S    
C53   H24   S    
C73   O30   D    
C3    C71   S    
C15   C56   S    
C36   C41   S    
C19   C25   S    
C62   H45   S    
C58   H25   S    
C44   C46   D    
C72   O29   D    
C4    C45   S    
C37   O11   A    
C35   O7    A    
C53   H23   S    
C38   C46   S    
C12   O19   A    
C42   C65   S    
C59   H38   S    
C23   C30   S    
O5    Zn3   S    
C19   C22   S    
C69   H48   S    
C46   H13   S    
C4    C6    S    
C63   H42   S    
C32   O4    A    
C45   C52   S    
C31   O24   A    
C27   H6    S    
O23   Zn2   S    
O4    Zn4   S    
C32   C51   S    
C29   C30   D    
C63   H43   S    
C2    C49   S    
C18   H5    S    
C71   H56   S    
C67   H53   S    
C29   H8    S    
C45   C49   S    
C23   O20   A    
C23   O21   A    
C65   H46   S    
C55   H19   S    
O17   Zn6   S    
C9    C11   S    
C8    C51   T    
C60   C61   S    
C2    C52   S    
C15   C24   S    
C20   C22   S    
O24   Zn3   S    
C14   C59   S    
C11   H17   S    
C22   C24   S    
C37   O13   A    
C21   C24   S    
C2    C5    S    
C1    C13   S    
C42   C43   D    
C41   H11   S    
C61   H33   S    
C63   C64   S    
C62   H44   S    
C54   H21   S    
C59   C60   S    
C67   C68   S    
C28   H7    S    
C16   C25   T    
C66   O26   D    
C40   C41   D    
C12   O18   A    
O11   Zn5   S    
O15   Zn6   S    
C7    C50   T    
C69   H49   S    
C3    C5    S    
C36   O10   A    
C56   H31   S    
C12   C50   S    
C3    C52   S    
C59   H37   S    
C22   H3    S    
C72   H57   S    
C1    O1    A    
C28   C39   S    
C57   H29   S    
C61   H34   S    
C70   O27   D    
C62   C63   S    
C9    H16   S    
C60   H35   S    
C36   O9    A    
O7    Zn3   S    
C49   C53   S    
C11   C13   D    
C64   H41   S    
C31   O2    A    
C53   C54   S    
C35   O8    A    
C68   H51   S    
C18   C20   S    
C20   H4    S    
C6    C49   S    
C55   H18   S    
C68   H52   S    
C34   O23   A    
O19   Zn2   S    
O3    Zn3   S    
C33   O5    A    
C45   C62   S    
C20   C21   S    
C64   H40   S    
C30   H9    S    
C27   C28   D    
C33   C48   S    
C39   O16   A    
C14   C15   S    
C17   C35   S    
C39   O17   A    
C48   H14   S    
C61   H32   S    
C24   H2    S    
C58   H27   S    
C6    C70   S    
C3    C4    S    
C52   C72   S    
O22   Zn1   S    
