data_mof_unit_50702.cif
_audit_creation_date              2012-12-10T17:13:35-0500
_audit_creation_method            fapswitch 2.2
_symmetry_space_group_name_H-M    P1
_symmetry_Int_Tables_number       1
_space_group_crystal_system       triclinic
_cell_length_a                    26.718045
_cell_length_b                    10.760144
_cell_length_c                    10.068528
_cell_angle_alpha                 90.785864
_cell_angle_beta                  88.639117
_cell_angle_gamma                 89.400791
_cell_volume                      2893.34420503

loop_
_atom_site_label
_atom_site_type_symbol
_atom_type_description
_atom_site_fract_x
_atom_site_fract_y
_atom_site_fract_z
_atom_type_partial_charge
C1    C     C_R   0.502750 0.262897 0.498338 0.898383
C2    C     C_R   0.985230 0.431522 0.315783 0.011232
C3    C     C_R   0.985714 0.648890 0.400734 0.053174
C4    C     C_R   0.405473 0.501498 0.501364 0.870035
C5    C     C_R   0.960231 0.535316 0.377243 -0.034881
C6    C     C_R   0.962135 0.312878 0.323765 0.466717
C7    C     C_R   0.911754 0.302723 0.371116 0.052178
C8    C     C_R   0.883738 0.413331 0.397858 -0.106081
C9    C     C_R   0.909577 0.525292 0.417619 -0.096580
C10   C     C_R   0.884698 0.627388 0.479443 -0.027287
C11   C     C_R   0.833100 0.621464 0.504739 0.544223
C12   C     C_R   0.273486 0.399357 0.446391 0.159364
C13   C     C_R   0.830985 0.417584 0.409421 0.559128
C14   C     C_R   0.730433 0.468369 0.587438 0.510062
C15   C     C_R   0.678022 0.464441 0.596237 -0.361383
C16   C     C_R   0.498702 0.736839 0.500559 0.855877
C17   C     C_R   0.672864 0.570108 0.385915 -0.199347
C18   C     C_R   0.725185 0.573684 0.373603 0.124842
C19   C     C_R   0.753720 0.521464 0.475553 0.224592
C20   C     C_R   0.035296 0.446508 0.266967 0.016632
C21   C     C_R   0.060337 0.558061 0.295768 -0.063849
C22   C     C_R   0.034104 0.663708 0.343459 -0.068328
C23   C     C_R   0.250947 0.518851 0.437339 -0.035266
C24   C     C_R   0.061272 0.358117 0.184299 0.398854
C25   C     C_R   0.109799 0.787667 0.312982 0.120575
C26   C     C_R   0.963602 0.736410 0.493387 0.150163
C27   C     C_R   0.912218 0.729627 0.521561 -0.195294
C28   C     C_R   0.594725 0.503013 0.498600 0.891120
C29   C     C_R   0.057012 0.780899 0.323460 0.398362
C30   C     C_2   0.514013 0.930376 0.398472 0.410747
C31   C     C_2   0.491972 0.868300 0.498146 0.172961
C32   C     C_2   0.502558 0.061105 0.390601 0.049022
C33   C     C_2   0.518476 0.134887 0.491450 -0.007887
C34   C     C_R   0.112488 0.563554 0.279996 -0.171828
C35   C     C_2   0.534908 0.542815 0.927969 0.125755
C36   C     C_2   0.538818 0.493663 0.065445 0.172762
C37   C     C_R   0.191233 0.455660 0.263990 0.592220
C38   C     C_R   0.189531 0.662569 0.334757 0.544903
C39   C     C_R   0.271093 0.610765 0.522473 0.194027
C40   C     C_R   0.322931 0.608887 0.542856 0.374318
C41   C     C_R   0.325277 0.392140 0.466324 0.389549
C42   C     C_3   0.237666 0.695582 0.609108 -0.294226
C43   C     C_3   0.241305 0.663477 0.756083 -0.846668
C44   C     C_3   0.133516 0.914726 0.300190 -0.274640
C45   C     C_R   0.139791 0.457105 0.239141 -0.104155
C46   C     C_3   0.140130 0.976102 0.436139 -0.780612
C47   C     C_3   0.993827 0.821448 0.583129 -0.409422
C48   C     C_3   0.030524 0.747538 0.666335 -0.827617
C49   C     C_3   0.751924 0.630744 0.254121 -0.375312
C50   C     C_3   0.718272 0.676686 0.143612 -0.855415
C51   C     C_3   0.466589 0.103248 0.283101 -0.396965
C52   C     C_3   0.443497 0.997919 0.201786 -0.792399
C53   C     C_3   0.242353 0.282397 0.461352 -0.282147
C54   C     C_3   0.246094 0.228758 0.600737 -0.839497
C55   C     C_3   0.555907 0.092910 0.595792 -0.380676
C56   C     C_R   0.114475 0.356288 0.181725 0.329352
C57   C     C_3   0.605335 0.161889 0.581426 -0.876270
C58   C     C_3   0.572844 0.635686 0.877656 -0.343754
C59   C     C_3   0.576225 0.747561 0.972008 -0.886411
C60   C     C_3   0.588442 0.434289 0.100106 -0.332174
C61   C     C_3   0.583900 0.297793 0.136863 -0.836837
C62   C     C_3   0.891867 0.176082 0.414559 -0.335265
C63   C     C_3   0.921574 0.122276 0.529101 -0.860738
C64   C     C_R   0.137943 0.674555 0.308260 -0.119037
C65   C     C_R   0.350899 0.501342 0.503348 -0.344345
C66   C     C_R   0.649350 0.512368 0.494044 -0.125398
H1    H     H_    0.649860 0.613524 0.312770 0.172263
H2    H     H_    0.248181 0.794224 0.594696 0.262557
H3    H     H_    0.197656 0.685140 0.584800 0.190480
H4    H     H_    0.103148 0.990815 0.486952 0.262230
H5    H     H_    0.163984 0.917516 0.499443 0.262017
H6    H     H_    0.158180 0.067804 0.423491 0.248850
H7    H     H_    0.169534 0.910241 0.243531 0.237247
H8    H     H_    0.109701 0.976301 0.239881 0.232879
H9    H     H_    0.010375 0.674967 0.723240 0.270160
H10   H     H_    0.060176 0.702780 0.602614 0.255136
H11   H     H_    0.048850 0.811080 0.737664 0.249157
H12   H     H_    0.894229 0.800917 0.583568 0.181920
H13   H     H_    0.013990 0.894521 0.529144 0.252150
H14   H     H_    0.968555 0.873283 0.654138 0.203984
H15   H     H_    0.695342 0.599444 0.104469 0.252379
H16   H     H_    0.693604 0.754019 0.180606 0.263337
H17   H     H_    0.741925 0.712161 0.060557 0.268295
H18   H     H_    0.774507 0.710385 0.288967 0.223742
H19   H     H_    0.778125 0.560204 0.209221 0.223126
H20   H     H_    0.994295 0.863655 0.281216 0.335467
H21   H     H_    0.560182 0.937979 0.247227 0.334219
H22   H     H_    0.446241 0.867200 0.652108 0.351149
H23   H     H_    0.476854 0.436798 0.893990 0.156464
H24   H     H_    0.472939 0.945268 0.144485 0.256957
H25   H     H_    0.422551 0.933891 0.267922 0.278663
H26   H     H_    0.416939 0.037764 0.130200 0.258223
H27   H     H_    0.434991 0.156616 0.330418 0.249334
H28   H     H_    0.486812 0.164133 0.212267 0.222847
H29   H     H_    0.284690 0.195760 0.619935 0.303185
H30   H     H_    0.234897 0.300248 0.676736 0.254672
H31   H     H_    0.220580 0.148407 0.610579 0.249516
H32   H     H_    0.201994 0.301934 0.447967 0.191453
H33   H     H_    0.254809 0.211107 0.386438 0.273057
H34   H     H_    0.469036 0.543279 0.110675 0.157796
H35   H     H_    0.620813 0.151432 0.478429 0.266394
H36   H     H_    0.599768 0.261708 0.605713 0.264469
H37   H     H_    0.632841 0.123344 0.651304 0.260495
H38   H     H_    0.539537 0.110428 0.696903 0.236259
H39   H     H_    0.565550 0.992666 0.590279 0.215525
H40   H     H_    0.590712 0.718799 0.069549 0.275687
H41   H     H_    0.602275 0.816771 0.928854 0.253866
H42   H     H_    0.538798 0.792208 0.987188 0.270323
H43   H     H_    0.610334 0.591151 0.865298 0.188492
H44   H     H_    0.562435 0.671251 0.779794 0.264227
H45   H     H_    0.659758 0.422124 0.681258 0.152902
H46   H     H_    0.569784 0.288598 0.239850 0.288895
H47   H     H_    0.558983 0.248240 0.067476 0.239252
H48   H     H_    0.621485 0.252636 0.130921 0.241942
H49   H     H_    0.614396 0.435993 0.012476 0.172776
H50   H     H_    0.607384 0.488295 0.176751 0.220340
H51   H     H_    0.120047 0.182563 0.127275 0.334529
H52   H     H_    0.737929 0.386209 0.756731 0.330988
H53   H     H_    0.960004 0.093837 0.497288 0.288405
H54   H     H_    0.923625 0.191565 0.611572 0.274505
H55   H     H_    0.902414 0.038483 0.567324 0.244387
H56   H     H_    0.382516 0.280439 0.489823 0.326127
H57   H     H_    0.853044 0.181046 0.454048 0.272369
H58   H     H_    0.891714 0.109641 0.329249 0.197880
H59   H     H_    0.970362 0.140998 0.265430 0.358681
H60   H     H_    0.056539 0.257167 0.022980 0.336738
H61   H     H_    0.380449 0.700781 0.609445 0.336262
H62   H     H_    0.231894 0.564258 0.771380 0.254882
H63   H     H_    0.279461 0.680937 0.792798 0.300542
H64   H     H_    0.214395 0.722131 0.815550 0.250450
N1    N     N_R   0.210138 0.545610 0.346014 -0.319503
N2    N     N_R   0.807233 0.519781 0.464157 -0.329679
N3    N     N_2   0.500520 0.501330 0.852150 -0.219224
N4    N     N_2   0.500540 0.501360 0.147810 -0.197245
O1    O     O_R   0.499990 0.319060 0.613040 -0.598489
O2    O     O_R   0.571240 0.499960 0.613080 -0.630725
O3    O     O_R   0.571250 0.500000 0.386950 -0.609475
O4    O     O_2   0.221543 0.367542 0.208470 -0.498495
O5    O     O_3   0.348937 0.277664 0.450660 -0.752086
O6    O     O_3   0.029045 0.887328 0.301647 -0.789771
O7    O     O_3   0.547497 0.873762 0.308897 -0.794953
O8    O     O_3   0.460694 0.929093 0.590529 -0.788327
O9    O     O_3   0.141677 0.256740 0.128843 -0.716108
O10   O     O_3   0.759898 0.419847 0.685344 -0.750084
O11   O     O_3   0.991314 0.207430 0.303071 -0.717179
O12   O     O_2   0.803341 0.324969 0.358679 -0.578933
O13   O     O_3   0.034381 0.284901 0.098143 -0.734735
O14   O     O_3   0.344077 0.713205 0.599650 -0.750378
O15   O     O_2   0.218339 0.763196 0.350368 -0.581896
O16   O     O_2   0.808632 0.717564 0.565636 -0.562855
O17   O     O_R   0.500010 0.319100 0.386900 -0.645924
O18   O     O_R   0.428750 0.500000 0.613050 -0.607258
O19   O     O_R   0.428760 0.500040 0.386920 -0.587999
O20   O     O_R   0.499990 0.680900 0.613100 -0.651252
O21   O     O_R   0.500010 0.680940 0.386960 -0.557417
Zn1   Zn    Zn3+2 0.499990 0.499970 0.650990 0.932046
Zn2   Zn    Zn3+2 0.500010 0.500030 0.349010 0.961307

loop_
_geom_bond_atom_site_label_1
_geom_bond_atom_site_label_2
_ccdc_geom_bond_type
C10   C27   A    
C33   C55   S    
C30   C32   S    
C8    C13   A    
C22   C29   A    
O21   Zn2   S    
C58   H43   S    
C48   H10   S    
C52   H24   S    
C35   C36   S    
C47   H13   S    
C27   H12   S    
C11   N2    A    
C35   N3    D    
C62   H58   S    
C1    C33   S    
C7    C8    A    
C32   C51   S    
C53   C54   S    
C53   H33   S    
C16   C31   S    
C57   H36   S    
C12   C23   A    
C26   C27   A    
C12   C41   A    
C30   O7    S    
C55   H39   S    
C35   C58   S    
C47   H14   S    
C49   H18   S    
H51   O9    S    
H56   O5    S    
H52   O10   S    
C4    C65   S    
O2    Zn1   S    
N3    Zn1   S    
C18   C19   A    
C56   O9    S    
C20   C24   A    
C45   C56   A    
H34   N4    S    
C8    C9    A    
C54   H29   S    
C52   H25   S    
C54   H31   S    
C9    C10   A    
C38   O15   S    
O20   Zn1   S    
C12   C53   S    
C41   O5    S    
H20   O6    S    
H61   O14   S    
C4    O19   A    
C58   H44   S    
C21   C22   A    
C42   H2    S    
C48   H9    S    
C2    C6    A    
C13   O12   S    
C4    O18   A    
C25   C44   S    
H22   O8    S    
C62   H57   S    
C63   H55   S    
C44   C46   S    
C50   H17   S    
C39   C42   S    
C38   C64   A    
C43   H64   S    
C25   C29   A    
C57   H37   S    
C14   O10   S    
C17   H1    S    
C59   H40   S    
H23   N3    S    
C40   O14   S    
C2    C20   A    
C51   C52   S    
O18   Zn1   S    
C43   H63   S    
C39   C40   A    
C6    O11   S    
C41   C65   A    
C21   C34   A    
C36   C60   S    
C58   C59   S    
C15   C66   A    
C55   H38   S    
C42   H3    S    
C59   H41   S    
O1    Zn1   S    
C37   N1    A    
C60   C61   S    
C25   C64   A    
C48   H11   S    
C28   C66   S    
C7    C62   S    
C5    C9    A    
C62   C63   S    
C15   H45   S    
C63   H53   S    
C11   O16   S    
C47   C48   S    
C60   H49   S    
C16   O21   A    
C34   C64   A    
C17   C18   A    
C17   C66   A    
C23   N1    S    
C34   C45   A    
H21   O7    S    
C44   H8    S    
C46   H5    S    
C26   C47   S    
C51   H27   S    
C37   O4    S    
C55   C57   S    
C16   O20   A    
C52   H26   S    
C2    C5    A    
C42   C43   S    
C37   C45   A    
O17   Zn2   S    
C50   H16   S    
C19   N2    S    
C29   O6    S    
C28   O2    A    
C46   H6    S    
C14   C19   A    
C3    C26   A    
C28   O3    A    
C3    C5    A    
C24   O13   S    
C36   N4    D    
C43   H62   S    
H60   O13   S    
C6    C7    A    
C53   H32   S    
C24   C56   A    
C57   H35   S    
C59   H42   S    
O3    Zn2   S    
C40   C65   A    
C32   C33   D    
C31   O8    S    
H59   O11   S    
C38   N1    A    
C61   H47   S    
C63   H54   S    
C30   C31   D    
C23   C39   A    
C13   N2    A    
C1    O17   A    
O19   Zn2   S    
C44   H7    S    
C46   H4    S    
C60   H50   S    
C10   C11   A    
C51   H28   S    
N4    Zn2   S    
C20   C21   A    
C50   H15   S    
C49   C50   S    
C61   H48   S    
C14   C15   A    
C3    C22   A    
C49   H19   S    
C1    O1    A    
C61   H46   S    
C54   H30   S    
C18   C49   S    
