data_mof_unit_5153.cif
_audit_creation_date              2012-12-10T17:35:01-0500
_audit_creation_method            fapswitch 2.2
_symmetry_space_group_name_H-M    P1
_symmetry_Int_Tables_number       1
_space_group_crystal_system       triclinic
_cell_length_a                    12.040463
_cell_length_b                    12.836822
_cell_length_c                    15.685429
_cell_angle_alpha                 89.252045
_cell_angle_beta                  88.851618
_cell_angle_gamma                 93.273634
_cell_volume                      2419.6729392

loop_
_atom_site_label
_atom_site_type_symbol
_atom_type_description
_atom_site_fract_x
_atom_site_fract_y
_atom_site_fract_z
_atom_type_partial_charge
C1    C     C_R   0.521906 0.699855 0.495703 0.938226
C2    C     C_R   0.536851 0.810922 0.490193 -0.132314
C3    C     C_R   0.638036 0.965638 0.535967 0.499297
C4    C     C_R   0.502811 0.501722 0.661599 0.887174
C5    C     C_R   0.627965 0.858494 0.529629 -0.383292
C6    C     C_R   0.457659 0.868320 0.449498 0.057928
C7    C     C_R   0.459261 0.976793 0.461957 0.013780
C8    C     C_R   0.548270 0.024151 0.510173 -0.114281
C9    C     C_R   0.545611 0.129120 0.531580 0.424087
C10   C     C_R   0.379357 0.144970 0.448312 -0.329948
C11   C     C_R   0.374742 0.039433 0.430857 0.113036
C12   C     C_3   0.389808 0.517663 0.047719 -0.483121
C13   C     C_R   0.946362 0.380155 0.447053 -0.307989
C14   C     C_R   0.832689 0.395680 0.446817 -0.103628
C15   C     C_R   0.860357 0.550539 0.526606 0.650013
C16   C     C_R   0.478066 0.299964 0.501578 0.911227
C17   C     C_R   0.977643 0.543447 0.520873 -0.085084
C18   C     C_R   0.020841 0.456522 0.480624 -0.052490
C19   C     C_R   0.137631 0.448126 0.475186 0.541914
C20   C     C_R   0.166352 0.602886 0.555881 0.193201
C21   C     C_R   0.052113 0.618592 0.555401 -0.375915
C22   C     C_R   0.497548 0.500434 0.338642 0.875003
C23   C     C_3   0.508489 0.511915 0.083355 0.053138
C24   C     C_3   0.394408 0.524744 0.950481 -0.622977
C25   C     C_3   0.582513 0.622159 0.950314 0.502507
C26   C     C_3   0.587429 0.610300 0.052939 0.413410
C27   C     C_1   0.493023 0.504328 0.250148 -0.248979
C28   C     C_3   0.517008 0.518973 0.917484 0.060636
C29   C     C_3   0.583887 0.165324 0.669661 0.156922
C30   C     C_3   0.668489 0.216085 0.729977 -0.344241
C31   C     C_3   0.782259 0.169848 0.722087 -0.756181
C32   C     C_3   0.829922 0.994632 0.532113 0.096872
C33   C     C_3   0.909083 0.941855 0.592024 -0.346949
C34   C     C_3   0.559067 0.409646 0.051640 0.213192
C35   C     C_3   0.021435 0.927099 0.548456 -0.981687
C36   C     C_3   0.204548 0.391863 0.346001 0.129929
C37   C     C_3   0.120810 0.338251 0.286154 -0.432225
C38   C     C_3   0.162139 0.346188 0.193507 -0.961728
C39   C     C_3   0.824627 0.613252 0.663762 0.069230
C40   C     C_3   0.816725 0.500104 0.701119 -0.341371
C41   C     C_3   0.927193 0.468353 0.736726 -0.925403
C42   C     C_3   0.760943 0.716908 0.930252 0.197236
C43   C     C_3   0.785102 0.786169 0.851213 -0.429334
C44   C     C_3   0.844540 0.889969 0.873988 -0.974700
C45   C     C_3   0.573985 0.416688 0.951672 0.818894
C46   C     C_3   0.728768 0.595486 0.159919 0.088088
C47   C     C_3   0.852200 0.627816 0.167734 -0.369010
C48   C     C_3   0.889388 0.619748 0.260055 -0.937372
C49   C     C_3   0.424772 0.294049 0.904381 0.086453
C50   C     C_3   0.408049 0.175892 0.894794 -0.333525
C51   C     C_3   0.284738 0.141415 0.891804 -0.977144
C52   C     C_3   0.753445 0.345919 0.942411 0.129891
C53   C     C_3   0.868054 0.380134 0.975580 -0.345866
C54   C     C_3   0.945022 0.289759 0.977009 -1.005479
C55   C     C_3   0.522866 0.273914 0.155497 0.094875
C56   C     C_1   0.496566 0.507994 0.174819 -0.027031
C57   C     C_3   0.544634 0.159170 0.142026 -0.343982
C58   C     C_3   0.571065 0.105075 0.225889 -0.973601
C59   C     C_1   0.515644 0.516389 0.825416 0.034753
C60   C     C_1   0.510379 0.509951 0.750228 -0.232012
C61   C     C_R   0.464598 0.188959 0.496638 -0.198927
H1    H     H_    0.347587 0.585584 0.073719 0.196311
H2    H     H_    0.776110 0.337971 0.418757 0.169488
H3    H     H_    0.568894 0.081604 0.688587 0.130368
H4    H     H_    0.504582 0.205208 0.677790 0.063130
H5    H     H_    0.676998 0.301304 0.716879 0.219803
H6    H     H_    0.637052 0.203805 0.796448 0.193479
H7    H     H_    0.774161 0.084306 0.734046 0.261040
H8    H     H_    0.839110 0.204977 0.769929 0.199338
H9    H     H_    0.819733 0.186382 0.657724 0.298532
H10   H     H_    0.868369 0.072070 0.512009 0.162333
H11   H     H_    0.819966 0.947834 0.472898 0.124560
H12   H     H_    0.334831 0.467087 0.922425 0.187885
H13   H     H_    0.922392 0.990566 0.649367 0.224236
H14   H     H_    0.871648 0.864467 0.613180 0.223944
H15   H     H_    0.010865 0.876345 0.492024 0.268634
H16   H     H_    0.077003 0.889624 0.593841 0.257807
H17   H     H_    0.061193 0.003819 0.528029 0.267011
H18   H     H_    0.210033 0.014064 0.410867 0.191032
H19   H     H_    0.288550 0.038766 0.321459 0.182761
H20   H     H_    0.383435 0.843877 0.334875 0.202985
H21   H     H_    0.297910 0.817497 0.423535 0.215774
H22   H     H_    0.287080 0.362000 0.330166 0.175978
H23   H     H_    0.337023 0.447322 0.067767 0.234424
H24   H     H_    0.209463 0.477666 0.332225 0.134730
H25   H     H_    0.106973 0.254532 0.304596 0.230640
H26   H     H_    0.040630 0.376553 0.290349 0.225015
H27   H     H_    0.241591 0.307126 0.185532 0.267471
H28   H     H_    0.174849 0.429361 0.173334 0.263563
H29   H     H_    0.099344 0.307386 0.151850 0.269801
H30   H     H_    0.230912 0.749206 0.573767 0.168162
H31   H     H_    0.213211 0.675528 0.663560 0.161152
H32   H     H_    0.755984 0.654475 0.694248 0.148880
H33   H     H_    0.901239 0.656855 0.684302 0.129803
H34   H     H_    0.643644 0.406601 0.078453 0.091995
H35   H     H_    0.754687 0.495502 0.754683 0.244322
H36   H     H_    0.787794 0.441657 0.653968 0.234193
H37   H     H_    0.991249 0.465424 0.685242 0.273811
H38   H     H_    0.915787 0.389672 0.766810 0.258501
H39   H     H_    0.956736 0.524380 0.785850 0.257147
H40   H     H_    0.841117 0.688465 0.952293 0.165983
H41   H     H_    0.729208 0.764058 0.982834 0.122358
H42   H     H_    0.839457 0.745218 0.806594 0.210491
H43   H     H_    0.706468 0.801688 0.818770 0.225989
H44   H     H_    0.790491 0.935191 0.916170 0.263069
H45   H     H_    0.317756 0.193422 0.421286 0.203851
H46   H     H_    0.864247 0.936444 0.814875 0.265788
H47   H     H_    0.923485 0.876412 0.906754 0.264027
H48   H     H_    0.522478 0.719136 0.856729 0.187266
H49   H     H_    0.558902 0.784045 0.944084 0.156349
H50   H     H_    0.606595 0.768487 0.085452 0.163657
H51   H     H_    0.471846 0.724155 0.076622 0.175799
H52   H     H_    0.715363 0.515345 0.187066 0.149165
H53   H     H_    0.680533 0.649978 0.198370 0.170206
H54   H     H_    0.902415 0.576503 0.127652 0.225047
H55   H     H_    0.867617 0.709536 0.144236 0.213126
H56   H     H_    0.689858 0.812119 0.558629 0.205159
H57   H     H_    0.841020 0.670990 0.301510 0.268524
H58   H     H_    0.979028 0.644490 0.263732 0.258308
H59   H     H_    0.877465 0.537908 0.283894 0.265741
H60   H     H_    0.391660 0.331381 0.846673 0.136938
H61   H     H_    0.376558 0.314675 0.961699 0.201092
H62   H     H_    0.449736 0.151622 0.835143 0.199250
H63   H     H_    0.446013 0.136155 0.949463 0.234001
H64   H     H_    0.241298 0.162161 0.951860 0.269976
H65   H     H_    0.275527 0.055497 0.884214 0.264385
H66   H     H_    0.245344 0.179391 0.836967 0.266194
H67   H     H_    0.358904 0.598878 0.930198 0.231019
H68   H     H_    0.763720 0.310993 0.878793 0.169496
H69   H     H_    0.714316 0.285232 0.986670 0.136744
H70   H     H_    0.906202 0.443907 0.934145 0.244029
H71   H     H_    0.858800 0.410571 0.041189 0.223887
H72   H     H_    0.910177 0.226342 0.020255 0.267258
H73   H     H_    0.027827 0.317618 0.000281 0.269595
H74   H     H_    0.955977 0.258576 0.911828 0.267384
H75   H     H_    0.451898 0.278467 0.201434 0.152723
H76   H     H_    0.596725 0.313116 0.185744 0.114109
H77   H     H_    0.469867 0.118696 0.114433 0.225395
H78   H     H_    0.974996 0.308623 0.421117 0.185312
H79   H     H_    0.615770 0.153487 0.096392 0.211990
H80   H     H_    0.647027 0.142754 0.253867 0.262318
H81   H     H_    0.585642 0.021788 0.214162 0.264779
H82   H     H_    0.500340 0.108981 0.272040 0.271320
H83   H     H_    0.023169 0.689292 0.582456 0.184396
N1    N     N_R   0.207800 0.519340 0.515510 -0.138747
N2    N     N_R   0.792190 0.480660 0.484490 -0.139965
N3    N     N_3   0.285079 0.998823 0.380089 -0.490794
N4    N     N_3   0.377829 0.813411 0.397032 -0.440704
N5    N     N_3   0.239370 0.674652 0.599620 -0.382588
N6    N     N_3   0.521613 0.713857 0.923314 -0.524041
N7    N     N_3   0.550428 0.704565 0.096223 -0.495968
O1    O     O_R   0.421690 0.658830 0.504140 -0.591400
O2    O     O_3   0.729086 0.011644 0.576692 -0.616729
O3    O     O_3   0.180411 0.364803 0.432767 -0.653581
O4    O     O_3   0.810902 0.625830 0.574209 -0.650599
O5    O     O_3   0.690775 0.628344 0.909557 -0.591390
O6    O     O_3   0.701396 0.594417 0.072353 -0.648548
O7    O     O_3   0.539902 0.321059 0.909652 -0.681211
O8    O     O_3   0.690196 0.435096 0.933315 -0.626964
O9    O     O_3   0.491865 0.319171 0.077053 -0.659386
O10   O     O_R   0.609320 0.646410 0.494190 -0.586940
O11   O     O_R   0.406150 0.506210 0.627840 -0.599260
O12   O     O_R   0.593770 0.493790 0.617880 -0.612055
O13   O     O_R   0.390680 0.353590 0.505810 -0.590874
O14   O     O_R   0.578310 0.341170 0.495860 -0.591512
O15   O     O_R   0.406230 0.506210 0.382120 -0.635107
O16   O     O_R   0.593850 0.493790 0.372160 -0.626242
O17   O     O_3   0.624215 0.175599 0.584544 -0.568638
Zn1   Zn    Zn3+2 0.374720 0.508290 0.506640 0.974666
Zn2   Zn    Zn3+2 0.625280 0.491710 0.493360 0.971922

loop_
_geom_bond_atom_site_label_1
_geom_bond_atom_site_label_2
_ccdc_geom_bond_type
H51   N7    S    
C42   O5    S    
C45   O8    S    
C36   O3    S    
C7    C8    A    
C32   H11   S    
C44   H44   S    
C16   O13   A    
C25   C28   S    
C47   H54   S    
C38   H28   S    
C19   N1    A    
C13   C18   A    
C26   O6    S    
C9    C61   A    
C52   H68   S    
C13   H78   S    
C29   O17   S    
C26   N7    S    
C18   C19   A    
C30   C31   S    
C24   H12   S    
C28   C59   S    
C54   H74   S    
C36   H22   S    
C55   H75   S    
C54   H73   S    
C3    O2    S    
C6    N4    S    
C20   N5    S    
C12   H23   S    
C1    O1    A    
C1    C2    S    
C23   C26   S    
O12   Zn2   S    
C43   H43   S    
C39   H32   S    
C58   H82   S    
C33   H14   S    
C31   H9    S    
C8    C9    A    
C41   H38   S    
C53   H70   S    
C32   H10   S    
C29   C30   S    
C15   O4    S    
C30   H6    S    
C23   C34   S    
C52   O8    S    
C29   H3    S    
C1    O10   A    
C59   C60   T    
C13   C14   A    
C25   O5    S    
O13   Zn1   S    
C2    C6    A    
C40   H35   S    
C42   H41   S    
C50   C51   S    
O16   Zn2   S    
C44   H47   S    
C47   H55   S    
C35   H15   S    
N1    Zn1   S    
C28   C45   S    
C4    O12   A    
C46   H53   S    
C51   H64   S    
C37   H25   S    
C23   C56   S    
C50   H63   S    
C34   H34   S    
C48   H59   S    
C3    C8    A    
C40   H36   S    
H30   N5    S    
C27   C56   T    
C48   H57   S    
C45   O7    S    
C3    C5    A    
C25   C26   S    
C53   C54   S    
C46   O6    S    
C35   H16   S    
C17   C21   A    
C57   H79   S    
C5    H56   S    
C25   N6    S    
C22   O15   A    
C7    C11   A    
C43   C44   S    
C39   H33   S    
C37   C38   S    
C12   H1    S    
C38   H29   S    
C58   H81   S    
C47   C48   S    
C12   C23   S    
C16   O14   A    
H20   N4    S    
C49   H60   S    
C4    C60   S    
C17   C18   A    
C41   H39   S    
C20   N1    A    
C53   H71   S    
C30   H5    S    
C34   C45   S    
C29   H4    S    
C22   O16   A    
C40   C41   S    
C22   C27   S    
N2    Zn2   S    
C39   O4    S    
C4    O11   A    
C49   O7    S    
C10   H45   S    
C10   C61   A    
C42   C43   S    
O10   Zn2   S    
C42   H40   S    
C39   C40   S    
C52   C53   S    
C44   H46   S    
O14   Zn2   S    
C15   C17   A    
C12   C24   S    
C46   C47   S    
C36   C37   S    
C46   H52   S    
C41   H37   S    
C51   H65   S    
C31   H7    S    
C37   H26   S    
C9    O17   S    
C50   H62   S    
C24   C28   S    
C21   H83   S    
H49   N6    S    
H50   N7    S    
C15   N2    A    
H21   N4    S    
C6    C7    A    
C36   H24   S    
H19   N3    S    
C14   N2    A    
C35   H17   S    
C55   H76   S    
C55   O9    S    
C51   H66   S    
C32   C33   S    
C55   C57   S    
H48   N6    S    
C52   H69   S    
O1    Zn1   S    
C54   H72   S    
C58   H80   S    
C11   N3    S    
C57   C58   S    
O11   Zn1   S    
C49   H61   S    
C33   C35   S    
C57   H77   S    
H18   N3    S    
C14   H2    S    
C43   H42   S    
C10   C11   A    
C32   O2    S    
C2    C5    A    
C33   H13   S    
C31   H8    S    
C20   C21   A    
O15   Zn1   S    
C49   C50   S    
C16   C61   S    
C38   H27   S    
H31   N5    S    
C24   H67   S    
C19   O3    S    
C48   H58   S    
C34   O9    S    
