data_mof_unit_40762.cif
_audit_creation_date              2012-12-11T15:43:14-0500
_audit_creation_method            fapswitch 2.2
_symmetry_space_group_name_H-M    P1
_symmetry_Int_Tables_number       1
_space_group_crystal_system       triclinic
_cell_length_a                    19.242224
_cell_length_b                    10.886586
_cell_length_c                    18.739245
_cell_angle_alpha                 89.973361
_cell_angle_beta                  90.042978
_cell_angle_gamma                 89.935762
_cell_volume                      3925.53289245

loop_
_atom_site_label
_atom_site_type_symbol
_atom_type_description
_atom_site_fract_x
_atom_site_fract_y
_atom_site_fract_z
_atom_type_partial_charge
C1    C     C_R   0.711093 0.327252 0.139119 0.573959
C2    C     C_R   0.994245 0.004695 0.036530 -0.161257
C3    C     C_R   0.755384 0.450208 0.568135 0.019025
C4    C     C_R   0.729919 0.381122 0.351340 0.555091
C5    C     C_R   0.272641 0.372856 0.645305 0.554651
C6    C     C_R   0.229918 0.881120 0.351340 0.555088
C7    C     C_R   0.772642 0.872855 0.645304 0.554638
C8    C     C_R   0.533192 0.156908 0.354282 0.536090
C9    C     C_R   0.468238 0.157713 0.646909 0.545762
C10   C     C_R   0.033191 0.656908 0.354282 0.536087
C11   C     C_R   0.968238 0.657713 0.646909 0.545768
C12   C     C_R   0.742340 0.969135 0.353267 0.546639
C13   C     C_R   0.505630 0.504633 0.963240 -0.161259
C14   C     C_R   0.259908 0.975694 0.643823 0.544224
C15   C     C_R   0.242340 0.469135 0.353268 0.546638
C16   C     C_R   0.759908 0.475693 0.643823 0.544240
C17   C     C_R   0.497220 0.166206 0.925349 0.009955
C18   C     C_R   0.502667 0.166321 0.074695 0.009871
C19   C     C_R   0.997200 0.666210 0.925358 0.010054
C20   C     C_R   0.002630 0.666325 0.074708 0.009810
C21   C     C_R   0.501787 0.280057 0.962156 0.022316
C22   C     C_R   0.498098 0.280119 0.037785 0.022163
C23   C     C_R   0.001746 0.780063 0.962169 0.022420
C24   C     C_R   0.494265 0.504697 0.036507 -0.161273
C25   C     C_R   0.998053 0.780121 0.037799 0.022180
C26   C     C_R   0.500167 0.056796 0.036435 -0.168817
C27   C     C_R   0.499666 0.056740 0.963712 -0.168994
C28   C     C_R   0.000118 0.556804 0.036447 -0.168820
C29   C     C_R   0.999640 0.556745 0.963723 -0.168996
C30   C     C_R   0.631115 0.913564 0.899816 0.048412
C31   C     C_R   0.595135 0.880110 0.837348 -0.053129
C32   C     C_R   0.591676 0.960567 0.779306 -0.054717
C33   C     C_R   0.621704 0.076966 0.783850 -0.091038
C34   C     C_R   0.655403 0.113056 0.846427 -0.107783
C35   C     C_R   0.780092 0.837107 0.938231 0.000194
C36   C     C_R   0.660424 0.032103 0.904181 -0.070780
C37   C     C_R   0.368600 0.914555 0.100352 0.048591
C38   C     C_R   0.404573 0.881474 0.162936 -0.052691
C39   C     C_R   0.407745 0.962153 0.220839 -0.056480
C40   C     C_R   0.377411 0.078394 0.216052 -0.093022
C41   C     C_R   0.343691 0.114086 0.153373 -0.107869
C42   C     C_R   0.338964 0.032927 0.095747 -0.070640
C43   C     C_R   0.131292 0.414541 0.899714 0.048466
C44   C     C_R   0.095361 0.381426 0.837153 -0.052701
C45   C     C_R   0.092051 0.462104 0.779204 -0.055110
C46   C     C_R   0.219949 0.836947 0.061769 0.000532
C47   C     C_R   0.122172 0.578399 0.783935 -0.091692
C48   C     C_R   0.155840 0.614135 0.846593 -0.107715
C49   C     C_R   0.160728 0.532957 0.904251 -0.070798
C50   C     C_R   0.868585 0.414522 0.100321 0.048578
C51   C     C_R   0.904564 0.381456 0.162903 -0.052720
C52   C     C_R   0.907738 0.462144 0.220802 -0.056486
C53   C     C_R   0.877395 0.578377 0.216015 -0.093027
C54   C     C_R   0.843665 0.614056 0.153339 -0.107841
C55   C     C_R   0.838941 0.532890 0.095715 -0.070635
C56   C     C_R   0.280060 0.337095 0.938227 0.000209
C57   C     C_R   0.719942 0.336931 0.061761 0.000540
C58   C     C_R   0.720023 0.797734 0.974201 0.018525
C59   C     C_R   0.280219 0.797941 0.025952 0.019119
C60   C     C_R   0.219893 0.298024 0.974128 0.018693
C61   C     C_R   0.288889 0.327334 0.860880 0.574031
C62   C     C_R   0.780201 0.297888 0.025938 0.019148
C63   C     C_R   0.709012 0.830075 0.045252 -0.005199
C64   C     C_R   0.291237 0.830203 0.954883 -0.005042
C65   C     C_R   0.208887 0.330331 0.045184 -0.005076
C66   C     C_R   0.791213 0.330120 0.954860 -0.004951
C67   C     C_R   0.822145 0.922399 0.049436 -0.163534
C68   C     C_R   0.177767 0.921604 0.950361 -0.164007
C69   C     C_R   0.322165 0.422068 0.049498 -0.163640
C70   C     C_R   0.677756 0.421558 0.950343 -0.163990
C71   C     C_R   0.832653 0.891873 0.978348 -0.161151
C72   C     C_R   0.211094 0.827252 0.139121 0.573948
C73   C     C_R   0.167246 0.891156 0.021486 -0.161540
C74   C     C_R   0.332677 0.391547 0.978404 -0.161275
C75   C     C_R   0.667248 0.391166 0.021479 -0.161557
C76   C     C_3   0.644631 0.815839 0.956212 -0.126449
C77   C     C_3   0.355516 0.816627 0.044053 -0.126414
C78   C     C_3   0.144555 0.316622 0.956065 -0.126502
C79   C     C_3   0.855499 0.316578 0.044031 -0.126448
C80   C     C_3   0.633683 0.854635 0.033423 -0.264389
C81   C     C_3   0.366453 0.855339 0.966816 -0.264513
C82   C     C_3   0.133613 0.355347 0.033290 -0.264286
C83   C     C_R   0.788893 0.827332 0.860880 0.574027
C84   C     C_3   0.866433 0.355260 0.966788 -0.264558
C85   C     C_R   0.757989 0.900463 0.082361 -0.004110
C86   C     C_R   0.242077 0.900152 0.917598 -0.004405
C87   C     C_R   0.257954 0.400415 0.082364 -0.004146
C88   C     C_R   0.742052 0.400056 0.917565 -0.004209
C89   C     C_R   0.531144 0.156122 0.146913 0.538029
C90   C     C_R   0.468817 0.156037 0.853109 0.537166
C91   C     C_R   0.031137 0.656123 0.146917 0.537978
C92   C     C_R   0.968817 0.656038 0.853111 0.537250
C93   C     C_R   0.501358 0.170371 0.577974 0.010325
C94   C     C_R   0.509512 0.393521 0.926167 -0.115165
C95   C     C_R   0.515103 0.162814 0.429110 0.019740
C96   C     C_R   0.001356 0.670371 0.577974 0.010323
C97   C     C_R   0.015100 0.662814 0.429109 0.019739
C98   C     C_R   0.531716 0.068842 0.544917 0.011661
C99   C     C_R   0.537280 0.065402 0.472031 0.052928
C100  C     C_R   0.031714 0.568842 0.544916 0.011622
C101  C     C_R   0.037277 0.565402 0.472030 0.052933
C102  C     C_R   0.494563 0.272306 0.462207 -0.176287
C103  C     C_R   0.488187 0.276377 0.536577 -0.162424
C104  C     C_R   0.994559 0.772304 0.462206 -0.176291
C105  C     C_R   0.490382 0.393643 0.073678 -0.115243
C106  C     C_R   0.988184 0.776376 0.536576 -0.162421
C107  C     C_3   0.515586 0.934273 0.548651 -0.275049
C108  C     C_3   0.519204 0.932410 0.468093 -0.264091
C109  C     C_3   0.015584 0.434273 0.548650 -0.275060
C110  C     C_3   0.019202 0.432409 0.468092 -0.264084
C111  C     C_R   0.763024 0.891352 0.569535 0.016612
C112  C     C_R   0.250219 0.934579 0.419108 0.014339
C113  C     C_R   0.263022 0.391356 0.569536 0.016607
C114  C     C_R   0.750221 0.434582 0.419107 0.014340
C115  C     C_R   0.818816 0.939556 0.531686 0.035383
C116  C     C_R   0.009480 0.893528 0.926186 -0.115114
C117  C     C_R   0.202126 0.006678 0.456630 0.026402
C118  C     C_R   0.318814 0.439562 0.531687 0.035383
C119  C     C_R   0.702132 0.506692 0.456628 0.026407
C120  C     C_R   0.816998 0.948896 0.458938 0.020962
C121  C     C_R   0.204863 0.013172 0.529507 0.041491
C122  C     C_R   0.316996 0.448902 0.458939 0.020961
C123  C     C_R   0.704866 0.513182 0.529505 0.041495
C124  C     C_R   0.708359 0.839304 0.456470 -0.153832
C125  C     C_R   0.310855 0.896598 0.530393 -0.162301
C126  C     C_R   0.208358 0.339307 0.456471 -0.153834
C127  C     C_R   0.990335 0.893640 0.073695 -0.115111
C128  C     C_R   0.810852 0.396588 0.530394 -0.162302
C129  C     C_R   0.710244 0.830975 0.531084 -0.152902
C130  C     C_R   0.309087 0.891440 0.455692 -0.173004
C131  C     C_R   0.210243 0.330979 0.531085 -0.152910
C132  C     C_R   0.809086 0.391433 0.455692 -0.173001
C133  C     C_3   0.855191 0.058962 0.541717 -0.278936
C134  C     C_3   0.124040 0.005954 0.457848 -0.267494
C135  C     C_3   0.355187 0.558969 0.541719 -0.278937
C136  C     C_3   0.624046 0.506001 0.457842 -0.267496
C137  C     C_R   0.741558 0.968285 0.147615 0.530534
C138  C     C_R   0.005619 0.004635 0.963264 -0.161318
C139  C     C_R   0.258455 0.968173 0.852381 0.532091
C140  C     C_R   0.241554 0.468277 0.147614 0.530486
C141  C     C_R   0.758447 0.468142 0.852369 0.532131
C142  C     C_3   0.853448 0.070621 0.461503 -0.269240
C143  C     C_3   0.127918 0.012054 0.538256 -0.279331
C144  C     C_3   0.353445 0.570629 0.461504 -0.269238
C145  C     C_3   0.627922 0.512090 0.538251 -0.279327
C146  C     C_R   0.758092 0.910811 0.420932 0.015442
C147  C     C_R   0.255385 0.950208 0.568136 0.019019
C148  C     C_R   0.258091 0.410815 0.420933 0.015443
Cr1   Cr    Cr6+3 0.772010 0.169670 0.250090 0.989341
Cr2   Cr    Cr6+3 0.383290 0.010760 0.749160 0.988330
Cr3   Cr    Cr6+3 0.116710 0.510760 0.250840 0.990884
Cr4   Cr    Cr6+3 0.883290 0.510760 0.749160 0.988329
Cr5   Cr    Cr6+3 0.227990 0.169670 0.749910 0.992765
Cr6   Cr    Cr6+3 0.272010 0.669670 0.250090 0.989338
Cr7   Cr    Cr6+3 0.727990 0.669670 0.749910 0.992814
Cr8   Cr    Cr6+3 0.615000 0.323260 0.249260 0.991866
Cr9   Cr    Cr6+3 0.385000 0.323260 0.750740 0.994033
Cr10  Cr    Cr6+3 0.115000 0.823260 0.249260 0.991880
Cr11  Cr    Cr6+3 0.885000 0.823260 0.750740 0.994025
Cr12  Cr    Cr6+3 0.616710 0.010760 0.250840 0.990875
H1    H     H_    0.502451 0.968281 0.062545 0.143692
H2    H     H_    0.468075 0.916533 0.442145 0.127224
H3    H     H_    0.057983 0.381310 0.574634 0.118235
H4    H     H_    0.968073 0.416531 0.442144 0.127229
H5    H     H_    0.665879 0.798293 0.427358 0.117968
H6    H     H_    0.353584 0.854386 0.558522 0.120070
H7    H     H_    0.165878 0.298295 0.427358 0.117974
H8    H     H_    0.853579 0.354366 0.558524 0.120070
H9    H     H_    0.669909 0.780929 0.558527 0.126151
H10   H     H_    0.349959 0.843545 0.427514 0.111453
H11   H     H_    0.169907 0.280931 0.558528 0.126158
H12   H     H_    0.497384 0.968214 0.937677 0.143721
H13   H     H_    0.849957 0.343532 0.427516 0.111456
H14   H     H_    0.908548 0.048201 0.563439 0.132459
H15   H     H_    0.101744 0.918246 0.438847 0.175657
H16   H     H_    0.408545 0.548208 0.563441 0.132455
H17   H     H_    0.601735 0.418308 0.438838 0.175653
H18   H     H_    0.822371 0.127989 0.569604 0.137826
H19   H     H_    0.101343 0.089949 0.433367 0.121616
H20   H     H_    0.322367 0.627996 0.569606 0.137825
H21   H     H_    0.601361 0.590011 0.433365 0.121602
H22   H     H_    0.819348 0.146443 0.443646 0.171774
H23   H     H_    0.002409 0.468292 0.062558 0.143720
H24   H     H_    0.107092 0.099142 0.560424 0.129774
H25   H     H_    0.319344 0.646450 0.443647 0.171774
H26   H     H_    0.607103 0.599181 0.560423 0.129756
H27   H     H_    0.905813 0.067400 0.436528 0.125286
H28   H     H_    0.109109 0.927324 0.565128 0.140239
H29   H     H_    0.405810 0.567409 0.436529 0.125286
H30   H     H_    0.609102 0.427363 0.565118 0.140249
H31   H     H_    0.520383 0.397916 0.869661 0.133003
H32   H     H_    0.479537 0.398129 0.130187 0.133321
H33   H     H_    0.020358 0.897928 0.869681 0.133019
H34   H     H_    0.997381 0.468216 0.937685 0.143608
H35   H     H_    0.979486 0.898116 0.130203 0.133324
H36   H     H_    0.861219 0.976759 0.075860 0.149126
H37   H     H_    0.138553 0.975585 0.923766 0.148959
H38   H     H_    0.361288 0.476232 0.075976 0.149135
H39   H     H_    0.638554 0.475574 0.923755 0.148863
H40   H     H_    0.119216 0.227111 0.944101 0.112786
H41   H     H_    0.880966 0.227103 0.056077 0.112589
H42   H     H_    0.619466 0.726142 0.944331 0.112923
H43   H     H_    0.380986 0.727150 0.056090 0.112666
H44   H     H_    0.622185 0.953374 0.041215 0.152214
H45   H     H_    0.963023 0.412900 0.568646 0.161389
H46   H     H_    0.377605 0.954152 0.958915 0.152084
H47   H     H_    0.122283 0.454141 0.041133 0.152209
H48   H     H_    0.877588 0.454069 0.958875 0.152110
H49   H     H_    0.600093 0.790366 0.063943 0.123629
H50   H     H_    0.400324 0.791251 0.936434 0.123580
H51   H     H_    0.099868 0.291228 0.063738 0.123565
H52   H     H_    0.900300 0.291157 0.936412 0.123533
H53   H     H_    0.481589 0.352676 0.430794 0.119414
H54   H     H_    0.467093 0.358458 0.560681 0.138743
H55   H     H_    0.981586 0.852676 0.430793 0.119420
H56   H     H_    0.061942 0.375309 0.447102 0.138077
H57   H     H_    0.967092 0.858457 0.560681 0.138745
H58   H     H_    0.010605 0.090773 0.934866 0.100848
H59   H     H_    0.989318 0.090879 0.064862 0.100845
H60   H     H_    0.510594 0.590770 0.934838 0.100847
H61   H     H_    0.489325 0.590882 0.064836 0.100853
H62   H     H_    0.878928 0.923239 0.952539 0.171410
H63   H     H_    0.120814 0.922136 0.047193 0.171319
H64   H     H_    0.379014 0.422687 0.952632 0.171423
H65   H     H_    0.620836 0.422213 0.047194 0.171307
H66   H     H_    0.572587 0.789424 0.832263 0.072732
H67   H     H_    0.463025 0.912900 0.568647 0.161366
H68   H     H_    0.565739 0.932480 0.730739 0.113810
H69   H     H_    0.618585 0.139369 0.738971 0.102131
H70   H     H_    0.678558 0.203191 0.849639 0.117000
H71   H     H_    0.688958 0.060546 0.951154 0.117196
H72   H     H_    0.427384 0.790930 0.168200 0.073154
H73   H     H_    0.433680 0.934348 0.269495 0.112740
H74   H     H_    0.380273 0.140969 0.260829 0.104449
H75   H     H_    0.320271 0.204054 0.150013 0.117209
H76   H     H_    0.310410 0.061076 0.048689 0.117096
H77   H     H_    0.072699 0.290853 0.831940 0.072887
H78   H     H_    0.561943 0.875308 0.447103 0.138074
H79   H     H_    0.066146 0.434279 0.730570 0.114200
H80   H     H_    0.119162 0.640995 0.739137 0.102181
H81   H     H_    0.179082 0.704164 0.849924 0.117203
H82   H     H_    0.189238 0.561141 0.951292 0.117166
H83   H     H_    0.927378 0.290913 0.168169 0.073158
H84   H     H_    0.933680 0.434350 0.269456 0.112751
H85   H     H_    0.880256 0.640956 0.260790 0.104448
H86   H     H_    0.820237 0.704019 0.149979 0.117211
H87   H     H_    0.810381 0.561028 0.048658 0.117076
H88   H     H_    0.557984 0.881308 0.574634 0.118228
O1    O     O_R   0.787520 0.042810 0.170440 -0.540510
O2    O     O_R   0.454050 0.051210 0.669140 -0.534182
O3    O     O_R   0.045950 0.551210 0.330860 -0.528766
O4    O     O_R   0.954050 0.551210 0.669140 -0.534218
O5    O     O_R   0.681390 0.959480 0.325510 -0.501811
O6    O     O_R   0.318610 0.959480 0.674490 -0.505976
O7    O     O_R   0.181390 0.459480 0.325510 -0.501808
O8    O     O_R   0.818610 0.459480 0.674490 -0.505965
O9    O     O_3   0.667900 0.167900 0.250060 -0.261848
O10   O     O_3   0.332100 0.167900 0.749940 -0.264362
O11   O     O_3   0.167900 0.667900 0.250060 -0.261855
O12   O     O_R   0.212480 0.042810 0.829560 -0.540197
O13   O     O_3   0.832100 0.667900 0.749940 -0.264363
O14   O     O_R   0.765640 0.292100 0.175020 -0.489185
O15   O     O_R   0.234360 0.292100 0.824980 -0.488409
O16   O     O_R   0.265640 0.792100 0.175020 -0.489187
O17   O     O_R   0.734360 0.792100 0.824980 -0.488266
O18   O     O_R   0.670190 0.408840 0.168540 -0.519252
O19   O     O_R   0.329810 0.408840 0.831460 -0.518419
O20   O     O_R   0.170190 0.908840 0.168540 -0.519220
O21   O     O_R   0.829810 0.908840 0.831460 -0.518546
O22   O     O_R   0.556620 0.251410 0.175160 -0.529430
O23   O     O_R   0.287520 0.542810 0.170440 -0.540477
O24   O     O_R   0.443380 0.251410 0.824840 -0.530321
O25   O     O_R   0.056620 0.751410 0.175160 -0.529425
O26   O     O_R   0.943380 0.751410 0.824840 -0.530288
O27   O     O_R   0.545960 0.049620 0.170320 -0.527151
O28   O     O_R   0.454040 0.049620 0.829680 -0.527352
O29   O     O_R   0.045960 0.549620 0.170320 -0.527154
O30   O     O_R   0.954040 0.549620 0.829680 -0.527450
O31   O     O_R   0.681390 0.958010 0.176690 -0.500194
O32   O     O_R   0.318610 0.958010 0.823310 -0.498804
O33   O     O_R   0.181390 0.458010 0.176690 -0.500176
O34   O     O_R   0.712480 0.542810 0.829560 -0.540227
O35   O     O_R   0.818610 0.458010 0.823310 -0.498816
O36   O     O_R   0.787510 0.044390 0.330970 -0.526303
O37   O     O_R   0.212490 0.044390 0.669030 -0.521168
O38   O     O_R   0.287510 0.544390 0.330970 -0.526306
O39   O     O_R   0.712490 0.544390 0.669030 -0.521172
O40   O     O_R   0.765630 0.293570 0.323840 -0.506450
O41   O     O_R   0.234370 0.293570 0.676160 -0.505490
O42   O     O_R   0.265630 0.793570 0.323840 -0.506452
O43   O     O_R   0.734370 0.793570 0.676160 -0.505475
O44   O     O_R   0.670190 0.410420 0.329080 -0.520217
O45   O     O_R   0.556610 0.252880 0.323980 -0.509721
O46   O     O_R   0.329810 0.410420 0.670920 -0.514473
O47   O     O_R   0.170190 0.910420 0.329080 -0.520215
O48   O     O_R   0.829810 0.910420 0.670920 -0.514485
O49   O     O_R   0.443390 0.252880 0.676020 -0.509322
O50   O     O_R   0.056610 0.752880 0.323980 -0.509724
O51   O     O_R   0.943390 0.752880 0.676020 -0.509307
O52   O     O_R   0.545950 0.051210 0.330860 -0.528769

loop_
_geom_bond_atom_site_label_1
_geom_bond_atom_site_label_2
_ccdc_geom_bond_type
Cr4   O13   S    
C120  C146  A    
C50   C79   S    
C131  H11   S    
C28   H23   S    
Cr2   O28   S    
Cr3   O33   S    
C95   C99   A    
Cr2   O6    S    
C144  H29   S    
C14   O37   A    
Cr10  O11   S    
C143  H28   S    
C37   C42   A    
C61   O19   A    
C134  C143  S    
C123  C145  S    
C79   H41   S    
C136  H21   S    
C121  C147  A    
C122  C148  A    
C134  H19   S    
C46   C72   S    
Cr4   O35   S    
C63   C80   S    
C113  C118  A    
C35   C71   A    
C100  C109  S    
C21   C22   A    
C63   C85   A    
C78   H40   S    
C3    C123  A    
C65   C87   A    
C45   C47   A    
C67   C85   A    
C51   C52   A    
C2    C138  A    
C83   O17   A    
C126  H7    S    
C109  H3    S    
C39   H73   S    
C73   H63   S    
C20   C28   A    
C101  C110  S    
Cr9   O24   S    
C17   C21   A    
Cr12  O5    S    
C110  H56   S    
C43   C44   A    
C37   C38   A    
C127  H35   S    
C30   C76   S    
C78   C82   S    
C102  H53   S    
C137  O1    A    
C139  O12   A    
C69   C74   A    
Cr12  O27   S    
Cr7   O17   S    
C12   O36   A    
C142  H22   S    
C60   C65   A    
Cr5   O37   S    
C5    C113  S    
C6    O47   A    
C18   C89   S    
C11   O51   A    
C119  C123  A    
C26   H1    S    
C119  C136  S    
C30   C36   A    
C13   C94   A    
C143  H24   S    
C5    O46   A    
C65   C82   S    
C30   C31   A    
C136  H17   S    
Cr12  O9    S    
C92   O30   A    
C141  O34   A    
Cr7   O13   S    
C106  H57   S    
Cr8   O18   S    
C98   C99   A    
C8    O45   A    
C89   O27   A    
C90   O28   A    
Cr9   O49   S    
C6    O42   A    
Cr11  O21   S    
C145  H30   S    
C87   C140  S    
C93   C103  A    
C58   C76   S    
C15   O7    A    
C24   H61   S    
C142  H27   S    
C60   C78   S    
C133  C142  S    
Cr8   O45   S    
C35   C58   A    
Cr10  O47   S    
C66   C88   A    
C38   C39   A    
C133  H18   S    
C72   O20   A    
C118  C122  A    
C19   C92   S    
Cr9   O10   S    
C107  H67   S    
C107  C108  S    
C114  C119  A    
C2    C127  A    
C8    C95   S    
Cr11  O51   S    
C33   H69   S    
Cr2   O2    S    
C144  H25   S    
C62   C66   A    
C89   O22   A    
C17   C27   A    
C107  H88   S    
C75   H65   S    
C61   O15   A    
C39   C40   A    
C3    C128  A    
C41   H75   S    
C124  C146  A    
C14   C147  S    
C68   H37   S    
C10   C97   S    
C45   H79   S    
C1    C57   S    
C84   H48   S    
C31   C32   A    
C14   O6    A    
C16   O39   A    
C109  H45   S    
C103  H54   S    
Cr1   O9    S    
C86   C139  S    
C69   H38   S    
C67   H36   S    
C88   C141  S    
Cr4   O4    S    
C52   C53   A    
Cr10  O25   S    
Cr8   O9    S    
C54   C55   A    
C137  O31   A    
C12   O5    A    
C18   C22   A    
C51   H83   S    
C76   C80   S    
C7    O48   A    
C95   C102  A    
C22   C105  A    
C11   O4    A    
C140  O23   A    
C135  H16   S    
C57   C75   A    
C9    O2    A    
C96   C100  A    
C100  C101  A    
Cr6   O38   S    
C34   C36   A    
C13   H60   S    
C102  C103  A    
Cr5   O15   S    
C64   C81   S    
Cr6   O16   S    
Cr6   O11   S    
C1    O14   A    
C31   H66   S    
C70   C75   A    
C112  C130  A    
C80   H44   S    
Cr7   O39   S    
C27   H12   S    
C46   C73   A    
C3    C16   S    
C81   H46   S    
C11   C96   S    
C41   C42   A    
C18   C26   A    
C104  C106  A    
C43   C78   S    
C26   C27   A    
C4    C114  S    
C28   C29   A    
C135  H20   S    
C112  C117  A    
Cr8   O22   S    
C20   C25   A    
C117  C134  S    
C74   H64   S    
Cr8   O44   S    
C91   O29   A    
C94   H31   S    
Cr10  O50   S    
C23   C116  A    
C7    O43   A    
C111  C129  A    
C1    O18   A    
C32   H68   S    
Cr5   O41   S    
C126  C148  A    
C9    O49   A    
C69   C87   A    
C81   H50   S    
C71   H62   S    
Cr5   O10   S    
C77   H43   S    
C64   C86   A    
Cr1   O1    S    
C20   C91   S    
C72   O16   A    
C56   C74   A    
C134  H15   S    
Cr3   O11   S    
C139  O32   A    
Cr11  O48   S    
C40   H74   S    
C125  C147  A    
C35   C83   S    
Cr3   O3    S    
C115  C133  S    
C53   C54   A    
C37   C77   S    
C98   C107  S    
C56   C60   A    
C4    O44   A    
C79   C84   S    
C99   C108  S    
C77   C81   S    
Cr11  O13   S    
C50   C51   A    
Cr4   O30   S    
C48   C49   A    
C108  H78   S    
C2    H59   S    
Cr1   O40   S    
Cr6   O23   S    
C19   C29   A    
C85   C137  S    
Cr1   O14   S    
C44   C45   A    
Cr4   O8    S    
C110  H4    S    
Cr11  O26   S    
C6    C112  S    
C17   C90   S    
C104  H55   S    
C38   H72   S    
C84   H52   S    
C32   C33   A    
C25   C127  A    
C109  C110  S    
C16   O8    A    
C15   C148  S    
C130  H10   S    
C36   H71   S    
C7    C111  S    
C124  C129  A    
C67   C71   A    
C54   H86   S    
Cr3   O29   S    
Cr2   O32   S    
C97   C104  A    
C56   C61   S    
Cr5   O12   S    
C118  C135  S    
C80   H49   S    
Cr9   O46   S    
C70   H39   S    
C46   C59   A    
C68   C86   A    
C121  C143  S    
C19   C23   A    
C122  C144  S    
C140  O33   A    
C70   C88   A    
C44   H77   S    
C59   C77   S    
C49   H82   S    
C57   C62   A    
C59   C64   A    
C4    O40   A    
C129  H9    S    
C52   H84   S    
C135  C144  S    
C76   H42   S    
C21   C94   A    
C29   H34   S    
C15   O38   A    
C10   O3    A    
C12   C146  S    
C83   O21   A    
C117  C121  A    
C141  O35   A    
C42   H76   S    
C125  C130  A    
C133  H14   S    
C136  C145  S    
C55   H87   S    
C105  H32   S    
C34   H70   S    
Cr12  O31   S    
C128  C132  A    
C82   H47   S    
C116  C138  A    
Cr9   O19   S    
Cr10  O20   S    
C8    O52   A    
C62   C79   S    
C91   O25   A    
C120  C142  S    
C43   C49   A    
C68   C73   A    
C108  H2    S    
Cr6   O42   S    
C124  H5    S    
C13   C24   A    
C10   O50   A    
C47   C48   A    
C33   C34   A    
C116  H33   S    
C40   C41   A    
C92   O26   A    
C9    C93   S    
Cr3   O7    S    
C82   H51   S    
C58   C63   A    
C96   C106  A    
C113  C131  A    
Cr7   O43   S    
C114  C132  A    
C90   O24   A    
C48   H81   S    
C5    O41   A    
C50   C55   A    
C145  H26   S    
Cr7   O34   S    
C125  H6    S    
Cr12  O52   S    
Cr2   O10   S    
C126  C131  A    
Cr1   O36   S    
C132  H13   S    
C23   C25   A    
C53   H85   S    
C66   C84   S    
C47   H80   S    
C138  H58   S    
C115  C120  A    
C128  H8    S    
C111  C115  A    
C24   C105  A    
C93   C98   A    
C97   C101  A    
