data_mof_unit_55804.cif
_audit_creation_date              2012-12-11T14:41:05-0500
_audit_creation_method            fapswitch 2.2
_symmetry_space_group_name_H-M    P1
_symmetry_Int_Tables_number       1
_space_group_crystal_system       triclinic
_cell_length_a                    24.97442
_cell_length_b                    17.961977
_cell_length_c                    15.505344
_cell_angle_alpha                 90.522758
_cell_angle_beta                  129.385442
_cell_angle_gamma                 89.40152
_cell_volume                      5375.58080365

loop_
_atom_site_label
_atom_site_type_symbol
_atom_type_description
_atom_site_fract_x
_atom_site_fract_y
_atom_site_fract_z
_atom_type_partial_charge
C1    C     C_R   0.342485 0.371230 0.228310 0.066095
C2    C     C_R   0.661336 0.659048 0.495241 0.063395
C3    C     C_R   0.149108 0.825035 0.493842 0.071721
C4    C     C_R   0.161334 0.159051 0.495240 0.063382
C5    C     C_R   0.329077 0.369275 0.509904 -0.247928
C6    C     C_R   0.321381 0.613203 0.508864 -0.240667
C7    C     C_R   0.829080 0.869269 0.509904 -0.247928
C8    C     C_R   0.821383 0.113207 0.508867 -0.240670
C9    C     C_3   0.332963 0.263510 0.624905 1.183771
C10   C     C_3   0.322520 0.722155 0.620872 1.162194
C11   C     C_3   0.832966 0.763505 0.624906 1.183832
C12   C     C_R   0.343141 0.631190 0.232358 0.056001
C13   C     C_3   0.822516 0.222146 0.620891 1.162133
C14   C     C_3   0.782434 0.709098 0.616581 -0.623010
C15   C     C_3   0.771024 0.275312 0.614681 -0.598750
C16   C     C_3   0.282432 0.209102 0.616580 -0.622958
C17   C     C_3   0.271029 0.775320 0.614672 -0.598483
C18   C     C_3   0.232204 0.356549 0.507746 0.472040
C19   C     C_3   0.223994 0.625784 0.511545 0.497771
C20   C     C_3   0.732207 0.856545 0.507746 0.472052
C21   C     C_3   0.723987 0.125783 0.511524 0.497827
C22   C     C_3   0.256049 0.262226 0.413308 0.519937
C23   C     C_R   0.842484 0.871231 0.228308 0.066100
C24   C     C_3   0.241896 0.716339 0.409444 0.495698
C25   C     C_3   0.756052 0.762220 0.413309 0.519983
C26   C     C_3   0.741910 0.216351 0.409461 0.495856
C27   C     C_3   0.289563 0.313484 0.516077 -0.460305
C28   C     C_3   0.279557 0.668467 0.514931 -0.455698
C29   C     C_3   0.789566 0.813479 0.516077 -0.460350
C30   C     C_3   0.779559 0.168469 0.514936 -0.455752
C31   C     C_3   0.706620 0.718229 0.503908 -0.225730
C32   C     C_3   0.694969 0.263713 0.504531 -0.241211
C33   C     C_3   0.206618 0.218233 0.503908 -0.225753
C34   C     C_R   0.843134 0.131180 0.232339 0.056065
C35   C     C_3   0.194970 0.763715 0.504531 -0.241391
C36   C     C_3   0.679997 0.801871 0.497147 0.610321
C37   C     C_3   0.670508 0.180976 0.500694 0.593721
C38   C     C_3   0.179994 0.301874 0.497147 0.610283
C39   C     C_3   0.170514 0.680979 0.500710 0.593801
C40   C     C_R   0.664790 0.385687 0.794426 0.387807
C41   C     C_R   0.656290 0.629292 0.779448 0.450954
C42   C     C_R   0.164791 0.885690 0.794428 0.387769
C43   C     C_R   0.156292 0.129289 0.779454 0.450915
C44   C     C_3   0.715315 0.702637 0.415132 -0.462141
C45   C     C_R   0.641179 0.355266 0.846197 -0.241883
C46   C     C_3   0.700247 0.274606 0.411921 -0.464776
C47   C     C_3   0.215312 0.202642 0.415132 -0.462127
C48   C     C_3   0.200238 0.774598 0.411910 -0.464780
C49   C     C_2   0.679746 0.299032 0.933005 -0.011741
C50   C     C_2   0.652730 0.727600 0.894080 0.117508
C51   C     C_2   0.179751 0.799043 0.933019 -0.011788
C52   C     C_2   0.152737 0.227591 0.894094 0.117504
C53   C     C_2   0.705183 0.242268 0.912247 -0.196833
C54   C     C_2   0.686601 0.782079 0.889301 -0.214197
C55   C     C_2   0.205192 0.742279 0.912269 -0.196824
C56   C     C_R   0.623623 0.667191 0.813713 -0.288528
C57   C     C_2   0.186603 0.282072 0.889309 -0.214112
C58   C     C_2   0.319853 0.715889 0.088146 -0.259374
C59   C     C_2   0.300833 0.320697 0.046246 -0.219055
C60   C     C_2   0.819845 0.215875 0.088122 -0.259325
C61   C     C_2   0.800830 0.820703 0.046240 -0.219022
C62   C     C_2   0.257060 0.690950 0.997580 0.517672
C63   C     C_2   0.231147 0.329942 0.985599 0.398179
C64   C     C_2   0.757053 0.190937 0.997553 0.517613
C65   C     C_2   0.731144 0.829947 0.985595 0.398164
C66   C     C_R   0.598859 0.370380 0.402361 0.473604
C67   C     C_R   0.141180 0.855272 0.846203 -0.241868
C68   C     C_R   0.602170 0.623101 0.401274 0.462249
C69   C     C_R   0.098860 0.870381 0.402361 0.473655
C70   C     C_R   0.102169 0.123102 0.401274 0.462270
C71   C     C_R   0.392378 0.394367 0.597811 0.911297
C72   C     C_R   0.387953 0.595790 0.596387 0.907187
C73   C     C_R   0.892379 0.894363 0.597811 0.911317
C74   C     C_R   0.887956 0.095794 0.596389 0.907036
C75   C     C_R   0.662680 0.359102 0.586653 -0.064088
C76   C     C_R   0.676237 0.625401 0.588956 -0.060358
C77   C     C_R   0.162682 0.859102 0.586654 -0.064026
C78   C     C_R   0.123628 0.167184 0.813726 -0.288481
C79   C     C_R   0.176235 0.125404 0.588955 -0.060290
C80   C     C_R   0.316480 0.393024 0.413400 0.661997
C81   C     C_R   0.313377 0.596777 0.413464 0.679729
C82   C     C_R   0.816481 0.893020 0.413400 0.662004
C83   C     C_R   0.813377 0.096780 0.413465 0.679670
C84   C     C_R   0.574240 0.381223 0.792041 0.817940
C85   C     C_R   0.563251 0.631134 0.771000 0.802530
C86   C     C_R   0.074242 0.881227 0.792045 0.817925
C87   C     C_R   0.063255 0.131129 0.771010 0.802509
C88   C     C_R   0.419646 0.377769 0.202327 0.091355
C89   C     C_R   0.649107 0.325033 0.493841 0.071718
C90   C     C_R   0.431282 0.640633 0.231492 0.117420
C91   C     C_R   0.919645 0.877772 0.202324 0.091354
C92   C     C_R   0.931278 0.140627 0.231480 0.117422
C93   C     C_R   0.354648 0.349777 0.158987 0.009237
C94   C     C_R   0.366206 0.669492 0.187223 0.018454
C95   C     C_R   0.854647 0.849780 0.158983 0.009239
C96   C     C_R   0.866198 0.169480 0.187200 0.018527
F1    F     F_    0.262088 0.405114 0.597516 -0.480420
F2    F     F_    0.410029 0.573478 0.697548 -0.491467
F3    F     F_    0.912961 0.912356 0.699713 -0.484575
F4    F     F_    0.910032 0.073482 0.697550 -0.491453
F5    F     F_    0.253527 0.405730 0.313081 -0.622600
F6    F     F_    0.252765 0.579952 0.311822 -0.631613
F7    F     F_    0.753527 0.905725 0.313082 -0.622599
F8    F     F_    0.752765 0.079956 0.311824 -0.631624
F9    F     F_    0.537573 0.371894 0.827900 -0.558194
F10   F     F_    0.523061 0.643991 0.799975 -0.569257
F11   F     F_    0.037576 0.871902 0.827908 -0.558197
F12   F     F_    0.256867 0.580280 0.604523 -0.470217
F13   F     F_    0.023070 0.143979 0.799996 -0.569244
F14   F     F_    0.360742 0.307222 0.718583 -0.529078
F15   F     F_    0.354988 0.680685 0.717400 -0.530108
F16   F     F_    0.860744 0.807218 0.718584 -0.529081
F17   F     F_    0.854969 0.180661 0.717405 -0.530054
F18   F     F_    0.762091 0.905111 0.597515 -0.480399
F19   F     F_    0.756850 0.080266 0.604487 -0.470205
F20   F     F_    0.304304 0.230586 0.406799 -0.593011
F21   F     F_    0.286679 0.749325 0.396986 -0.599545
F22   F     F_    0.804307 0.730580 0.406800 -0.592970
F23   F     F_    0.786705 0.249341 0.397031 -0.599080
F24   F     F_    0.412960 0.412360 0.699713 -0.484581
H1    H     H_    0.298601 0.358913 0.223045 0.207521
H2    H     H_    0.276450 0.768619 0.690350 0.269322
H3    H     H_    0.785736 0.717636 0.690170 0.275801
H4    H     H_    0.776440 0.268613 0.690355 0.269367
H5    H     H_    0.719635 0.794704 0.335482 0.192155
H6    H     H_    0.706007 0.181174 0.334178 0.191574
H7    H     H_    0.219633 0.294710 0.335482 0.192164
H8    H     H_    0.205989 0.681154 0.334173 0.191663
H9    H     H_    0.738962 0.646780 0.427494 0.287863
H10   H     H_    0.723320 0.329798 0.422258 0.303568
H11   H     H_    0.238959 0.146785 0.427493 0.287870
H12   H     H_    0.293349 0.636298 0.212860 0.197173
H13   H     H_    0.223312 0.829788 0.422238 0.303551
H14   H     H_    0.667661 0.704378 0.332280 0.269796
H15   H     H_    0.650364 0.267825 0.331352 0.278109
H16   H     H_    0.167658 0.204383 0.332280 0.269797
H17   H     H_    0.150353 0.767814 0.331346 0.278133
H18   H     H_    0.204936 0.393459 0.433410 0.142912
H19   H     H_    0.196417 0.587063 0.438854 0.134088
H20   H     H_    0.704939 0.893454 0.433409 0.142924
H21   H     H_    0.696411 0.087072 0.438821 0.134100
H22   H     H_    0.687777 0.233583 0.828497 0.218099
H23   H     H_    0.798601 0.858914 0.223044 0.207521
H24   H     H_    0.687877 0.785770 0.820969 0.223841
H25   H     H_    0.187787 0.733590 0.828521 0.218099
H26   H     H_    0.187874 0.285764 0.820972 0.223830
H27   H     H_    0.333733 0.773882 0.093982 0.203026
H28   H     H_    0.319745 0.286436 0.012573 0.210550
H29   H     H_    0.833722 0.273870 0.093960 0.203037
H30   H     H_    0.819742 0.786445 0.012563 0.210542
H31   H     H_    0.691588 0.306352 0.013110 0.187327
H32   H     H_    0.649984 0.724760 0.961123 0.201726
H33   H     H_    0.191589 0.806366 0.013121 0.187304
H34   H     H_    0.793340 0.136282 0.212833 0.197157
H35   H     H_    0.149996 0.224749 0.961142 0.201714
H36   H     H_    0.695150 0.335801 0.668140 0.202747
H37   H     H_    0.721279 0.632717 0.672782 0.212984
H38   H     H_    0.195153 0.835802 0.668141 0.202735
H39   H     H_    0.221275 0.132723 0.672782 0.212986
H40   H     H_    0.436590 0.371418 0.155075 0.199415
H41   H     H_    0.461414 0.667426 0.214757 0.208290
H42   H     H_    0.936586 0.871424 0.155069 0.199414
H43   H     H_    0.961410 0.167423 0.214747 0.208283
H44   H     H_    0.418634 0.102281 0.604452 0.395161
H45   H     H_    0.799371 0.650253 0.624903 0.235561
H46   H     H_    0.395853 0.887838 0.587535 0.400877
H47   H     H_    0.918637 0.602275 0.604459 0.395096
H48   H     H_    0.895964 0.388437 0.589279 0.400418
H49   H     H_    0.636825 0.913523 0.648580 0.377174
H50   H     H_    0.596243 0.077921 0.589718 0.378441
H51   H     H_    0.136824 0.413527 0.648582 0.377180
H52   H     H_    0.096391 0.577909 0.590128 0.378411
H53   H     H_    0.840782 0.449149 0.014942 0.404089
H54   H     H_    0.831614 0.628554 0.044477 0.392846
H55   H     H_    0.340777 0.949187 0.014908 0.404106
H56   H     H_    0.785224 0.334603 0.620259 0.241418
H57   H     H_    0.331620 0.128539 0.044476 0.392842
H58   H     H_    0.551524 0.846209 0.195965 0.424128
H59   H     H_    0.535059 0.143675 0.195979 0.421196
H60   H     H_    0.051521 0.346212 0.195964 0.424114
H61   H     H_    0.035056 0.643657 0.196000 0.421177
H62   H     H_    0.137119 0.597251 0.796832 0.353728
H63   H     H_    0.126231 0.444204 0.855916 0.363467
H64   H     H_    0.637134 0.097235 0.796777 0.353798
H65   H     H_    0.626226 0.944206 0.855919 0.363460
H66   H     H_    0.503520 0.438075 0.115387 0.420489
H67   H     H_    0.299369 0.150257 0.624902 0.235624
H68   H     H_    0.482410 0.579611 0.094456 0.422150
H69   H     H_    0.003519 0.938076 0.115389 0.420488
H70   H     H_    0.982414 0.079611 0.094455 0.422151
H71   H     H_    0.285228 0.834611 0.620244 0.241723
H72   H     H_    0.285734 0.217640 0.690170 0.275795
N1    N     N_R   0.389430 0.421450 0.294590 -0.076073
N2    N     N_R   0.581780 0.577610 0.443390 -0.118191
N3    N     N_R   0.081780 0.922390 0.443390 -0.115976
N4    N     N_R   0.081780 0.077610 0.443390 -0.118190
N5    N     N_R   0.419850 0.423100 0.556610 -0.210640
N6    N     N_R   0.419850 0.576900 0.556610 -0.203707
N7    N     N_R   0.919850 0.923100 0.556610 -0.210636
N8    N     N_R   0.919850 0.076900 0.556610 -0.203719
N9    N     N_R   0.627410 0.423100 0.556610 -0.081352
N10   N     N_R   0.627410 0.576900 0.556610 -0.088492
N11   N     N_R   0.127410 0.923100 0.556610 -0.081348
N12   N     N_R   0.389430 0.578550 0.294590 -0.071111
N13   N     N_R   0.127410 0.076900 0.556610 -0.088489
N14   N     N_R   0.374220 0.422390 0.443390 -0.176257
N15   N     N_R   0.374220 0.577610 0.443390 -0.172688
N16   N     N_R   0.874220 0.922390 0.443390 -0.176254
N17   N     N_R   0.874220 0.077610 0.443390 -0.172672
N18   N     N_R   0.555000 0.424040 0.705410 -0.173212
N19   N     N_R   0.555000 0.575960 0.705410 -0.174297
N20   N     N_R   0.055000 0.924040 0.705410 -0.173212
N21   N     N_R   0.055000 0.075960 0.705410 -0.174303
N22   N     N_R   0.446630 0.421450 0.294590 -0.067263
N23   N     N_R   0.889430 0.921450 0.294590 -0.076080
N24   N     N_R   0.446630 0.578550 0.294590 -0.059917
N25   N     N_R   0.946630 0.921450 0.294590 -0.067267
N26   N     N_R   0.946630 0.078550 0.294590 -0.059930
N27   N     N_R   0.889430 0.078550 0.294590 -0.071131
N28   N     N_R   0.612200 0.424040 0.705410 -0.152061
N29   N     N_R   0.612200 0.575960 0.705410 -0.149683
N30   N     N_R   0.112200 0.924040 0.705410 -0.152066
N31   N     N_R   0.112200 0.075960 0.705410 -0.149685
N32   N     N_R   0.581780 0.422390 0.443390 -0.115971
Ni1   Ni    Ni4+2 0.382890 0.500000 0.370170 0.345666
Ni2   Ni    Ni4+2 0.882890 0.000000 0.370170 0.345671
Ni3   Ni    Ni4+2 0.618740 0.500000 0.629830 0.320044
Ni4   Ni    Ni4+2 0.118740 0.000000 0.629830 0.320080
Ni5   Ni    Ni4+2 0.514090 0.500000 0.370170 0.360879
Ni6   Ni    Ni4+2 0.014090 0.000000 0.370170 0.360889
Ni7   Ni    Ni4+2 0.487550 0.500000 0.629830 0.347522
Ni8   Ni    Ni4+2 0.987550 0.000000 0.629830 0.347530
O1    O     O_2   0.442271 0.252397 0.620690 -0.290501
O2    O     O_2   0.942916 0.297493 0.759574 -0.152252
O3    O     O_2   0.924626 0.239360 0.599969 -0.287957
O4    O     O_3   0.855534 0.358498 0.565646 -0.501983
O5    O     O_2   0.625724 0.767306 0.600149 -0.329485
O6    O     O_2   0.742699 0.820089 0.720635 -0.191232
O7    O     O_3   0.640475 0.907842 0.588850 -0.357726
O8    O     O_2   0.733309 0.171935 0.725673 -0.177043
O9    O     O_2   0.612723 0.214684 0.598817 -0.340130
O10   O     O_3   0.639623 0.074654 0.600071 -0.354461
O11   O     O_2   0.125719 0.267310 0.600145 -0.329402
O12   O     O_2   0.454937 0.191907 0.773066 -0.176838
O13   O     O_2   0.242696 0.320089 0.720635 -0.191264
O14   O     O_3   0.140474 0.407846 0.588851 -0.357670
O15   O     O_2   0.233316 0.671956 0.725693 -0.177160
O16   O     O_2   0.112722 0.714686 0.598819 -0.340081
O17   O     O_3   0.139644 0.574658 0.600101 -0.354399
O18   O     O_2   0.791006 0.322958 0.894136 -0.295334
O19   O     O_2   0.764725 0.434501 0.787206 -0.251095
O20   O     O_3   0.790794 0.447781 0.978159 -0.443328
O21   O     O_2   0.774886 0.565045 0.839567 -0.211215
O22   O     O_2   0.773821 0.698844 0.853158 -0.311627
O23   O     O_3   0.376165 0.129959 0.578022 -0.496505
O24   O     O_3   0.781154 0.620771 0.999727 -0.485084
O25   O     O_2   0.291009 0.822961 0.894139 -0.295278
O26   O     O_2   0.264725 0.934502 0.787204 -0.251001
O27   O     O_3   0.290795 0.947785 0.978158 -0.443388
O28   O     O_2   0.274887 0.065046 0.839559 -0.211204
O29   O     O_2   0.273822 0.198844 0.853163 -0.311621
O30   O     O_3   0.281160 0.120761 0.999729 -0.485127
O31   O     O_2   0.541373 0.771052 0.343469 -0.290466
O32   O     O_2   0.574051 0.901423 0.373205 -0.167339
O33   O     O_3   0.596699 0.824672 0.259613 -0.524594
O34   O     O_2   0.442936 0.797514 0.759494 -0.151242
O35   O     O_2   0.561004 0.085927 0.378079 -0.185742
O36   O     O_2   0.532948 0.218385 0.348181 -0.264120
O37   O     O_3   0.583391 0.156290 0.260891 -0.541036
O38   O     O_2   0.041371 0.271052 0.343468 -0.290407
O39   O     O_2   0.074046 0.401425 0.373205 -0.167277
O40   O     O_3   0.096697 0.324677 0.259613 -0.524617
O41   O     O_2   0.061007 0.585929 0.378121 -0.185463
O42   O     O_2   0.032953 0.718387 0.348195 -0.264094
O43   O     O_3   0.083390 0.656268 0.260910 -0.541099
O44   O     O_2   0.292355 0.544590 0.032580 -0.230846
O45   O     O_2   0.424585 0.739339 0.599857 -0.289084
O46   O     O_2   0.186209 0.585213 0.000279 -0.218438
O47   O     O_3   0.184643 0.579644 0.831780 -0.445987
O48   O     O_2   0.168108 0.343298 0.074810 -0.191867
O49   O     O_2   0.227161 0.454468 0.084880 -0.175533
O50   O     O_3   0.111770 0.417519 0.893727 -0.418732
O51   O     O_2   0.792351 0.044577 0.032566 -0.230886
O52   O     O_2   0.686186 0.085195 0.000207 -0.218442
O53   O     O_3   0.684661 0.079629 0.831748 -0.445746
O54   O     O_2   0.668109 0.843297 0.074813 -0.191856
O55   O     O_2   0.727160 0.954469 0.084886 -0.175553
O56   O     O_3   0.355519 0.858500 0.565595 -0.502363
O57   O     O_3   0.611768 0.917522 0.893734 -0.418543
O58   O     O_2   0.634351 0.396315 0.270308 -0.224068
O59   O     O_2   0.540554 0.306735 0.200180 -0.261381
O60   O     O_3   0.517699 0.444483 0.190995 -0.491529
O61   O     O_2   0.556892 0.689027 0.205047 -0.242878
O62   O     O_2   0.625180 0.573939 0.261181 -0.207748
O63   O     O_3   0.496069 0.570976 0.169176 -0.509016
O64   O     O_2   0.134348 0.896309 0.270301 -0.224119
O65   O     O_2   0.040547 0.806734 0.200179 -0.261405
O66   O     O_3   0.017700 0.944484 0.190997 -0.491527
O67   O     O_2   0.942275 0.752393 0.620695 -0.290462
O68   O     O_2   0.056891 0.189030 0.205048 -0.242887
O69   O     O_2   0.125182 0.073944 0.261182 -0.207768
O70   O     O_3   0.996072 0.070976 0.169173 -0.509018
O71   O     O_2   0.954939 0.691901 0.773068 -0.176941
O72   O     O_3   0.876168 0.629954 0.578024 -0.496624
S1    S     S_3+6 0.404626 0.210259 0.650837 0.066155
S2    S     S_3+6 0.748287 0.628050 0.866075 -0.017561
S3    S     S_3+6 0.254523 0.896917 0.861730 0.001535
S4    S     S_3+6 0.248290 0.128047 0.866076 -0.017575
S5    S     S_3+6 0.594928 0.824233 0.366198 0.017427
S6    S     S_3+6 0.584178 0.160580 0.370068 0.004416
S7    S     S_3+6 0.094925 0.324235 0.366197 0.017464
S8    S     S_3+6 0.084181 0.660575 0.370091 0.004532
S9    S     S_3+6 0.231372 0.596988 0.968919 0.044398
S10   S     S_3+6 0.186085 0.388060 0.014963 0.082527
S11   S     S_3+6 0.731367 0.096973 0.968883 0.044397
S12   S     S_3+6 0.389366 0.778537 0.637818 0.073230
S13   S     S_3+6 0.686084 0.888061 0.014966 0.082566
S14   S     S_3+6 0.573985 0.377516 0.265390 -0.014285
S15   S     S_3+6 0.571483 0.614583 0.259179 -0.001855
S16   S     S_3+6 0.073983 0.877514 0.265389 -0.014293
S17   S     S_3+6 0.071483 0.114585 0.259179 -0.001856
S18   S     S_3+6 0.904629 0.710255 0.650840 0.066085
S19   S     S_3+6 0.889371 0.278534 0.637878 0.073327
S20   S     S_3+6 0.673207 0.821867 0.606180 0.086090
S21   S     S_3+6 0.664925 0.163135 0.610800 0.089121
S22   S     S_3+6 0.173204 0.321869 0.606179 0.086130
S23   S     S_3+6 0.164934 0.663143 0.610820 0.089124
S24   S     S_3+6 0.754522 0.396915 0.861730 0.001507

loop_
_geom_bond_atom_site_label_1
_geom_bond_atom_site_label_2
_ccdc_geom_bond_type
H63   O50   S    
C7    C29   S    
C47   H16   S    
C10   S12   S    
O46   S9    D    
C90   N24   A    
H58   O33   S    
C15   C32   S    
C7    C73   A    
C54   C65   S    
C23   N23   A    
C17   H71   S    
O4    S19   S    
O28   S4    D    
C34   C96   A    
N20   Ni8   S    
C53   C64   S    
C55   H25   S    
N3    N11   A    
C55   C62   S    
O58   S14   D    
C26   H6    S    
O17   S23   S    
C40   S24   S    
O53   S11   S    
O10   S21   S    
N18   Ni7   S    
O29   S4    D    
C81   N15   A    
C19   F12   S    
C22   C47   S    
C40   N28   A    
C23   H23   S    
N5    N14   A    
C66   C89   A    
H53   O20   S    
C25   C29   S    
C49   H31   S    
C13   C30   S    
H65   O57   S    
C31   C44   S    
O27   S3    S    
C34   N27   A    
C74   F4    S    
H51   O14   S    
N28   Ni3   S    
C47   H11   S    
C52   H35   S    
C91   N25   A    
C1    N1    A    
C38   S22   S    
C41   C56   A    
C8    C74   A    
C84   F9    S    
C10   F15   S    
O50   S10   S    
C83   N17   A    
O45   S12   D    
O15   S23   D    
N4    Ni6   S    
C22   C27   S    
C33   C47   S    
H44   O23   S    
O33   S5    S    
N17   Ni2   S    
C3    C77   A    
C9    F14   S    
N9    Ni3   S    
C12   H12   S    
C11   F16   S    
C58   H27   S    
N8    N17   A    
O1    S1    D    
O63   S15   S    
N29   Ni3   S    
C59   C63   D    
C33   C38   S    
O64   S16   D    
C42   S3    S    
C60   C64   D    
N23   Ni2   S    
C18   C38   S    
N1    Ni1   S    
N32   Ni5   S    
C22   H7    S    
C49   C53   D    
C23   C95   A    
C51   C55   D    
C88   H40   S    
O26   S3    D    
O23   S1    S    
C61   C65   D    
C17   H2    S    
C1    C93   A    
H62   O47   S    
C31   C36   S    
N8    Ni8   S    
O18   S24   D    
O44   S9    D    
N22   Ni5   S    
C19   H19   S    
C78   C87   A    
C80   N14   A    
H64   O53   S    
C8    C83   A    
C14   C31   S    
H66   O60   S    
C82   N16   A    
N20   N30   A    
C2    C68   A    
C62   S9    S    
N19   N29   A    
H52   O17   S    
C69   N3    A    
N13   Ni4   S    
C53   H22   S    
N16   Ni2   S    
C5    C27   S    
C6    C28   S    
C91   H42   S    
O42   S8    D    
C22   F20   S    
C6    C81   A    
C85   N19   A    
O61   S15   D    
C57   C63   S    
C44   H14   S    
C76   H37   S    
C15   H4    S    
C24   C48   S    
O70   S17   S    
N6    Ni7   S    
H69   O66   S    
C79   N13   A    
C50   C56   S    
C5    C80   A    
C43   N31   A    
N25   Ni6   S    
C3    C35   S    
N24   Ni5   S    
C21   C37   S    
C51   C67   S    
C32   C37   S    
C19   C28   S    
N21   Ni8   S    
C70   S17   S    
C92   H43   S    
H54   O24   S    
C26   C30   S    
C42   C67   A    
C64   S11   S    
O49   S10   D    
O31   S5    D    
C85   F10   S    
H61   O43   S    
O37   S6    S    
O52   S11   D    
C4    C33   S    
C51   H33   S    
C36   S5    S    
N6    N15   A    
C32   C46   S    
C24   C28   S    
C46   H10   S    
N12   N24   A    
N12   Ni1   S    
O40   S7    S    
H46   O56   S    
O51   S11   D    
O12   S1    D    
O6    S20   D    
N7    N16   A    
O22   S2    D    
O59   S14   D    
C12   N12   A    
N27   Ni2   S    
C1    H1    S    
C75   C89   A    
C91   C95   A    
C20   C29   S    
C70   N4    A    
O54   S13   D    
C24   H8    S    
C68   N2    A    
O30   S4    S    
C42   N30   A    
C58   C62   D    
C54   H24   S    
C21   F19   S    
C25   F22   S    
C4    C70   A    
C75   N9    A    
C43   C78   A    
C6    C72   A    
C24   F21   S    
C50   C54   D    
N19   Ni7   S    
C15   H56   S    
C37   S6    S    
C86   N20   A    
C79   H39   S    
C84   N18   A    
O24   S2    S    
N2    N10   A    
C52   C78   S    
C13   S19   S    
C18   H18   S    
C25   H5    S    
N26   Ni6   S    
C46   H15   S    
O48   S10   D    
C86   F11   S    
C36   S20   S    
C18   F1    S    
O20   S24   S    
C77   H38   S    
C34   H34   S    
O38   S7    D    
C57   H26   S    
N2    Ni5   S    
C12   C94   A    
O60   S14   S    
C35   C48   S    
C77   N11   A    
N11   Ni4   S    
C65   S13   S    
C90   C94   A    
N5    Ni7   S    
C40   C45   A    
C44   H9    S    
N3    Ni6   S    
O39   S7    D    
C35   C39   S    
N7    Ni8   S    
C37   S21   S    
C32   C89   S    
N30   Ni4   S    
N14   Ni1   S    
O3    S19   D    
C92   N26   A    
O25   S3    D    
H60   O40   S    
C71   F24   S    
H59   O37   S    
C43   S4    S    
O14   S22   S    
O66   S16   S    
O8    S21   D    
C2    C76   A    
C9    C27   S    
C10   C28   S    
O47   S9    S    
C67   C86   A    
C38   S7    S    
C16   H67   S    
C61   C95   S    
O2    S19   D    
C87   F13   S    
C21   C30   S    
O7    S20   S    
C8    C30   S    
C20   H20   S    
C21   H21   S    
C5    C71   A    
C20   F18   S    
N21   N31   A    
C56   C85   A    
O67   S18   D    
C52   C57   D    
C26   C46   S    
C72   N6    A    
C20   C36   S    
C50   H32   S    
O19   S24   D    
C9    S1    S    
O57   S13   S    
H49   O7    S    
O21   S2    D    
C17   C35   S    
O72   S18   S    
C41   N29   A    
O13   S22   D    
O43   S8    S    
O55   S13   D    
O34   S12   D    
C39   S8    S    
C92   C96   A    
H57   O30   S    
N1    N22   A    
C72   F2    S    
C88   N22   A    
C48   H17   S    
O5    S20   D    
C69   S16   S    
C3    C69   A    
C9    C16   S    
N23   N25   A    
C11   C14   S    
C76   N10   A    
C10   C17   S    
H70   O70   S    
N18   N28   A    
N4    N13   A    
C16   H72   S    
C75   H36   S    
N15   Ni1   S    
H47   O72   S    
C82   F7    S    
C45   C49   S    
C61   H30   S    
O71   S18   D    
H48   O4    S    
C59   H28   S    
O68   S17   D    
C25   C44   S    
C71   N5    A    
C81   F6    S    
C83   F8    S    
C90   H41   S    
C48   H13   S    
C26   F23   S    
C4    C79   A    
C66   N32   A    
C39   S23   S    
N31   Ni4   S    
C2    C31   S    
C16   C33   S    
C87   N21   A    
C14   H45   S    
O41   S8    D    
O35   S6    D    
C19   C39   S    
C66   S14   S    
C13   C15   S    
O69   S17   D    
C45   C84   A    
O56   S12   S    
C60   C96   S    
O16   S23   D    
O62   S15   D    
C73   F3    S    
C88   C93   A    
C14   H3    S    
C68   S15   S    
H50   O10   S    
C18   C27   S    
C74   N8    A    
O32   S5    D    
N10   Ni3   S    
O65   S16   D    
C11   S18   S    
C80   F5    S    
C63   S10   S    
C58   C94   S    
N26   N27   A    
C73   N7    A    
C60   H29   S    
O11   S22   D    
C13   F17   S    
H68   O63   S    
C7    C82   A    
C11   C29   S    
O9    S21   D    
C41   S2    S    
C59   C93   S    
N9    N32   A    
O36   S6    D    
H55   O27   S    
