data_mof_unit_20958.cif
_audit_creation_date              2012-12-11T15:06:36-0500
_audit_creation_method            fapswitch 2.2
_symmetry_space_group_name_H-M    P1
_symmetry_Int_Tables_number       1
_space_group_crystal_system       monoclinic
_cell_length_a                    7.225342
_cell_length_b                    15.30401
_cell_length_c                    22.312901
_cell_angle_alpha                 90.0
_cell_angle_beta                  90.000028
_cell_angle_gamma                 90.0
_cell_volume                      2467.28709882

loop_
_atom_site_label
_atom_site_type_symbol
_atom_type_description
_atom_site_fract_x
_atom_site_fract_y
_atom_site_fract_z
_atom_type_partial_charge
O1    O     O_R   0.390810 0.844810 0.447340 -0.537105
O2    O     O_R   0.109190 0.155190 0.947340 -0.537105
O3    O     O_R   0.890810 0.655190 0.552660 -0.537105
O4    O     O_R   0.609190 0.344810 0.052660 -0.537105
O5    O     O_R   0.720550 0.655820 0.440420 -0.548471
O6    O     O_R   0.779450 0.344180 0.940420 -0.548471
O7    O     O_R   0.220550 0.844180 0.559580 -0.548471
O8    O     O_R   0.279450 0.155820 0.059580 -0.548471
C1    C     C_R   0.550980 0.627889 0.425565 0.678849
C2    C     C_R   0.949020 0.372111 0.925565 0.678850
C3    C     C_R   0.050980 0.872111 0.574435 0.678850
C4    C     C_R   0.449020 0.127889 0.074435 0.678849
O9    O     O_R   0.720530 0.844130 0.440420 -0.537542
O10   O     O_R   0.779470 0.155870 0.940420 -0.537542
O11   O     O_R   0.220530 0.655870 0.559580 -0.537542
O12   O     O_R   0.279470 0.344130 0.059580 -0.537543
O13   O     O_R   0.890830 0.844810 0.552660 -0.524740
O14   O     O_R   0.609170 0.155190 0.052660 -0.524740
O15   O     O_R   0.390830 0.655190 0.447340 -0.524740
O16   O     O_R   0.109170 0.344810 0.947340 -0.524740
C5    C     C_R   0.551889 0.872456 0.426200 0.714431
C6    C     C_R   0.948111 0.127543 0.926200 0.714431
C7    C     C_R   0.051889 0.627543 0.573800 0.714432
C8    C     C_R   0.448111 0.372456 0.073800 0.714432
O17   O     O_3   0.557310 0.749980 0.536820 -0.378875
O18   O     O_3   0.942690 0.250020 0.036820 -0.378875
O19   O     O_3   0.057310 0.750020 0.463180 -0.378875
O20   O     O_3   0.442690 0.249980 0.963180 -0.378875
V1    V     V_3+5 0.832160 0.749980 0.493170 1.452000
V2    V     V_3+5 0.667840 0.250020 0.993170 1.452000
V3    V     V_3+5 0.332160 0.750020 0.506830 1.452000
V4    V     V_3+5 0.167840 0.249980 0.006830 1.452000
C9    C     C_R   0.150310 0.577527 0.864027 -0.060474
C10   C     C_R   0.349689 0.422473 0.364027 -0.060474
C11   C     C_R   0.650311 0.922473 0.135973 -0.060474
C12   C     C_R   0.849689 0.077527 0.635973 -0.060474
H1    H     H_    0.235596 0.629431 0.881711 0.236945
H2    H     H_    0.264403 0.370569 0.381711 0.236945
H3    H     H_    0.735597 0.870569 0.118289 0.236945
H4    H     H_    0.764404 0.129432 0.618288 0.236945
C13   C     C_R   0.970817 0.446962 0.883775 -0.237674
C14   C     C_R   0.529182 0.553038 0.383775 -0.237674
C15   C     C_R   0.470818 0.053038 0.116225 -0.237674
C16   C     C_R   0.029182 0.946962 0.616225 -0.237674
C17   C     C_R   0.982121 0.473239 0.589090 -0.160937
C18   C     C_R   0.517880 0.526761 0.089091 -0.160937
C19   C     C_R   0.482119 0.026761 0.410909 -0.160936
C20   C     C_R   0.017878 0.973239 0.910909 -0.160936
C21   C     C_R   0.956479 0.400013 0.624589 0.321763
C22   C     C_R   0.543523 0.599987 0.124589 0.321763
C23   C     C_R   0.456475 0.099987 0.375411 0.321763
C24   C     C_R   0.043521 0.900013 0.875411 0.321763
C25   C     C_R   0.972304 0.405664 0.686880 -0.118807
C26   C     C_R   0.527698 0.594336 0.186880 -0.118807
C27   C     C_R   0.472301 0.094336 0.313120 -0.118807
C28   C     C_R   0.027696 0.905664 0.813120 -0.118807
C29   C     C_R   0.016647 0.485907 0.715109 0.057030
C30   C     C_R   0.483354 0.514093 0.215109 0.057030
C31   C     C_R   0.516646 0.014093 0.284891 0.057030
C32   C     C_R   0.983353 0.985907 0.784891 0.057030
C33   C     C_R   0.066928 0.557500 0.677301 0.004257
C34   C     C_R   0.433072 0.442500 0.177301 0.004257
C35   C     C_R   0.566928 0.942500 0.322699 0.004258
C36   C     C_R   0.933072 0.057500 0.822699 0.004257
C37   C     C_R   0.024105 0.496220 0.779162 0.003098
C38   C     C_R   0.475895 0.503780 0.279162 0.003098
C39   C     C_R   0.524104 0.003780 0.220837 0.003098
C40   C     C_R   0.975895 0.996220 0.720837 0.003098
C41   C     C_R   0.121287 0.569658 0.802291 -0.058270
C42   C     C_R   0.378712 0.430342 0.302291 -0.058270
C43   C     C_R   0.621288 0.930342 0.197709 -0.058270
C44   C     C_R   0.878713 0.069658 0.697709 -0.058270
C45   C     C_R   0.188207 0.635554 0.763912 0.395463
C46   C     C_R   0.311792 0.364446 0.263912 0.395462
C47   C     C_R   0.688208 0.864447 0.236088 0.395463
C48   C     C_R   0.811793 0.135554 0.736088 0.395463
C49   C     C_R   0.149278 0.631618 0.702574 -0.252431
C50   C     C_R   0.350721 0.368382 0.202574 -0.252431
C51   C     C_R   0.649280 0.868382 0.297426 -0.252432
C52   C     C_R   0.850722 0.131618 0.797425 -0.252431
C53   C     C_R   0.937709 0.437612 0.820969 0.272999
C54   C     C_R   0.562291 0.562388 0.320969 0.272999
C55   C     C_R   0.437708 0.062388 0.179031 0.272999
C56   C     C_R   0.062291 0.937611 0.679031 0.272999
C57   C     C_R   0.074122 0.519286 0.904616 0.331333
C58   C     C_R   0.425877 0.480714 0.404615 0.331332
C59   C     C_R   0.574123 0.980714 0.095384 0.331332
C60   C     C_R   0.925878 0.019286 0.595384 0.331333
C61   C     C_R   0.039049 0.551921 0.614415 -0.115168
C62   C     C_R   0.460951 0.448079 0.114415 -0.115167
C63   C     C_R   0.539048 0.948079 0.385585 -0.115167
C64   C     C_R   0.960951 0.051921 0.885585 -0.115168
H5    H     H_    0.962351 0.468163 0.541037 0.163242
H6    H     H_    0.537651 0.531837 0.041037 0.163242
H7    H     H_    0.462348 0.031837 0.458963 0.163242
H8    H     H_    0.037649 0.968163 0.958963 0.163242
H9    H     H_    0.960884 0.345439 0.711579 0.205239
H10   H     H_    0.539118 0.654561 0.211579 0.205239
H11   H     H_    0.460881 0.154561 0.288421 0.205239
H12   H     H_    0.039116 0.845439 0.788421 0.205240
H13   H     H_    0.192820 0.685241 0.674308 0.116865
H14   H     H_    0.307179 0.314760 0.174308 0.116865
H15   H     H_    0.692821 0.814760 0.325692 0.116865
H16   H     H_    0.807180 0.185241 0.825692 0.116865
O21   O     O_3   0.108749 0.534388 0.964684 -0.607742
H17   H     H_    0.017998 0.501785 0.989302 0.300038
O22   O     O_3   0.391250 0.465612 0.464684 -0.607742
H18   H     H_    0.482001 0.498215 0.489302 0.300038
O23   O     O_3   0.608750 0.965612 0.035316 -0.607742
H19   H     H_    0.518000 0.998215 0.010698 0.300038
O24   O     O_3   0.891251 0.034389 0.535316 -0.607742
H20   H     H_    0.982001 0.001785 0.510698 0.300038
O25   O     O_3   0.287764 0.704609 0.787569 -0.625474
H21   H     H_    0.336127 0.741284 0.754499 0.317268
O26   O     O_3   0.212235 0.295391 0.287569 -0.625474
H22   H     H_    0.163872 0.258716 0.254499 0.317267
O27   O     O_3   0.787765 0.795391 0.212431 -0.625474
H23   H     H_    0.836128 0.758717 0.245501 0.317267
O28   O     O_3   0.712236 0.204610 0.712431 -0.625474
H24   H     H_    0.663873 0.241284 0.745501 0.317268
O29   O     O_3   0.816218 0.375159 0.799924 -0.664860
H25   H     H_    0.741615 0.351416 0.833231 0.289172
O30   O     O_3   0.683782 0.624840 0.299924 -0.664860
H26   H     H_    0.758385 0.648584 0.333231 0.289172
O31   O     O_3   0.316217 0.124840 0.200075 -0.664860
H27   H     H_    0.241615 0.148584 0.166768 0.289172
O32   O     O_3   0.183781 0.875159 0.700076 -0.664860
H28   H     H_    0.258385 0.851416 0.666769 0.289172
Br1   Br    Br    0.903098 0.292020 0.586148 -0.431424
Br2   Br    Br    0.596906 0.707979 0.086149 -0.431424
Br3   Br    Br    0.403091 0.207979 0.413851 -0.431424
Br4   Br    Br    0.096902 0.792020 0.913851 -0.431424

loop_
_geom_bond_atom_site_label_1
_geom_bond_atom_site_label_2
_ccdc_geom_bond_type
O17   V3    S    
C30   C34   A    
C27   C31   A    
C50   H14   S    
O13   V1    S    
C49   H13   S    
O24   H20   S    
C14   C54   A    
C44   C48   A    
O15   V3    S    
O30   H26   S    
C35   C51   A    
C12   C60   A    
O1    C5    A    
C30   C38   A    
C1    C14   S    
C22   C26   A    
C52   H16   S    
O9    V1    S    
O10   V2    S    
C4    C15   S    
C26   C30   A    
C11   H3    S    
O4    C8    A    
C21   C25   A    
O19   V1    S    
O26   H22   S    
C15   C55   A    
O1    V3    S    
C45   O25   S    
O2    V4    S    
C10   C58   A    
O3    V1    S    
C9    C57   A    
C42   C46   A    
C22   Br2   S    
C31   C39   A    
C60   O24   S    
C11   C59   A    
C1    O15   A    
C58   O22   S    
C33   C49   A    
C47   O27   S    
O2    C6    A    
O22   H18   S    
C7    C61   S    
C41   C45   A    
C14   C58   A    
C17   C61   A    
C10   C42   A    
C39   C43   A    
C9    C41   A    
C56   O32   S    
O11   C7    A    
C17   H5    S    
O12   C8    A    
C2    C13   S    
C36   C52   A    
C51   H15   S    
C55   O31   S    
O16   V4    S    
C57   O21   S    
C33   C61   A    
O5    V1    S    
C48   O28   S    
O7    V3    S    
C40   C56   A    
C12   H4    S    
C2    O16   A    
C23   Br3   S    
O18   V4    S    
C19   C23   A    
C25   H9    S    
O3    C7    A    
C21   Br1   S    
C9    H1    S    
C28   C32   A    
C53   O29   S    
C40   C44   A    
C24   Br4   S    
O7    C3    A    
O5    C1    A    
C38   C54   A    
C37   C53   A    
C18   H6    S    
C17   C21   A    
O8    C4    A    
C13   C53   A    
O9    C5    A    
C3    C16   S    
C39   C55   A    
O11   V3    S    
O29   H25   S    
C59   O23   S    
O6    V2    S    
C46   C50   A    
O31   H27   S    
C28   H12   S    
C27   H11   S    
O32   H28   S    
C54   O30   S    
O25   H21   S    
C5    C63   S    
C3    O13   A    
C25   C29   A    
C20   H8    S    
C10   H2    S    
C19   C63   A    
C34   C50   A    
C6    C64   S    
C48   C52   A    
C29   C37   A    
C16   C56   A    
C8    C62   S    
O6    C2    A    
O28   H24   S    
C29   C33   A    
C18   C62   A    
O12   V4    S    
C13   C57   A    
O21   H17   S    
C18   C22   A    
C31   C35   A    
C32   C36   A    
C15   C59   A    
O10   C6    A    
O20   V2    S    
C16   C60   A    
O23   H19   S    
C43   C47   A    
C38   C42   A    
O8    V4    S    
C37   C41   A    
C46   O26   S    
C34   C62   A    
C23   C27   A    
O14   V2    S    
C11   C43   A    
C12   C44   A    
C20   C24   A    
C35   C63   A    
C32   C40   A    
C45   C49   A    
C20   C64   A    
C4    O14   A    
C19   H7    S    
C26   H10   S    
C36   C64   A    
O27   H23   S    
C47   C51   A    
O4    V2    S    
C24   C28   A    
