data_mof_unit_37459.cif
_audit_creation_date              2012-12-10T21:32:48-0500
_audit_creation_method            fapswitch 2.2
_symmetry_space_group_name_H-M    P1
_symmetry_Int_Tables_number       1
_space_group_crystal_system       triclinic
_cell_length_a                    11.516574
_cell_length_b                    16.146799
_cell_length_c                    16.01988
_cell_angle_alpha                 85.757872
_cell_angle_beta                  91.532472
_cell_angle_gamma                 90.239258
_cell_volume                      2969.7585285

loop_
_atom_site_label
_atom_site_type_symbol
_atom_type_description
_atom_site_fract_x
_atom_site_fract_y
_atom_site_fract_z
_atom_type_partial_charge
C1    C     C_R   0.484016 0.488125 0.654398 0.943736
C2    C     C_R   0.475283 0.109281 0.479181 0.223245
C3    C     C_R   0.624042 0.840603 0.533719 -0.314604
C4    C     C_R   0.375922 0.159283 0.466882 -0.334112
C5    C     C_R   0.615730 0.753762 0.531924 -0.023632
C6    C     C_R   0.384123 0.246137 0.468617 -0.069842
C7    C     C_R   0.718158 0.498654 0.500286 0.879237
C8    C     C_R   0.281857 0.501329 0.499843 0.912383
C9    C     C_1   0.838498 0.496674 0.499911 -0.133693
C10   C     C_1   0.161492 0.503342 0.499969 -0.107786
C11   C     C_1   0.940703 0.498295 0.499815 0.034016
C12   C     C_R   0.522547 0.511497 0.347136 0.935730
C13   C     C_1   0.059275 0.501751 0.499905 0.041644
C14   C     C_R   0.446907 0.478009 0.743599 -0.339555
C15   C     C_R   0.575845 0.518989 0.261896 -0.333171
C16   C     C_R   0.413534 0.547244 0.788578 0.066054
C17   C     C_R   0.619429 0.446700 0.225918 0.039340
C18   C     C_R   0.398754 0.533697 0.875970 0.144781
C19   C     C_R   0.642999 0.452108 0.139338 0.109115
C20   C     C_R   0.445736 0.460837 0.916742 0.057760
C21   C     C_R   0.603885 0.523223 0.091181 0.114411
C22   C     C_R   0.448550 0.388533 0.873237 0.285089
C23   C     C_R   0.433814 0.397104 0.784971 0.302036
C24   C     C_R   0.604567 0.599269 0.127923 0.278395
C25   C     C_3   0.648969 0.366291 0.278669 -0.358807
C26   C     C_3   0.554689 0.300216 0.269902 -0.751921
C27   C     C_3   0.386790 0.632603 0.745194 -0.344087
C28   C     C_3   0.493577 0.689434 0.744611 -0.752610
C29   C     C_3   0.725020 0.390202 0.103275 -0.346706
C30   C     C_3   0.765840 0.411663 0.013900 -0.714215
C31   C     C_3   0.303269 0.576795 0.920424 -0.444130
C32   C     C_3   0.341392 0.655705 0.959780 -0.649266
C33   C     C_3   0.691598 0.111431 0.454116 -0.359856
C34   C     C_R   0.595808 0.597888 0.216558 0.215950
C35   C     C_3   0.767682 0.059538 0.518134 -0.639318
C36   C     C_3   0.308463 0.888721 0.545692 -0.371341
C37   C     C_3   0.232297 0.940318 0.481489 -0.636102
C38   C     C_R   0.416328 0.766489 0.491639 0.513278
C39   C     C_R   0.583768 0.233570 0.508161 0.488044
C40   C     C_R   0.416901 0.850824 0.511103 -0.024120
C41   C     C_R   0.583203 0.149217 0.488851 -0.026961
C42   C     C_R   0.524821 0.890688 0.521053 0.234148
H1    H     H_    0.707473 0.868494 0.546936 0.174318
H2    H     H_    0.569557 0.660268 0.717649 0.268292
H3    H     H_    0.473403 0.748419 0.706999 0.222303
H4    H     H_    0.518522 0.704136 0.809125 0.282459
H5    H     H_    0.350960 0.627532 0.680844 0.219662
H6    H     H_    0.316637 0.664402 0.776083 0.199051
H7    H     H_    0.695532 0.402907 0.966874 0.286036
H8    H     H_    0.799160 0.476398 0.006906 0.254501
H9    H     H_    0.837691 0.369337 0.000531 0.247234
H10   H     H_    0.806042 0.388159 0.142563 0.184963
H11   H     H_    0.687418 0.326962 0.107930 0.257677
H12   H     H_    0.292437 0.131314 0.454017 0.180566
H13   H     H_    0.396357 0.639543 0.016241 0.285560
H14   H     H_    0.387999 0.698385 0.914967 0.275684
H15   H     H_    0.263630 0.688484 0.980065 0.237129
H16   H     H_    0.228060 0.590365 0.876811 0.200702
H17   H     H_    0.267972 0.533612 0.970961 0.223059
H18   H     H_    0.341126 0.198356 0.982076 0.390566
H19   H     H_    0.768733 0.777652 0.040632 0.394803
H20   H     H_    0.438492 0.209842 0.668939 0.368252
H21   H     H_    0.767042 0.638201 0.345248 0.335671
H22   H     H_    0.755716 0.352801 0.658394 0.368220
H23   H     H_    0.692446 0.716407 0.545592 0.179692
H24   H     H_    0.241754 0.646667 0.342912 0.363759
H25   H     H_    0.793611 0.001041 0.491466 0.211508
H26   H     H_    0.848861 0.093707 0.532289 0.273658
H27   H     H_    0.722332 0.043624 0.577458 0.277414
H28   H     H_    0.664971 0.071882 0.402892 0.212106
H29   H     H_    0.745454 0.161350 0.423003 0.213848
H30   H     H_    0.205829 0.998735 0.508068 0.207787
H31   H     H_    0.277837 0.956366 0.422269 0.279747
H32   H     H_    0.151394 0.905886 0.467208 0.274210
H33   H     H_    0.254706 0.838923 0.577084 0.215638
H34   H     H_    0.307242 0.283406 0.455336 0.186752
H35   H     H_    0.335041 0.928553 0.596698 0.207242
H36   H     H_    0.576807 0.244221 0.311619 0.221237
H37   H     H_    0.468643 0.323273 0.287106 0.272574
H38   H     H_    0.547961 0.281944 0.204563 0.270125
H39   H     H_    0.732762 0.340136 0.261132 0.183357
H40   H     H_    0.665973 0.376937 0.345277 0.234611
N1    N     N_2   0.489078 0.461115 0.000316 -0.090036
N2    N     N_2   0.559899 0.519104 0.008200 -0.092866
N3    N     N_R   0.513820 0.716920 0.509720 -0.133640
N4    N     N_R   0.486180 0.283080 0.490280 -0.141758
N5    N     N_2   0.535657 0.979183 0.523371 -0.140349
N6    N     N_2   0.464506 0.020792 0.476845 -0.132661
O1    O     O_R   0.495050 0.422540 0.612660 -0.481781
O2    O     O_2   0.531586 0.294880 0.009436 -0.332398
O3    O     O_3   0.328586 0.254776 0.954656 -0.492827
O4    O     O_2   0.606928 0.677903 0.970907 -0.332662
O5    O     O_2   0.544441 0.758603 0.084968 -0.231571
O6    O     O_3   0.764291 0.723704 0.074129 -0.494247
O7    O     O_2   0.295250 0.260395 0.786317 -0.211529
O8    O     O_2   0.299300 0.347680 0.656683 -0.316908
O9    O     O_3   0.478920 0.254707 0.697214 -0.448888
O10   O     O_2   0.694662 0.753624 0.222757 -0.188727
O11   O     O_2   0.508729 0.729148 0.288244 -0.176414
O12   O     O_R   0.504950 0.577460 0.387340 -0.474629
O13   O     O_3   0.695163 0.665787 0.361321 -0.532433
O14   O     O_2   0.752221 0.192268 0.622929 -0.280513
O15   O     O_2   0.801247 0.294466 0.509492 -0.348254
O16   O     O_3   0.679293 0.338671 0.633292 -0.476823
O17   O     O_2   0.198332 0.706611 0.491312 -0.354143
O18   O     O_2   0.247924 0.807454 0.376795 -0.283663
O19   O     O_3   0.318549 0.660291 0.367752 -0.482621
O20   O     O_R   0.503930 0.561840 0.618900 -0.645356
O21   O     O_R   0.496070 0.438160 0.381100 -0.640419
O22   O     O_R   0.661110 0.430350 0.496870 -0.560652
O23   O     O_R   0.338890 0.569650 0.503130 -0.557507
O24   O     O_R   0.669990 0.569650 0.503110 -0.606212
O25   O     O_R   0.330010 0.430350 0.496890 -0.605814
O26   O     O_2   0.519661 0.228915 0.877344 -0.201813
S1    S     S_3+6 0.461973 0.289540 0.929665 0.089340
S2    S     S_3+6 0.625965 0.691987 0.061913 0.062600
S3    S     S_3+6 0.372295 0.313811 0.730440 0.107993
S4    S     S_3+6 0.622535 0.689907 0.270670 0.119371
S5    S     S_3+6 0.707321 0.265158 0.568103 0.066306
S6    S     S_3+6 0.292243 0.734786 0.432212 0.068775
Zn1   Zn    Zn3+2 0.494070 0.406980 0.495830 1.042007
Zn2   Zn    Zn3+2 0.505930 0.593020 0.504170 1.049192

loop_
_geom_bond_atom_site_label_1
_geom_bond_atom_site_label_2
_ccdc_geom_bond_type
C27   H6    S    
C34   S4    S    
C37   H32   S    
C3    C42   A    
H24   O19   S    
H21   O13   S    
O26   S1    D    
C39   C41   A    
O7    S3    D    
C28   H4    S    
C26   H36   S    
O1    Zn1   S    
O13   S4    S    
C31   H16   S    
C36   C37   S    
C19   C21   A    
C30   H9    S    
C36   H35   S    
O22   Zn1   S    
C2    C41   A    
C7    O24   A    
H22   O16   S    
C31   H17   S    
C33   C35   S    
N1    N2    D    
C21   N2    S    
O17   S6    D    
C2    N6    S    
C15   C34   A    
C18   C20   A    
O16   S5    S    
C5    N3    A    
C16   C27   S    
C40   C42   A    
C30   H8    S    
O23   Zn2   S    
C25   H39   S    
C32   H15   S    
C12   O21   A    
O10   S4    D    
C28   H3    S    
C38   N3    A    
C38   S6    S    
O8    S3    D    
C36   C40   S    
C4    C6    A    
C8    O23   A    
O6    S2    S    
H19   O6    S    
C25   C26   S    
C28   H2    S    
C24   C34   A    
O5    S2    D    
C14   C23   A    
C2    C4    A    
O24   Zn2   S    
C29   C30   S    
C36   H33   S    
H20   O9    S    
C9    C11   T    
C31   C32   S    
C12   C15   S    
C35   H25   S    
C3    H1    S    
N4    Zn1   S    
N3    Zn2   S    
C16   C18   A    
O2    S1    D    
O4    S2    D    
C33   H28   S    
C8    O25   A    
C5    H23   S    
C22   S1    S    
C30   H7    S    
C20   C22   A    
C24   S2    S    
C4    H12   S    
C25   H40   S    
C14   C16   A    
C20   N1    S    
C21   C24   A    
C19   C29   S    
O19   S6    S    
H18   O3    S    
C27   H5    S    
C7    C9    S    
C37   H31   S    
C1    O1    A    
C32   H13   S    
O18   S6    D    
O15   S5    D    
O20   Zn2   S    
C3    C5    A    
C10   C13   T    
C23   S3    S    
C6    H34   S    
C18   C31   S    
C1    C14   S    
C26   H37   S    
C6    N4    A    
C7    O22   A    
C33   C41   S    
C17   C25   S    
O11   S4    D    
C38   C40   A    
C11   C13   S    
O21   Zn1   S    
C29   H11   S    
C35   H26   S    
C39   S5    S    
C17   C19   A    
O3    S1    S    
O12   Zn2   S    
O9    S3    S    
C26   H38   S    
C12   O12   A    
C33   H29   S    
C1    O20   A    
O25   Zn1   S    
C35   H27   S    
N5    N6    D    
C8    C10   S    
C37   H30   S    
C27   C28   S    
C22   C23   A    
C42   N5    S    
C39   N4    A    
C15   C17   A    
C32   H14   S    
O14   S5    D    
C29   H10   S    
