data_mof_unit_27873.cif
_audit_creation_date              2012-12-11T14:50:37-0500
_audit_creation_method            fapswitch 2.2
_symmetry_space_group_name_H-M    P1
_symmetry_Int_Tables_number       1
_space_group_crystal_system       triclinic
_cell_length_a                    10.926267
_cell_length_b                    10.929577
_cell_length_c                    18.80013
_cell_angle_alpha                 90.135078
_cell_angle_beta                  89.592742
_cell_angle_gamma                 60.482325
_cell_volume                      1953.60225314

loop_
_atom_site_label
_atom_site_type_symbol
_atom_type_description
_atom_site_fract_x
_atom_site_fract_y
_atom_site_fract_z
_atom_type_partial_charge
C1    C     C_R   0.233779 0.647664 0.608646 0.574099
C2    C     C_3   0.650131 0.563484 0.799466 -0.032975
C3    C     C_3   0.700102 0.672511 0.811121 0.085215
C4    C     C_3   0.669770 0.649929 0.674723 0.023465
C5    C     C_3   0.818132 0.630706 0.687927 0.089151
C6    C     C_3   0.649066 0.538972 0.718357 -0.240100
C7    C     C_R   0.781714 0.169609 0.712600 0.098186
C8    C     C_R   0.786457 0.171346 0.787821 0.167972
C9    C     C_R   0.674905 0.177452 0.828114 0.033671
C10   C     C_R   0.546473 0.215734 0.794193 0.159032
C11   C     C_R   0.539823 0.217598 0.721459 -0.143671
C12   C     C_R   0.654047 0.623303 0.600027 0.567263
C13   C     C_R   0.655894 0.193143 0.679478 -0.001498
C14   C     C_R   0.184992 0.559730 0.720220 -0.124608
C15   C     C_R   0.169691 0.571386 0.793589 -0.146105
C16   C     C_R   0.162578 0.686220 0.829902 0.057099
C17   C     C_R   0.170198 0.792954 0.790784 0.073552
C18   C     C_R   0.169600 0.787833 0.717333 -0.100601
C19   C     C_R   0.184203 0.668800 0.681757 0.052881
C20   C     C_R   0.570204 0.653834 0.269199 -0.089659
C21   C     C_R   0.590147 0.673883 0.197648 0.124466
C22   C     C_R   0.694393 0.708139 0.179232 0.086305
C23   C     C_R   0.626280 0.231672 0.604289 0.582987
C24   C     C_R   0.774123 0.725541 0.232117 -0.157168
C25   C     C_R   0.757228 0.700943 0.303059 -0.106822
C26   C     C_R   0.655826 0.664212 0.321400 0.050481
C27   C     C_R   0.501329 0.243649 0.276047 -0.196154
C28   C     C_R   0.516901 0.208870 0.205103 -0.192453
C29   C     C_R   0.632730 0.196514 0.166896 -0.007430
C30   C     C_R   0.722374 0.239316 0.197800 0.228170
C31   C     C_R   0.711408 0.267835 0.270743 0.209247
C32   C     C_R   0.601025 0.266612 0.310919 -0.024374
C33   C     C_R   0.081919 0.805700 0.305347 0.063920
C34   C     C_R   0.217924 0.650244 0.402882 0.574462
C35   C     C_R   0.067895 0.815719 0.232474 -0.137831
C36   C     C_R   0.111482 0.694277 0.190231 -0.014284
C37   C     C_R   0.155560 0.564382 0.221987 -0.145192
C38   C     C_R   0.171066 0.553834 0.295139 -0.157229
C39   C     C_R   0.145748 0.672311 0.335970 0.060196
C40   C     C_R   0.698847 0.108338 0.897834 0.599263
C41   C     C_R   0.724494 0.688091 0.887668 0.578146
C42   C     C_R   0.114247 0.710086 0.904024 0.573759
C43   C     C_R   0.671576 0.114287 0.101479 0.564783
C44   C     C_R   0.729801 0.717213 0.105536 0.570486
C45   C     C_R   0.643461 0.624831 0.393379 0.549759
C46   C     C_R   0.085207 0.714062 0.114954 0.533813
C47   C     C_R   0.581839 0.293577 0.387762 0.570824
C48   C     C_3   0.592656 0.820045 0.776740 -0.029347
C49   C     C_3   0.557488 0.797739 0.700525 -0.165345
C50   C     C_3   0.845958 0.613903 0.768942 -0.050624
Cr1   Cr    Cr6+3 0.392930 0.397900 0.502230 1.029729
Cr2   Cr    Cr6+3 0.398240 0.708600 0.501260 1.039967
Cr3   Cr    Cr6+3 0.708800 0.393470 0.496460 1.098655
Cr4   Cr    Cr6+3 0.937620 0.938540 0.007640 1.116940
Cr5   Cr    Cr6+3 0.625150 0.937450 0.994520 1.071745
Cr6   Cr    Cr6+3 0.937990 0.625080 0.001190 1.089125
H1    H     H_    0.647713 0.882969 0.773279 0.171747
H2    H     H_    0.736987 0.432505 0.705476 0.191781
H3    H     H_    0.898330 0.535931 0.658853 0.182028
H4    H     H_    0.439340 0.244682 0.698098 0.178856
H5    H     H_    0.198292 0.465814 0.693784 0.142670
H6    H     H_    0.158708 0.492915 0.822376 0.195180
H7    H     H_    0.173129 0.871461 0.688273 0.131140
H8    H     H_    0.492330 0.623897 0.283726 0.104394
H9    H     H_    0.850852 0.756091 0.218048 0.104429
H10   H     H_    0.823325 0.709423 0.343230 0.133805
H11   H     H_    0.414876 0.243621 0.304380 0.159938
H12   H     H_    0.443280 0.181173 0.181862 0.171210
H13   H     H_    0.451636 0.806289 0.698922 0.153852
H14   H     H_    0.020677 0.919761 0.209351 0.182466
H15   H     H_    0.180554 0.471767 0.190433 0.156421
H16   H     H_    0.212054 0.451470 0.319066 0.146013
H17   H     H_    0.552754 0.881543 0.665262 0.175434
H18   H     H_    0.897402 0.675272 0.785263 0.161065
H19   H     H_    0.726653 0.464303 0.824740 0.248239
H20   H     H_    0.550783 0.539366 0.702481 0.110815
O1    O     O_R   0.507430 0.255570 0.581420 -0.525683
O2    O     O_R   0.524460 0.695920 0.424060 -0.511491
O3    O     O_R   0.736530 0.504260 0.414810 -0.448966
O4    O     O_R   0.691460 0.277160 0.422180 -0.438883
O5    O     O_3   0.499990 0.499990 0.499980 -0.302038
O6    O     O_R   0.089490 0.825610 0.930610 -0.490637
O7    O     O_R   0.818370 0.054540 0.929880 -0.454725
O8    O     O_R   0.605870 0.077310 0.915530 -0.475267
O9    O     O_R   0.646440 0.806700 0.917570 -0.511976
O10   O     O_R   0.837200 0.593290 0.915250 -0.503512
O11   O     O_R   0.065330 0.635370 0.931590 -0.510313
O12   O     O_R   0.280190 0.527390 0.578910 -0.505406
O13   O     O_R   0.068300 0.828790 0.091860 -0.503034
O14   O     O_R   0.798730 0.057480 0.079370 -0.457359
O15   O     O_R   0.584680 0.080480 0.076790 -0.527280
O16   O     O_R   0.626790 0.809640 0.067050 -0.472017
O17   O     O_R   0.816010 0.596460 0.076500 -0.437564
O18   O     O_R   0.045680 0.638310 0.081070 -0.512567
O19   O     O_3   0.833590 0.833690 0.001120 -0.325422
O20   O     O_R   0.260310 0.739740 0.584580 -0.529379
O21   O     O_R   0.532250 0.695150 0.573830 -0.513371
O22   O     O_R   0.744930 0.503430 0.576380 -0.515711
O23   O     O_R   0.699250 0.276390 0.571950 -0.467883
O24   O     O_R   0.499020 0.256400 0.419850 -0.517066
O25   O     O_R   0.272400 0.528160 0.429140 -0.534933
O26   O     O_R   0.251910 0.740570 0.423020 -0.473139
N1    N     N_3   0.941427 0.462716 0.782827 -0.610550
H21   H     H_    0.986571 0.445640 0.832815 0.300641
H22   H     H_    0.027029 0.421150 0.747647 0.233895
N2    N     N_3   0.899740 0.149792 0.669533 -0.579740
H23   H     H_    0.986416 0.129772 0.700457 0.267663
H24   H     H_    0.931108 0.058977 0.638913 0.251834
Cl1   Cl    Cl    0.911882 0.199672 0.831703 -0.663885
Cl2   Cl    Cl    0.388158 0.262997 0.840363 -0.660204
N3    N     N_3   0.199309 0.894235 0.824234 -0.596778
H25   H     H_    0.113099 0.964755 0.853469 0.331773
H26   H     H_    0.213002 0.956115 0.786159 0.257637
N4    N     N_3   0.459721 0.904607 0.815758 -0.618577
H27   H     H_    0.460162 0.990428 0.839608 0.312893
H28   H     H_    0.444097 0.849225 0.856420 0.307361
N5    N     N_3   0.508450 0.654954 0.143955 -0.564623
H29   H     H_    0.402248 0.724534 0.154915 0.234021
H30   H     H_    0.524422 0.552726 0.148180 0.249591
Cl3   Cl    Cl    0.848740 0.257659 0.145990 -0.496480
Cl4   Cl    Cl    0.846193 0.290840 0.308656 -0.544434
N6    N     N_3   0.035131 0.930136 0.347865 -0.566723
H31   H     H_    0.927071 0.993745 0.340118 0.260253
H32   H     H_    0.085504 0.984302 0.329371 0.277562
Cl5   Cl    Cl    0.839043 0.772034 0.652237 -0.705301
N7    N     N_3   0.514426 0.603911 0.833158 -0.624197
H33   H     H_    0.503859 0.514135 0.837581 0.256924
H34   H     H_    0.435713 0.670526 0.798913 0.268239

loop_
_geom_bond_atom_site_label_1
_geom_bond_atom_site_label_2
_ccdc_geom_bond_type
Cr6   O19   S    
C23   O23   A    
C20   H8    S    
N7    H33   S    
C40   O8    A    
N3    H25   S    
C42   O6    A    
N4    H27   S    
Cr2   O20   S    
C48   H1    S    
C46   O13   A    
Cr3   O23   S    
Cr6   O18   S    
C41   O10   A    
Cr2   O26   S    
C37   C38   A    
C20   C26   A    
C28   C29   A    
C28   H12   S    
Cr4   O14   S    
N5    H30   S    
C38   C39   A    
C18   H7    S    
N2    H23   S    
C15   C16   A    
Cr2   O21   S    
C13   C23   S    
Cr3   O5    S    
C18   C19   A    
C6    H2    S    
C21   N5    S    
C44   O17   A    
C26   C45   S    
N1    H22   S    
C22   C44   S    
C35   C36   A    
C35   H14   S    
C8    C9    A    
Cr5   O15   S    
C36   C46   S    
C45   O2    A    
C4    C12   S    
C9    C10   A    
Cr1   O5    S    
C12   O22   A    
C44   O16   A    
C1    O12   A    
C50   N1    S    
C49   H13   S    
C21   C22   A    
C29   C43   S    
C40   O7    A    
C30   Cl3   S    
C2    C6    S    
C47   O4    A    
Cr2   O2    S    
C17   N3    S    
Cr4   O7    S    
C3    C50   S    
Cr6   O17   S    
C38   H16   S    
C1    C19   S    
C34   O25   A    
C5    H3    S    
C34   C39   S    
C43   O14   A    
C7    C8    A    
Cr3   O4    S    
C24   C25   A    
C31   Cl4   S    
Cr4   O13   S    
C4    C6    S    
C16   C17   A    
Cr6   O11   S    
C25   C26   A    
C14   H5    S    
C9    C40   S    
C43   O15   A    
C47   O24   A    
Cr5   O9    S    
Cr1   O1    S    
C29   C30   A    
C33   C39   A    
Cr6   O10   S    
C31   C32   A    
C46   O18   A    
C3    C48   S    
C17   C18   A    
C12   O21   A    
C7    N2    S    
N3    H26   S    
C34   O26   A    
C23   O1    A    
C45   O3    A    
Cr4   O19   S    
C24   H9    S    
C2    N7    S    
Cr5   O19   S    
C48   C49   S    
Cr5   O16   S    
C37   H15   S    
C33   N6    S    
C32   C47   S    
C22   C24   A    
C5    C50   S    
N6    H32   S    
C11   H4    S    
C16   C42   S    
Cr4   O6    S    
C48   N4    S    
Cr1   O24   S    
C3    C41   S    
N7    H34   S    
Cr3   O3    S    
C27   C32   A    
C14   C19   A    
C25   H10   S    
C4    C5    S    
Cr1   O12   S    
N4    H28   S    
C6    H20   S    
Cr3   O22   S    
Cr1   O25   S    
C41   O9    A    
C4    C49   S    
C50   H18   S    
C2    C3    S    
Cr5   O8    S    
N5    H29   S    
C11   C13   A    
C30   C31   A    
N2    H24   S    
C1    O20   A    
C33   C35   A    
C15   H6    S    
C10   Cl2   S    
C49   H17   S    
Cr2   O5    S    
C27   H11   S    
C10   C11   A    
C7    C13   A    
C20   C21   A    
C36   C37   A    
C5    Cl5   S    
N1    H21   S    
C14   C15   A    
C42   O11   A    
N6    H31   S    
C8    Cl1   S    
C2    H19   S    
C27   C28   A    
