data_mof_unit_18990.cif
_audit_creation_date              2013-03-05T15:42:20-0500
_audit_creation_method            fapswitch 2.2
_symmetry_space_group_name_H-M    P1
_symmetry_Int_Tables_number       1
_space_group_crystal_system       triclinic
_cell_length_a                    17.151093
_cell_length_b                    16.794618
_cell_length_c                    19.550595
_cell_angle_alpha                 117.5785
_cell_angle_beta                  62.664205
_cell_angle_gamma                 100.789949
_cell_volume                      4431.89358423

loop_
_atom_site_label
_atom_site_type_symbol
_atom_site_description
_atom_site_fract_x
_atom_site_fract_y
_atom_site_fract_z
_atom_type_partial_charge
C1    C     C_R   0.052433 0.754597 0.997441 0.149652
N1    N     N_R   0.036080 0.671900 0.995420 -0.067334
C2    C     C_R   0.769000 0.414527 0.161613 0.131415
N2    N     N_R   0.834710 0.454650 0.119760 -0.073795
C3    C     C_R   0.807309 0.560990 0.960425 -0.085548
H1    H     H_    0.817390 0.597893 0.924435 0.112445
N3    N     N_R   0.867430 0.509300 0.948100 -0.049576
C4    C     C_R   0.951231 0.674686 0.246976 -0.090430
H2    H     H_    0.910104 0.657091 0.299005 0.102968
N4    N     N_R   0.003360 0.617250 0.167070 -0.048024
C5    C     C_R   0.741744 0.487803 0.042300 -0.063203
H3    H     H_    0.692541 0.460516 0.084340 0.132185
N5    N     N_R   0.825450 0.461270 0.995400 -0.028639
C6    C     C_R   0.018811 0.750794 0.168901 -0.113426
H4    H     H_    0.037798 0.802057 0.147163 0.131291
N6    N     N_R   0.045340 0.665280 0.119770 -0.046999
C7    C     C_R   0.840819 0.493039 0.241811 -0.119581
H5    H     H_    0.865306 0.518903 0.289606 0.180118
N7    N     N_R   0.883740 0.497640 0.167070 -0.068432
C8    C     C_R   0.969355 0.686996 0.927392 -0.168378
H6    H     H_    0.937417 0.670789 0.886341 0.116016
N8    N     N_R   0.987050 0.628910 0.948110 -0.056354
C9    C     C_R   0.005667 0.768057 0.961131 0.013535
C10   C     C_R   0.769702 0.439077 0.239837 0.074723
C11   C     C_R   0.728409 0.549572 0.020472 0.007060
C12   C     C_R   0.958881 0.759644 0.249092 0.049455
C13   C     C_R   0.257042 0.549993 0.994854 -0.132009
H7    H     H_    0.303572 0.592375 0.968000 0.131856
N9    N     N_R   0.174550 0.538730 0.004600 -0.058763
C14   C     C_R   0.931613 0.256360 0.831257 -0.003865
H8    H     H_    0.892732 0.207480 0.853261 0.151016
N10   N     N_R   0.954660 0.334720 0.880230 -0.060967
C15   C     C_R   0.169409 0.451611 0.752836 -0.124656
H9    H     H_    0.148049 0.409009 0.703730 0.159972
N11   N     N_R   0.116260 0.502360 0.832930 -0.050222
C16   C     C_R   0.049438 0.306588 0.051528 0.010482
H10   H     H_    0.089351 0.317545 0.084050 0.167227
N12   N     N_R   0.012950 0.371090 0.051890 -0.058335
C17   C     C_R   0.971534 0.239176 0.976381 -0.118023
H11   H     H_    0.938677 0.189233 0.940092 0.117819
N13   N     N_R   0.963920 0.328100 0.004580 -0.048685
C18   C     C_R   0.250100 0.523145 0.826318 -0.043302
H12   H     H_    0.305004 0.549122 0.842047 0.141384
N14   N     N_R   0.165290 0.545350 0.880240 -0.046998
C19   C     C_R   0.187558 0.476351 0.076133 0.247408
N15   N     N_R   0.132570 0.490700 0.051900 -0.077714
C20   C     C_R   0.991039 0.339103 0.758907 -0.037683
H13   H     H_    0.003157 0.368542 0.716204 0.131016
N16   N     N_R   0.996640 0.382750 0.832930 -0.067645
Ni1   Ni    Ni4+2 0.104370 0.604370 0.000010 0.253417
Ni2   Ni    Ni4+2 0.895630 0.395630 0.999990 0.282181
Ni3   Ni    Ni4+2 0.991920 0.505780 0.891500 0.232363
Ni4   Ni    Ni4+2 0.008080 0.494220 0.108500 0.277931
C21   C     C_R   0.267125 0.506715 0.035250 0.074785
C22   C     C_R   0.953486 0.257911 0.754418 0.227847
C23   C     C_R   0.253943 0.462114 0.746562 0.084551
C24   C     C_R   0.025554 0.222411 0.004217 0.112779
C25   C     C_R   0.998455 0.177611 0.599719 0.465260
C26   C     C_R   0.934432 0.192615 0.683145 -0.294029
C27   C     C_R   0.852762 0.148726 0.695592 0.376949
C28   C     C_R   0.844990 0.077638 0.623577 -0.061404
C29   C     C_R   0.903974 0.072075 0.542198 -0.038498
C30   C     C_R   0.974501 0.130559 0.532394 -0.079616
C31   C     C_R   0.782462 0.010458 0.629779 -0.044914
C32   C     C_R   0.783388 0.935995 0.556151 -0.207689
C33   C     C_R   0.843074 0.930347 0.475465 0.138105
C34   C     C_R   0.898220 0.002677 0.469161 0.099302
C35   C     C_R   0.954922 0.000822 0.388890 0.117582
C36   C     C_R   0.012415 0.070492 0.382076 -0.085292
C37   C     C_R   0.023963 0.133879 0.453288 -0.043021
C38   C     C_R   0.856045 0.850599 0.401300 -0.226404
C39   C     C_R   0.921094 0.845860 0.322324 0.073673
C40   C     C_R   0.961891 0.924402 0.316190 -0.121980
H14   H     H_    0.737639 0.010876 0.690891 0.204802
H15   H     H_    0.739698 0.881579 0.562332 0.148565
H16   H     H_    0.820989 0.791204 0.405934 0.127504
H17   H     H_    0.009360 0.924279 0.256099 0.153766
H18   H     H_    0.054877 0.070724 0.320605 0.188844
H19   H     H_    0.073844 0.183092 0.445435 0.196829
C41   C     C_R   0.413764 0.418828 0.665689 0.269812
C42   C     C_R   0.332647 0.425402 0.666940 -0.025018
C43   C     C_R   0.327166 0.406364 0.592070 -0.227836
C44   C     C_R   0.402014 0.391672 0.518187 0.158407
C45   C     C_R   0.484929 0.401936 0.519793 -0.003573
C46   C     C_R   0.491835 0.418717 0.595056 -0.165782
C47   C     C_R   0.393967 0.375977 0.445083 -0.148869
C48   C     C_R   0.467477 0.376743 0.374731 -0.167627
C49   C     C_R   0.549429 0.391475 0.376699 0.146055
C50   C     C_R   0.559720 0.400413 0.447277 0.031130
C51   C     C_R   0.643537 0.413016 0.446882 -0.111145
C52   C     C_R   0.649449 0.433104 0.522599 -0.216645
C53   C     C_R   0.575039 0.440497 0.597396 0.526423
C54   C     C_R   0.619651 0.404653 0.311469 -0.252904
C55   C     C_R   0.703833 0.415275 0.307936 -0.045720
C56   C     C_R   0.718143 0.412481 0.373044 0.365334
H20   H     H_    0.264815 0.408654 0.591600 0.169447
H21   H     H_    0.330290 0.367748 0.443916 0.165629
H22   H     H_    0.459883 0.368888 0.319862 0.156905
H23   H     H_    0.606721 0.411534 0.265211 0.165760
H24   H     H_    0.711271 0.451845 0.526944 0.235551
C57   C     C_R   0.644768 0.561696 0.027287 0.100070
C58   C     C_R   0.347566 0.498267 0.035879 -0.081389
C59   C     C_R   0.472500 0.409274 0.987441 -0.273269
C60   C     C_R   0.387833 0.412874 0.997490 0.568199
C61   C     C_R   0.390208 0.577713 0.064006 -0.294288
C62   C     C_R   0.475229 0.573650 0.052027 0.189670
C63   C     C_R   0.516293 0.488586 0.012797 0.067461
C64   C     C_R   0.601151 0.483495 0.999238 -0.157947
C65   C     C_R   0.606317 0.646601 0.064690 -0.158312
C66   C     C_R   0.520661 0.652660 0.077024 -0.161125
H25   H     H_    0.633050 0.418085 0.968593 0.190077
H26   H     H_    0.641373 0.706986 0.085907 0.138291
H27   H     H_    0.505200 0.344707 0.958102 0.221100
H28   H     H_    0.489779 0.718230 0.106719 0.141771
H29   H     H_    0.357970 0.642403 0.092352 0.161185
C67   C     C_R   0.824255 0.155002 0.120926 0.184656
C68   C     C_R   0.981881 0.854825 0.972655 0.099093
C69   C     C_R   0.917649 0.936900 0.935276 -0.138108
C70   C     C_R   0.959062 0.859439 0.914270 -0.144028
C71   C     C_R   0.966561 0.930052 0.050598 -0.105173
C72   C     C_R   0.925166 0.008800 0.072983 -0.031582
C73   C     C_R   0.897774 0.010461 0.015288 0.105829
C74   C     C_R   0.847764 0.084033 0.039845 -0.278434
C75   C     C_R   0.852546 0.154833 0.177176 -0.287750
C76   C     C_R   0.905357 0.083880 0.153372 0.453066
H30   H     H_    0.824969 0.085815 0.997265 0.173681
H31   H     H_    0.831846 0.209736 0.240104 0.236999
H32   H     H_    0.897884 0.937887 0.890378 0.141346
H33   H     H_    0.969882 0.801788 0.853920 0.134370
H34   H     H_    0.979947 0.923152 0.096430 0.187416
I1    I     I_    0.165538 0.827389 0.006258 -0.341880
I2    I     I_    0.148567 0.467126 0.191956 -0.259742
S1    S     S_3+6 0.112111 0.201666 0.575396 -0.062913
O1    O     O_2   0.168460 0.126927 0.492813 -0.258108
O2    O     O_2   0.131569 0.287673 0.565344 -0.364939
O3    O     O_3   0.138103 0.210701 0.651856 -0.529709
H35   H     H_    0.198086 0.234482 0.637621 0.378618
S2    S     S_3+6 0.758238 0.186994 0.795883 -0.035721
O4    O     O_2   0.752367 0.134344 0.842628 -0.260656
O5    O     O_2   0.761925 0.285421 0.850034 -0.316044
O6    O     O_3   0.666810 0.170901 0.780242 -0.474294
H36   H     H_    0.673468 0.208331 0.750987 0.363496
I3    I     I_    0.715344 0.296219 0.094172 -0.383330
I4    I     I_    0.410574 0.368764 0.749654 -0.188830
S3    S     S_3+6 0.825817 0.402989 0.362338 -0.039412
O7    O     O_2   0.823746 0.341834 0.399883 -0.207624
O8    O     O_2   0.891649 0.364544 0.270361 -0.311163
O9    O     O_3   0.858363 0.504362 0.415841 -0.481450
H37   H     H_    0.807976 0.546507 0.444215 0.309567
S4    S     S_3+6 0.589096 0.497327 0.693465 -0.006435
O10   O     O_2   0.608902 0.429520 0.713830 -0.245371
O11   O     O_2   0.664972 0.559113 0.682296 -0.266575
O12   O     O_3   0.498510 0.559399 0.774810 -0.543842
H38   H     H_    0.506963 0.577402 0.826843 0.377318
S5    S     S_3+6 0.338082 0.309537 0.957142 -0.011795
O13   O     O_2   0.280271 0.284286 0.029115 -0.272862
O14   O     O_2   0.283824 0.316918 0.917872 -0.292231
O15   O     O_3   0.416184 0.228300 0.882570 -0.481295
H39   H     H_    0.383648 0.172883 0.865002 0.392227
S6    S     S_3+6 0.943049 0.090802 0.226488 -0.036930
O16   O     O_2   0.886287 0.033966 0.270860 -0.285111
O17   O     O_2   0.036870 0.057012 0.180666 -0.312775
O18   O     O_3   0.936746 0.197063 0.299931 -0.426660
H40   H     H_    0.981453 0.228971 0.267977 0.383617

loop_
_geom_bond_atom_site_label_1
_geom_bond_atom_site_label_2
_geom_bond_distance
_ccdc_geom_bond_type
C48   C49   1.396051 A    
C54   C55   1.394476 A    
C70   H33   1.082789 S    
C67   C74   1.392658 A    
C22   C26   1.456083 S    
C13   N9    1.326432 A    
C12   C39   1.464961 S    
C61   C62   1.376467 A    
O18   H40   0.990746 S    
C56   S3    1.789966 S    
C42   C43   1.391189 A    
C2    C10   1.392915 A    
C13   C21   1.373313 A    
C23   C42   1.455524 S    
C17   N13   1.340117 A    
C19   N15   1.331591 A    
C41   C46   1.414302 A    
C69   H32   1.083777 S    
C29   C34   1.397309 A    
C71   H34   1.078921 S    
N8    Ni3   1.835431 S    
C16   H10   1.072841 S    
C59   H27   1.084323 S    
N6    Ni1   1.883215 S    
N3    Ni3   1.898313 S    
C68   C70   1.402013 A    
C3    H1    1.077514 S    
C15   N11   1.324229 A    
S5    O14   1.502757 D    
C62   C63   1.411124 A    
C5    C11   1.378043 A    
C57   C65   1.395240 A    
C17   C24   1.391561 A    
C4    C12   1.391046 A    
C58   C61   1.393619 A    
C1    N1    1.350075 A    
C69   C73   1.402856 A    
N4    Ni4   1.836806 S    
C47   H21   1.084357 S    
C69   C70   1.396047 A    
N1    Ni1   1.831470 S    
C18   C23   1.391895 A    
N5    Ni2   1.832967 S    
N2    N7    1.397357 A    
C44   C45   1.413222 A    
C4    H2    1.077458 S    
C41   I4    2.140783 S    
S4    O12   1.682815 S    
N1    N8    1.397357 A    
S1    O3    1.683160 S    
C63   C64   1.366410 A    
C8    C9    1.380109 A    
C52   H24   1.078684 S    
C54   H23   1.082115 S    
C48   H22   1.084428 S    
C49   C50   1.406977 A    
N7    Ni4   1.898577 S    
C15   C23   1.381741 A    
C33   C34   1.409519 A    
C26   C27   1.425134 A    
S5    O15   1.682331 S    
C36   H18   1.083585 S    
C36   C37   1.383046 A    
C18   N14   1.340520 A    
S3    O8    1.502831 D    
C46   C53   1.421746 A    
C21   C58   1.419213 S    
S3    O7    1.501804 D    
N9    Ni1   1.832964 S    
C25   S1    1.794686 S    
C76   S6    1.772441 S    
C7    C10   1.381128 A    
C43   H20   1.081625 S    
N2    Ni2   1.883855 S    
C34   C35   1.404981 A    
S6    O18   1.677869 S    
C51   C56   1.420269 A    
C2    I3    2.130082 S    
O9    H37   0.990325 S    
N12   N13   1.397357 A    
C20   N16   1.326645 A    
C16   C24   1.393681 A    
C65   H26   1.083187 S    
C52   C53   1.399911 A    
C3    N3    1.337242 A    
C47   C48   1.378116 A    
C35   C36   1.396730 A    
C74   H30   1.083095 S    
C1    I1    2.124005 S    
C35   C40   1.376245 A    
C6    C12   1.377678 A    
C27   C28   1.407761 A    
S6    O17   1.503702 D    
O15   H39   0.990547 S    
C28   C31   1.411376 A    
N10   Ni2   1.883215 S    
C72   C76   1.417932 A    
C29   C30   1.407553 A    
C10   C55   1.466623 S    
C33   C38   1.401034 A    
C30   C37   1.404217 A    
N16   Ni3   1.836806 S    
C7    H5    1.074473 S    
C55   C56   1.424511 A    
C45   C46   1.422028 A    
C58   C60   1.412514 A    
N11   N14   1.397357 A    
C72   C73   1.419335 A    
S2    O5    1.503087 D    
C75   H31   1.077449 S    
C3    C11   1.377833 A    
C8    N8    1.340690 A    
C19   C21   1.369778 A    
C1    C9    1.392036 A    
C53   S4    1.779502 S    
S1    O1    1.503654 D    
C6    N6    1.325978 A    
C41   C42   1.404315 A    
C68   C71   1.400448 A    
C18   H12   1.076817 S    
C2    N2    1.331536 A    
C38   H16   1.083448 S    
C59   C60   1.382325 A    
S3    O9    1.683979 S    
C71   C72   1.405337 A    
C20   C22   1.376298 A    
C62   C66   1.403187 A    
N14   Ni1   1.883855 S    
C25   C30   1.392017 A    
C66   H28   1.083660 S    
C49   C54   1.369970 A    
N11   Ni3   1.898575 S    
C31   H14   1.081317 S    
C67   C75   1.392244 A    
C37   H19   1.081990 S    
S4    O10   1.503221 D    
C61   H29   1.085908 S    
C39   C40   1.402778 A    
C20   H13   1.081219 S    
S2    O6    1.682448 S    
C9    C68   1.474766 S    
C5    H3    1.079189 S    
C73   C74   1.400809 A    
C14   C22   1.383162 A    
C32   H15   1.083505 S    
C64   H25   1.086106 S    
N9    N15   1.373303 A    
C31   C32   1.398533 A    
C16   N12   1.344566 A    
O12   H38   0.990710 S    
C38   C39   1.404436 A    
N4    N6    1.373305 A    
C65   C66   1.390911 A    
S6    O16   1.501529 D    
C14   N10   1.338284 A    
C5    N5    1.323871 A    
C11   C57   1.423296 S    
C51   C52   1.406423 A    
C14   H8    1.078069 S    
N12   Ni4   1.835431 S    
C57   C64   1.388262 A    
N15   Ni4   1.898315 S    
C7    N7    1.333569 A    
C15   H9    1.075485 S    
S4    O11   1.503717 D    
C32   C33   1.400019 A    
C60   S5    1.777192 S    
C28   C29   1.408187 A    
C25   C26   1.416941 A    
N10   N16   1.373305 A    
S2    O4    1.502538 D    
C17   H11   1.078735 S    
N3    N5    1.373306 A    
C44   C47   1.396413 A    
C8    H6    1.078861 S    
C19   I2    2.119940 S    
C4    N4    1.347281 A    
C43   C44   1.371446 A    
C45   C50   1.401635 A    
S5    O13   1.502227 D    
S1    O2    1.502841 D    
C40   H17   1.078410 S    
C6    H4    1.065171 S    
O3    H35   0.990691 S    
C59   C63   1.392885 A    
C50   C51   1.410259 A    
O6    H36   0.990660 S    
N13   Ni2   1.831468 S    
C27   S2    1.785992 S    
C75   C76   1.400157 A    
C13   H7    1.080588 S    
