data_mof_unit_58344.cif
_audit_creation_date              2012-12-10T16:57:47-0500
_audit_creation_method            fapswitch 2.2
_symmetry_space_group_name_H-M    P1
_symmetry_Int_Tables_number       1
_space_group_crystal_system       triclinic
_cell_length_a                    7.75048
_cell_length_b                    8.577675
_cell_length_c                    19.22962
_cell_angle_alpha                 91.024601
_cell_angle_beta                  85.749503
_cell_angle_gamma                 93.712901
_cell_volume                      1272.10421373

loop_
_atom_site_label
_atom_site_type_symbol
_atom_type_description
_atom_site_fract_x
_atom_site_fract_y
_atom_site_fract_z
_atom_type_partial_charge
C1    C     C_R   0.545901 0.794832 0.498186 0.972017
C2    C     C_R   0.647109 0.511224 0.176556 -0.201842
C3    C     C_R   0.511748 0.504590 0.854459 0.095092
C4    C     C_R   0.490733 0.526798 0.146056 0.076555
C5    C     C_R   0.668647 0.499451 0.812625 0.124661
C6    C     C_R   0.334440 0.536509 0.188019 0.131811
C7    C     C_R   0.664526 0.497282 0.740285 -0.249238
C8    C     C_R   0.337983 0.526495 0.260257 -0.228434
C9    C     C_R   0.506126 0.499937 0.709770 -0.042839
C10   C     C_R   0.494729 0.508671 0.290299 -0.052922
C11   C     C_R   0.493748 0.526214 0.070432 0.284114
C12   C     C_R   0.454099 0.205168 0.501812 0.973076
C13   C     C_R   0.507884 0.509931 0.930206 0.298090
C14   C     C_2   0.570097 0.958287 0.497140 -0.380076
C15   C     C_2   0.429902 0.041711 0.502853 -0.380563
C16   C     C_R   0.501992 0.499841 0.634357 0.871286
C17   C     C_R   0.498127 0.501151 0.365636 0.872083
C18   C     C_R   0.350941 0.503394 0.751713 -0.198966
C19   C     C_R   0.649185 0.501925 0.248137 -0.197679
C20   C     C_R   0.353850 0.505434 0.823454 -0.213823
H1    H     H_    0.226939 0.505055 0.729259 0.157865
H2    H     H_    0.985959 0.617277 0.552478 0.188955
H3    H     H_    0.888267 0.391379 0.824845 0.184623
H4    H     H_    0.912059 0.588600 0.825321 0.182608
H5    H     H_    0.070916 0.556538 0.195583 0.169380
H6    H     H_    0.184016 0.671188 0.136474 0.191574
H7    H     H_    0.771813 0.488866 0.270317 0.158956
H8    H     H_    0.232128 0.510032 0.854758 0.161728
H9    H     H_    0.767711 0.502696 0.144834 0.166620
H10   H     H_    0.785359 0.493683 0.708269 0.154373
H11   H     H_    0.218579 0.533722 0.292888 0.152836
H12   H     H_    0.702459 0.009446 0.491689 0.180079
H13   H     H_    0.297541 0.990552 0.508305 0.179968
H14   H     H_    0.014040 0.382721 0.447523 0.189940
N1    N     N_R   0.642521 0.578040 0.963004 -0.137088
N2    N     N_R   0.359102 0.458312 0.037655 -0.136998
N3    N     N_R   0.635938 0.585356 0.032084 -0.174393
N4    N     N_R   0.365747 0.450951 0.968624 -0.176194
N5    N     N_2   0.950330 0.457950 0.481240 -0.176762
N6    N     N_2   0.049670 0.542050 0.518760 -0.177012
N7    N     N_3   0.831253 0.492969 0.843076 -0.446995
N8    N     N_3   0.174295 0.559017 0.157385 -0.442107
O1    O     O_R   0.389250 0.738570 0.504600 -0.611113
O2    O     O_R   0.610750 0.261430 0.495400 -0.610664
O3    O     O_R   0.678400 0.711620 0.492580 -0.629462
O4    O     O_R   0.321600 0.288380 0.507420 -0.629049
O5    O     O_R   0.355380 0.513500 0.607880 -0.623476
O6    O     O_R   0.644620 0.486500 0.392120 -0.622461
O7    O     O_R   0.644530 0.486550 0.595850 -0.629603
O8    O     O_R   0.355470 0.513450 0.404150 -0.630277
Zn1   Zn    Zn3+2 0.306930 0.517990 0.508030 0.940559
Zn2   Zn    Zn3+2 0.693070 0.482010 0.491970 0.941189

loop_
_geom_bond_atom_site_label_1
_geom_bond_atom_site_label_2
_ccdc_geom_bond_type
H5    N8    S    
C17   O8    A    
C2    C4    A    
C17   O6    A    
N6    Zn1   S    
C19   H7    S    
C3    C13   S    
C12   C15   S    
C10   C19   A    
O7    Zn2   S    
H2    N6    S    
O2    Zn2   S    
N2    N4    A    
N5    Zn2   S    
C5    C7    A    
C3    C20   A    
C12   O2    A    
C7    H10   S    
C4    C11   S    
H4    N7    S    
O1    Zn1   S    
C13   N4    A    
C2    H9    S    
C16   O5    A    
C4    C6    A    
C11   N2    A    
N1    N3    A    
C9    C16   S    
C15   H13   S    
C13   N1    A    
C18   C20   A    
C10   C17   S    
H14   N5    S    
C18   H1    S    
C7    C9    A    
C9    C18   A    
O6    Zn2   S    
C16   O7    A    
H6    N8    S    
C8    C10   A    
C6    N8    S    
C1    O3    A    
N5    N6    D    
C11   N3    A    
C5    N7    S    
C14   C15   D    
C6    C8    A    
C1    C14   S    
C20   H8    S    
O3    Zn2   S    
O8    Zn1   S    
C2    C19   A    
C8    H11   S    
O4    Zn1   S    
C1    O1    A    
O5    Zn1   S    
C14   H12   S    
C3    C5    A    
C12   O4    A    
H3    N7    S    
