data_mof_unit_7307.cif
_audit_creation_date              2012-12-10T17:38:20-0500
_audit_creation_method            fapswitch 2.2
_symmetry_space_group_name_H-M    P1
_symmetry_Int_Tables_number       1
_space_group_crystal_system       triclinic
_cell_length_a                    12.271086
_cell_length_b                    13.222724
_cell_length_c                    19.309458
_cell_angle_alpha                 77.307905
_cell_angle_beta                  100.552142
_cell_angle_gamma                 116.142748
_cell_volume                      2730.49168476

loop_
_atom_site_label
_atom_site_type_symbol
_atom_type_description
_atom_site_fract_x
_atom_site_fract_y
_atom_site_fract_z
_atom_type_partial_charge
C1    C     C_R   0.854308 0.286390 0.506322 0.813301
C2    C     C_R   0.999930 0.506261 0.707460 -0.117433
C3    C     C_R   0.002478 0.512345 0.068810 0.395825
C4    C     C_R   0.001285 0.518087 0.927615 0.445924
C5    C     C_R   0.068031 0.458992 0.195516 -0.178418
C6    C     C_R   0.066045 0.453729 0.268180 -0.085584
C7    C     C_R   0.001241 0.502532 0.291339 -0.106344
C8    C     C_R   0.935976 0.554511 0.240901 -0.242682
C9    C     C_R   0.938886 0.561917 0.168061 0.486000
C10   C     C_R   0.003471 0.511656 0.144981 -0.066921
C11   C     C_R   0.265383 0.038574 0.458947 -0.257252
C12   C     C_R   0.999701 0.500945 0.632278 0.807583
C13   C     C_R   0.226816 0.837606 0.476301 -0.275109
C14   C     C_R   0.810582 0.079707 0.547379 0.452186
C15   C     C_R   0.724021 0.967312 0.565352 -0.256153
C16   C     C_R   0.601181 0.936732 0.543811 -0.191004
C17   C     C_R   0.559744 0.015451 0.500816 0.141573
C18   C     C_R   0.643061 0.130298 0.483801 0.018706
C19   C     C_R   0.433914 0.983864 0.479920 -0.006497
C20   C     C_R   0.389811 0.068731 0.461099 0.048440
C21   C     C_R   0.470617 0.180800 0.440107 -0.147728
C22   C     C_R   0.594364 0.207587 0.443547 -0.145455
C23   C     C_R   0.145134 0.714151 0.488233 0.877548
C24   C     C_R   0.352198 0.871857 0.471722 0.290687
C25   C     C_R   0.183271 0.923377 0.469124 0.402098
C26   C     C_R   0.769427 0.163783 0.509801 -0.193619
C27   C     C_R   0.350615 0.338084 0.622046 0.329233
C28   C     C_R   0.749789 0.628403 0.395983 -0.026425
C29   C     C_R   0.639181 0.627494 0.362341 -0.304692
C30   C     C_R   0.531098 0.558070 0.394164 0.417017
C31   C     C_R   0.537728 0.506177 0.466684 -0.104770
C32   C     C_R   0.650663 0.499553 0.495389 0.242040
C33   C     C_R   0.437865 0.456047 0.510910 -0.061068
C34   C     C_R   0.000389 0.499954 0.367604 0.829861
C35   C     C_R   0.446184 0.385231 0.576950 0.018463
C36   C     C_R   0.550431 0.364267 0.596739 -0.160116
C37   C     C_R   0.650369 0.421532 0.557821 -0.178530
C38   C     C_R   0.333998 0.480607 0.495048 0.163352
C39   C     C_R   0.251141 0.366161 0.601874 -0.023167
C40   C     C_R   0.070416 0.464774 0.760868 -0.147581
C41   C     C_R   0.070182 0.470533 0.831890 -0.185147
C42   C     C_R   0.000406 0.518688 0.851095 -0.078445
C43   C     C_R   0.931509 0.564051 0.796865 0.448193
C44   C     C_R   0.930857 0.555436 0.725896 -0.242745
Cu1   Cu    Cu3+1 0.098280 0.475420 0.516260 1.025993
Cu2   Cu    Cu3+1 0.901720 0.524580 0.483740 0.938214
H1    H     H_    0.124646 0.426554 0.747916 0.185873
H2    H     H_    0.437550 0.245767 0.416866 0.191141
H3    H     H_    0.232667 0.104490 0.451373 0.165536
H4    H     H_    0.537521 0.852267 0.564590 0.202422
H5    H     H_    0.750417 0.903550 0.599479 0.165695
H6    H     H_    0.648656 0.289532 0.414877 0.188939
H7    H     H_    0.176967 0.331500 0.635132 0.190418
H8    H     H_    0.558417 0.305703 0.644028 0.225124
H9    H     H_    0.123642 0.435458 0.872200 0.188781
H10   H     H_    0.323403 0.536595 0.447484 0.241363
H11   H     H_    0.829692 0.672192 0.367030 0.135020
H12   H     H_    0.636428 0.670441 0.307834 0.176279
H13   H     H_    0.724237 0.398577 0.577976 0.205479
H14   H     H_    0.877799 0.589253 0.684486 0.210284
H15   H     H_    0.117736 0.419588 0.178804 0.193191
H16   H     H_    0.113189 0.409786 0.306266 0.220603
H17   H     H_    0.884035 0.591578 0.257756 0.162949
N1    N     N_R   0.899535 0.502252 0.954677 -0.124154
N2    N     N_R   0.900270 0.500232 0.023863 -0.147411
N3    N     N_R   0.103527 0.525053 0.042288 -0.221225
N4    N     N_R   0.102906 0.527908 0.972914 -0.224872
N5    N     N_R   0.246290 0.438200 0.540910 -0.238661
N6    N     N_R   0.754310 0.561190 0.459520 -0.198020
O1    O     O_R   0.972510 0.318130 0.520450 -0.527792
O2    O     O_R   0.806530 0.359650 0.492990 -0.623002
O3    O     O_R   0.083010 0.479220 0.613590 -0.584186
O4    O     O_R   0.917030 0.520740 0.586130 -0.605017
O5    O     O_R   0.193470 0.640350 0.507010 -0.521557
O6    O     O_R   0.027490 0.681870 0.479550 -0.567405
O7    O     O_R   0.082970 0.479260 0.413870 -0.554399
O8    O     O_R   0.916990 0.520780 0.386410 -0.605471
S1    S     S_3+6 0.399292 0.801168 0.422622 0.008756
O9    O     O_2   0.291738 0.725159 0.379058 -0.252588
O10   O     O_2   0.489071 0.888887 0.372562 -0.287541
O11   O     O_3   0.466776 0.724001 0.478393 -0.587339
H18   H     H_    0.545523 0.746402 0.459664 0.359168
O12   O     O_3   0.931847 0.113503 0.576173 -0.599656
C45   C     C_3   0.982249 0.037754 0.570813 0.038930
H19   H     H_    0.068599 0.089044 0.545364 0.181652
H20   H     H_    0.924136 0.971677 0.536475 0.154828
C46   C     C_3   0.012851 0.982306 0.645668 -0.305392
H21   H     H_    0.080880 0.049728 0.676056 0.274930
H22   H     H_    0.929916 0.937572 0.674604 0.233688
C47   C     C_3   0.064563 0.897385 0.643222 -0.746436
H23   H     H_    0.997011 0.827573 0.614286 0.271499
H24   H     H_    0.085571 0.859365 0.698418 0.265255
H25   H     H_    0.150006 0.941156 0.616473 0.269255
S2    S     S_3+6 0.353847 0.248209 0.704785 -0.018374
O13   O     O_2   0.467052 0.308650 0.751454 -0.240002
O14   O     O_2   0.243894 0.217523 0.742435 -0.310982
O15   O     O_3   0.355415 0.128514 0.689421 -0.567785
H26   H     H_    0.348983 0.079100 0.736554 0.385260
S3    S     S_3+6 0.398915 0.505760 0.333848 -0.028373
O16   O     O_2   0.308231 0.391621 0.365779 -0.347147
O17   O     O_2   0.341590 0.589051 0.314212 -0.265865
O18   O     O_3   0.438254 0.489663 0.259224 -0.504295
H27   H     H_    0.453376 0.562378 0.226256 0.362822
S4    S     S_3+6 0.850502 0.637573 0.813620 0.015455
O19   O     O_2   0.733910 0.552478 0.844146 -0.218812
O20   O     O_2   0.926715 0.717813 0.865671 -0.291005
O21   O     O_3   0.816281 0.712730 0.737371 -0.571228
H28   H     H_    0.770363 0.749564 0.751258 0.377943
O22   O     O_3   0.874375 0.615016 0.120018 -0.587856
C48   C     C_3   0.953315 0.729978 0.097287 0.109397
H29   H     H_    0.918097 0.755208 0.042134 0.211063
H30   H     H_    0.048674 0.742781 0.094205 0.133229
C49   C     C_3   0.952941 0.808179 0.145255 -0.414568
H31   H     H_    0.857391 0.792571 0.149193 0.241580
H32   H     H_    0.995153 0.789362 0.199656 0.213562
C50   C     C_3   0.024262 0.933657 0.115982 -0.822285
H33   H     H_    0.120546 0.951427 0.112406 0.270111
H34   H     H_    0.023077 0.987787 0.152164 0.255834
H35   H     H_    0.982322 0.956194 0.062249 0.266269
O23   O     O_3   0.062929 0.896576 0.475825 -0.617825
C51   C     C_3   0.995548 0.894970 0.407885 0.079930
H36   H     H_    0.898740 0.841397 0.417253 0.176202
H37   H     H_    0.020176 0.854689 0.371704 0.132484
C52   C     C_3   0.005417 0.013957 0.371690 -0.406813
H38   H     H_    0.996765 0.059330 0.411030 0.227114
H39   H     H_    0.095216 0.064342 0.350062 0.231982
C53   C     C_3   0.906085 0.006099 0.309891 -0.856692
H40   H     H_    0.912443 0.960420 0.269931 0.249813
H41   H     H_    0.917539 0.093300 0.283576 0.266986
H42   H     H_    0.814393 0.960195 0.329710 0.268587

loop_
_geom_bond_atom_site_label_1
_geom_bond_atom_site_label_2
_ccdc_geom_bond_type
C40   H1    S    
C46   H21   S    
C41   C42   A    
C19   C20   A    
C18   C26   A    
C45   C46   S    
C2    C12   S    
S4    O20   D    
O15   H26   S    
C7    C8    A    
C39   H7    S    
C28   H11   S    
C1    O2    A    
Cu1   O7    S    
C22   H6    S    
C36   C37   A    
C45   H20   S    
C34   O8    A    
C30   C31   A    
S1    O10   D    
C11   C25   A    
C15   C16   A    
C50   H33   S    
C13   C23   S    
C39   N5    A    
C43   S4    S    
S4    O19   D    
C51   C52   S    
C17   C19   A    
C48   H29   S    
C41   H9    S    
C28   N6    A    
C27   C39   A    
C16   C17   A    
Cu2   N6    S    
O21   H28   S    
C31   C33   A    
C15   H5    S    
C9    C10   A    
C21   H2    S    
N3    N4    A    
C12   O3    A    
C21   C22   A    
Cu1   O3    S    
C13   C25   A    
C3    N2    A    
C14   O12   S    
C12   O4    A    
Cu2   O6    S    
O11   H18   S    
C9    O22   S    
C11   C20   A    
C45   H19   S    
C2    C44   A    
S1    O9    D    
C8    C9    A    
S2    O15   S    
C27   C35   A    
Cu1   Cu2   S    
C30   S3    S    
C13   C24   A    
Cu1   O5    S    
C35   C36   A    
C43   C44   A    
C53   H41   S    
C29   C30   A    
C11   H3    S    
C4    N4    A    
C47   H24   S    
C31   C32   A    
C20   C21   A    
Cu1   N5    S    
C17   C18   A    
C51   H36   S    
C5    H15   S    
S2    O13   D    
C32   C37   A    
C14   C26   A    
S2    O14   D    
C48   C49   S    
Cu2   O2    S    
C37   H13   S    
C52   C53   S    
C24   S1    S    
C40   C41   A    
S3    O17   D    
C38   N5    A    
C46   H22   S    
C1    C26   S    
C7    C34   S    
O12   C45   S    
C3    N3    A    
C42   C43   A    
C23   O5    A    
C53   H40   S    
C25   O23   S    
O23   C51   S    
C47   H25   S    
C52   H39   S    
C49   H31   S    
C28   C29   A    
Cu1   O1    S    
C18   C22   A    
C32   N6    A    
C1    O1    A    
C23   O6    A    
Cu2   O8    S    
C6    C7    A    
C4    N1    A    
C33   C38   A    
C50   H35   S    
N1    N2    A    
C49   C50   S    
C19   C24   A    
C53   H42   S    
C5    C10   A    
C3    C10   S    
S3    O16   D    
S1    O11   S    
C6    H16   S    
C47   H23   S    
C5    C6    A    
C4    C42   S    
C44   H14   S    
C33   C35   A    
C50   H34   S    
Cu2   O4    S    
O18   H27   S    
C16   H4    S    
C48   H30   S    
C51   H37   S    
C36   H8    S    
C8    H17   S    
C2    C40   A    
S3    O18   S    
C38   H10   S    
C29   H12   S    
C46   C47   S    
C14   C15   A    
C27   S2    S    
O22   C48   S    
S4    O21   S    
C34   O7    A    
C52   H38   S    
C49   H32   S    
