data_mof_unit_39999.cif
_audit_creation_date              2012-12-10T20:12:31-0500
_audit_creation_method            fapswitch 2.2
_symmetry_space_group_name_H-M    P1
_symmetry_Int_Tables_number       1
_space_group_crystal_system       triclinic
_cell_length_a                    15.885816
_cell_length_b                    15.885759
_cell_length_c                    60.022846
_cell_angle_alpha                 90.001543
_cell_angle_beta                  90.000431
_cell_angle_gamma                 90.034172
_cell_volume                      15147.2573462

loop_
_atom_site_label
_atom_site_type_symbol
_atom_type_description
_atom_site_fract_x
_atom_site_fract_y
_atom_site_fract_z
_atom_type_partial_charge
C1    C     C_R   0.500002 0.000001 0.810415 0.864813
C2    C     C_R   0.468650 0.849570 0.452863 0.511840
C3    C     C_1   0.223403 0.723400 0.750000 -0.145737
C4    C     C_1   0.276602 0.223394 0.249999 -0.150714
C5    C     C_1   0.723410 0.776596 0.750002 -0.144369
C6    C     C_1   0.223391 0.723390 0.250001 -0.152430
C7    C     C_1   0.776597 0.276600 0.749999 -0.145761
C8    C     C_R   0.490562 0.074534 0.582596 0.639121
C9    C     C_R   0.485555 0.926248 0.417299 0.639981
C10   C     C_R   0.926503 0.485221 0.582712 0.640081
C11   C     C_R   0.074527 0.490645 0.417401 0.639061
C12   C     C_R   0.509564 0.925557 0.582602 0.639164
C13   C     C_R   0.849793 0.468228 0.547155 0.511876
C14   C     C_R   0.514515 0.073643 0.417294 0.639932
C15   C     C_R   0.073816 0.514596 0.582705 0.640086
C16   C     C_R   0.925508 0.509288 0.417411 0.639067
C17   C     C_R   0.988907 0.574300 0.082635 0.639245
C18   C     C_R   0.987249 0.426026 0.917332 0.639486
C19   C     C_R   0.425998 0.987182 0.082668 0.639572
C20   C     C_R   0.574330 0.989025 0.917370 0.639152
C21   C     C_R   0.011033 0.425757 0.082631 0.639270
C22   C     C_R   0.012678 0.574067 0.917335 0.639501
C23   C     C_R   0.574008 0.012798 0.082670 0.639528
C24   C     C_R   0.152226 0.479160 0.452960 0.511749
C25   C     C_R   0.425761 0.010984 0.917369 0.639282
C26   C     C_R   0.429662 0.970100 0.629498 0.308729
C27   C     C_R   0.431734 0.034357 0.370402 0.307646
C28   C     C_R   0.034957 0.431889 0.629617 0.308434
C29   C     C_R   0.970364 0.429492 0.370503 0.308682
C30   C     C_R   0.570385 0.030029 0.629508 0.308985
C31   C     C_R   0.568302 0.965559 0.370397 0.308168
C32   C     C_R   0.965282 0.568013 0.629602 0.307444
C33   C     C_R   0.029593 0.570499 0.370506 0.308722
C34   C     C_R   0.930109 0.468931 0.129529 0.308373
C35   C     C_R   0.521097 0.847876 0.547041 0.511762
C36   C     C_R   0.930760 0.532470 0.870439 0.308105
C37   C     C_R   0.532640 0.930864 0.129562 0.308130
C38   C     C_R   0.469141 0.930042 0.870476 0.308336
C39   C     C_R   0.069866 0.531097 0.129528 0.308457
C40   C     C_R   0.069220 0.467613 0.870444 0.308130
C41   C     C_R   0.467351 0.069122 0.129563 0.308144
C42   C     C_R   0.530940 0.069961 0.870474 0.308371
C43   C     C_R   0.431381 0.964992 0.652846 0.358393
C44   C     C_R   0.433838 0.039380 0.347058 0.358542
C45   C     C_R   0.039822 0.434016 0.652963 0.358327
C46   C     C_R   0.531460 0.150360 0.452852 0.511825
C47   C     C_R   0.965275 0.431202 0.347155 0.358306
C48   C     C_R   0.568635 0.035099 0.652856 0.358455
C49   C     C_R   0.566226 0.960646 0.347052 0.358339
C50   C     C_R   0.960188 0.565857 0.652945 0.358620
C51   C     C_R   0.034672 0.568806 0.347158 0.358273
C52   C     C_R   0.931923 0.463887 0.152875 0.358392
C53   C     C_R   0.932678 0.537441 0.847093 0.358353
C54   C     C_R   0.537632 0.932802 0.152909 0.358376
C55   C     C_R   0.464098 0.931827 0.847129 0.358321
C56   C     C_R   0.068070 0.536115 0.152875 0.358343
C57   C     C_R   0.150472 0.531576 0.547139 0.511830
C58   C     C_R   0.067314 0.462621 0.847098 0.358346
C59   C     C_R   0.462363 0.067185 0.152909 0.358392
C60   C     C_R   0.535955 0.068174 0.847127 0.358313
C61   C     C_R   0.500035 0.000062 0.617757 -0.003101
C62   C     C_R   0.500011 0.999932 0.382145 -0.004327
C63   C     C_R   0.000169 0.499957 0.617862 -0.004636
C64   C     C_R   0.999986 0.499989 0.382250 -0.002858
C65   C     C_R   0.999983 0.500021 0.117785 -0.003138
C66   C     C_R   0.999986 0.500046 0.882185 -0.003407
C67   C     C_R   0.499996 0.999993 0.117819 -0.003564
C68   C     C_R   0.847872 0.520714 0.452981 0.511733
C69   C     C_R   0.500046 0.000002 0.882218 -0.003014
C70   C     C_R   0.500069 0.000023 0.547246 -0.167990
C71   C     C_R   0.500052 0.999965 0.452649 -0.169097
C72   C     C_R   0.000133 0.499902 0.547356 -0.169239
C73   C     C_R   0.000049 0.499939 0.452759 -0.167893
C74   C     C_R   0.999947 0.500034 0.047281 -0.168088
C75   C     C_R   0.999938 0.500047 0.952686 -0.168427
C76   C     C_R   0.500012 0.999983 0.047317 -0.168486
C77   C     C_R   0.500037 0.999983 0.952722 -0.168037
C78   C     C_R   0.489927 0.076441 0.559077 -0.143344
C79   C     C_R   0.975475 0.651668 0.047074 0.511589
C80   C     C_R   0.484738 0.924392 0.440818 -0.141102
C81   C     C_R   0.924609 0.484432 0.559194 -0.140923
C82   C     C_R   0.076466 0.489956 0.440920 -0.143289
C83   C     C_R   0.510205 0.923620 0.559083 -0.143243
C84   C     C_R   0.515357 0.075524 0.440812 -0.141017
C85   C     C_R   0.075676 0.515373 0.559186 -0.141166
C86   C     C_R   0.923611 0.509938 0.440930 -0.143279
C87   C     C_R   0.988133 0.576201 0.059117 -0.142731
C88   C     C_R   0.986392 0.424150 0.940850 -0.141933
C89   C     C_R   0.424125 0.986360 0.059150 -0.141924
C90   C     C_R   0.971976 0.348982 0.952892 0.511666
C91   C     C_R   0.576220 0.988235 0.940889 -0.142745
C92   C     C_R   0.011775 0.423863 0.059113 -0.142676
C93   C     C_R   0.013499 0.575944 0.940853 -0.141969
C94   C     C_R   0.575894 0.013612 0.059152 -0.141952
C95   C     C_R   0.423860 0.011744 0.940887 -0.142686
C96   C     C_3   0.615970 0.152558 0.671443 0.134907
C97   C     C_3   0.642067 0.219196 0.654333 -0.298675
C98   C     C_3   0.630111 0.308052 0.663477 -0.965256
C99   C     C_3   0.605415 0.840656 0.328303 0.132241
C100  C     C_3   0.623748 0.772344 0.345657 -0.302452
C101  C     C_R   0.348968 0.971904 0.047105 0.511629
C102  C     C_3   0.604456 0.684744 0.336533 -0.962259
C103  C     C_3   0.839670 0.603806 0.671631 0.132405
C104  C     C_3   0.771660 0.618402 0.653937 -0.305414
C105  C     C_3   0.684204 0.597833 0.662959 -0.961328
C106  C     C_3   0.151864 0.616872 0.328589 0.135383
C107  C     C_3   0.218306 0.643349 0.345711 -0.299157
C108  C     C_3   0.307240 0.632080 0.336563 -0.964297
C109  C     C_3   0.383941 0.847532 0.671413 0.135151
C110  C     C_3   0.358389 0.780951 0.654224 -0.299414
C111  C     C_3   0.370225 0.692052 0.663352 -0.964427
C112  C     C_R   0.500000 0.999999 0.189594 0.865022
C113  C     C_R   0.651690 0.975629 0.952934 0.511581
C114  C     C_3   0.394950 0.159556 0.328354 0.132529
C115  C     C_3   0.378348 0.227670 0.345894 -0.304197
C116  C     C_3   0.398138 0.315268 0.336840 -0.961556
C117  C     C_3   0.160025 0.395656 0.671734 0.131763
C118  C     C_3   0.228499 0.377785 0.654392 -0.302155
C119  C     C_3   0.315935 0.397742 0.663523 -0.962754
C120  C     C_3   0.848070 0.383170 0.328584 0.135411
C121  C     C_3   0.781627 0.356893 0.345728 -0.299315
C122  C     C_3   0.692689 0.368168 0.336583 -0.964526
C123  C     C_3   0.113534 0.654193 0.171511 0.134594
C124  C     C_R   0.024411 0.348399 0.047067 0.511548
C125  C     C_3   0.137500 0.721327 0.154314 -0.300467
C126  C     C_3   0.123825 0.809928 0.163463 -0.963236
C127  C     C_3   0.110147 0.343733 0.828419 0.133758
C128  C     C_3   0.131776 0.276091 0.845684 -0.301571
C129  C     C_3   0.115664 0.187869 0.836554 -0.962446
C130  C     C_3   0.343329 0.109558 0.171594 0.133586
C131  C     C_3   0.275616 0.130625 0.154299 -0.301737
C132  C     C_3   0.187464 0.114080 0.163419 -0.962599
C133  C     C_3   0.653912 0.113945 0.828492 0.134788
C134  C     C_3   0.720982 0.138174 0.845679 -0.300570
C135  C     C_R   0.027895 0.651112 0.952897 0.511589
C136  C     C_3   0.809608 0.124716 0.836530 -0.963008
C137  C     C_3   0.886511 0.345770 0.171501 0.134578
C138  C     C_3   0.862761 0.278650 0.154273 -0.300743
C139  C     C_3   0.876497 0.190027 0.163405 -0.963146
C140  C     C_3   0.889862 0.656314 0.828405 0.133752
C141  C     C_3   0.868318 0.723981 0.845673 -0.301630
C142  C     C_3   0.884439 0.812200 0.836540 -0.962358
C143  C     C_3   0.656659 0.890397 0.171594 0.133672
C144  C     C_3   0.724365 0.869439 0.154287 -0.301874
C145  C     C_3   0.812529 0.885923 0.163410 -0.962429
C146  C     C_R   0.651057 0.028063 0.047111 0.511615
C147  C     C_3   0.346129 0.886024 0.828502 0.134778
C148  C     C_3   0.279082 0.861774 0.845694 -0.300533
C149  C     C_3   0.190438 0.875162 0.836546 -0.962934
C150  C     C_3   0.378222 0.241270 0.560847 0.177872
C151  C     C_3   0.340956 0.293796 0.541816 -0.451076
C152  C     C_3   0.250354 0.319666 0.546795 -0.830829
C153  C     C_3   0.362095 0.767527 0.438931 0.177744
C154  C     C_3   0.321094 0.716839 0.457777 -0.444778
C155  C     C_3   0.228834 0.697887 0.452717 -0.830340
C156  C     C_3   0.767834 0.361574 0.561071 0.177708
C157  C     C_R   0.348384 0.024339 0.952930 0.511540
C158  C     C_3   0.716865 0.320686 0.542260 -0.444458
C159  C     C_3   0.697965 0.228401 0.547303 -0.830391
C160  C     C_3   0.241387 0.378475 0.439108 0.177803
C161  C     C_3   0.293845 0.341139 0.458143 -0.451265
C162  C     C_3   0.319742 0.250560 0.453145 -0.830632
C163  C     C_3   0.621870 0.758734 0.560859 0.177845
C164  C     C_3   0.659054 0.706086 0.541839 -0.451121
C165  C     C_3   0.749634 0.680134 0.546818 -0.830737
C166  C     C_3   0.638006 0.232372 0.438903 0.177740
C167  C     C_3   0.679047 0.283066 0.457743 -0.444799
C168  C     C_R   0.500005 0.000030 0.664818 -0.388520
C169  C     C_3   0.771305 0.301988 0.452672 -0.830175
C170  C     C_3   0.232450 0.638231 0.561047 0.177780
C171  C     C_3   0.283284 0.679146 0.542215 -0.444632
C172  C     C_3   0.302238 0.771418 0.547261 -0.830442
C173  C     C_3   0.758679 0.621420 0.439155 0.177812
C174  C     C_3   0.706245 0.658710 0.458202 -0.451192
C175  C     C_3   0.680337 0.749299 0.453221 -0.830861
C176  C     C_3   0.872687 0.738301 0.060975 0.177838
C177  C     C_3   0.833930 0.789986 0.041992 -0.448981
C178  C     C_3   0.742710 0.813408 0.047032 -0.830633
C179  C     C_R   0.500017 0.000003 0.335117 -0.386764
C180  C     C_3   0.867246 0.264691 0.938939 0.177815
C181  C     C_3   0.827158 0.213660 0.957860 -0.446879
C182  C     C_3   0.735373 0.192574 0.952783 -0.830341
C183  C     C_3   0.264694 0.867119 0.061036 0.177853
C184  C     C_3   0.213605 0.827095 0.042116 -0.446804
C185  C     C_3   0.192497 0.735304 0.047180 -0.830505
C186  C     C_3   0.738360 0.872904 0.939017 0.177901
C187  C     C_3   0.789812 0.834033 0.958029 -0.449326
C188  C     C_3   0.813305 0.742847 0.952969 -0.830649
C189  C     C_3   0.127198 0.261726 0.060951 0.177842
C190  C     C_R   0.000009 0.499964 0.664889 -0.386465
C191  C     C_3   0.165882 0.209990 0.041967 -0.448976
C192  C     C_3   0.257096 0.186513 0.046996 -0.830698
C193  C     C_3   0.132652 0.735392 0.938955 0.177860
C194  C     C_3   0.172737 0.786369 0.957888 -0.446920
C195  C     C_3   0.264531 0.807447 0.952820 -0.830508
C196  C     C_3   0.735317 0.132850 0.061048 0.177869
C197  C     C_3   0.786373 0.172889 0.042126 -0.446866
C198  C     C_3   0.807479 0.264677 0.047192 -0.830430
C199  C     C_3   0.261730 0.127132 0.939043 0.177651
C200  C     C_3   0.209786 0.165764 0.957993 -0.448576
C201  C     C_R   0.999980 0.500003 0.335187 -0.388601
C202  C     C_3   0.186518 0.257046 0.952984 -0.830739
C203  C     C_R   0.999998 0.500001 0.164835 -0.388105
C204  C     C_R   1.000000 0.500002 0.810407 0.864977
C205  C     C_R   0.999997 0.500021 0.835145 -0.387571
C206  C     C_R   0.500000 0.999996 0.164858 -0.387449
C207  C     C_R   0.500016 0.000002 0.835167 -0.388196
C208  C     C_R   0.005096 0.577095 0.988191 0.017944
C209  C     C_R   0.003283 0.422894 0.011776 0.017398
C210  C     C_R   0.422878 0.003273 0.988224 0.017393
C211  C     C_R   0.577069 0.005208 0.011815 0.017961
C212  C     C_R   0.994750 0.422993 0.988188 0.018048
C213  C     C_R   0.996573 0.577186 0.011779 0.017357
C214  C     C_R   0.577176 0.996680 0.988227 0.017374
C215  C     C_R   1.000000 0.500001 0.189586 0.864848
C216  C     C_R   0.422974 0.994745 0.011812 0.018007
C217  C     C_R   0.507026 0.076898 0.488151 0.018699
C218  C     C_R   0.501635 0.922798 0.511745 0.016958
C219  C     C_R   0.922876 0.501349 0.488268 0.016990
C220  C     C_R   0.077002 0.507001 0.511847 0.018660
C221  C     C_R   0.493103 0.923074 0.488156 0.018710
C222  C     C_R   0.498501 0.077203 0.511739 0.016948
C223  C     C_R   0.077286 0.498482 0.488259 0.016969
C224  C     C_R   0.923203 0.492810 0.511856 0.018692
C225  C     C_R   0.999927 0.500045 0.976399 0.084616
C226  C     C_R   0.999996 0.500001 0.310422 0.864901
C227  C     C_R   0.999934 0.500038 0.023568 0.084401
C228  C     C_R   0.500031 0.999977 0.976435 0.084397
C229  C     C_R   0.500019 0.999978 0.023604 0.084612
C230  C     C_R   0.500061 0.999979 0.476362 0.084694
C231  C     C_R   0.500069 0.000008 0.523533 0.084124
C232  C     C_R   0.000070 0.499923 0.476473 0.084132
C233  C     C_R   0.000113 0.499904 0.523643 0.084688
C234  C     C_R   0.020042 0.651519 0.976032 -0.326735
C235  C     C_R   0.016489 0.348159 0.023933 -0.326514
C236  C     C_R   0.348139 0.016427 0.976064 -0.326441
C237  C     C_R   0.000019 0.499994 0.689606 0.865498
C238  C     C_R   0.651477 0.020212 0.023976 -0.326814
C239  C     C_R   0.979798 0.348574 0.976028 -0.326951
C240  C     C_R   0.983373 0.651916 0.023940 -0.326497
C241  C     C_R   0.651922 0.983533 0.976069 -0.326523
C242  C     C_R   0.348560 0.979744 0.023970 -0.326835
C243  C     C_R   0.523677 0.150951 0.475988 -0.327094
C244  C     C_R   0.513109 0.847790 0.523908 -0.326246
C245  C     C_R   0.847832 0.512709 0.476113 -0.326258
C246  C     C_R   0.151044 0.523772 0.524003 -0.327056
C247  C     C_R   0.476450 0.849006 0.475999 -0.327079
C248  C     C_R   0.500003 0.999989 0.310396 0.865356
C249  C     C_R   0.487022 0.152226 0.523896 -0.326284
C250  C     C_R   0.152307 0.487133 0.476093 -0.326245
C251  C     C_R   0.849182 0.476030 0.524020 -0.327092
C252  C     C_R   0.660327 0.839677 0.750001 0.843740
C253  C     C_R   0.339679 0.160319 0.249999 0.828324
C254  C     C_R   0.160318 0.660316 0.750000 0.842570
C255  C     C_R   0.839687 0.339688 0.250000 0.828226
C256  C     C_R   0.339674 0.160324 0.750001 0.843748
C257  C     C_R   0.660321 0.839680 0.250000 0.828245
C258  C     C_R   0.839682 0.339684 0.749999 0.842634
C259  C     C_R   0.500000 0.000010 0.689580 0.864959
C260  C     C_R   0.160313 0.660313 0.250000 0.828220
C261  C     C_R   0.660316 0.160318 0.250001 0.842649
C262  C     C_R   0.339687 0.839688 0.750000 0.828221
C263  C     C_R   0.160323 0.339674 0.249999 0.843760
C264  C     C_R   0.839681 0.660321 0.750001 0.828403
C265  C     C_R   0.339684 0.839682 0.250000 0.842628
C266  C     C_R   0.660312 0.160313 0.750000 0.828174
C267  C     C_R   0.839676 0.660326 0.250000 0.843769
C268  C     C_R   0.160320 0.339679 0.750000 0.828215
C269  C     C_1   0.723389 0.223392 0.749999 -0.152370
C270  C     C_R   0.479028 0.152168 0.547029 0.511807
C271  C     C_1   0.276600 0.776597 0.250001 -0.145783
C272  C     C_1   0.776607 0.723399 0.750002 -0.150652
C273  C     C_1   0.223405 0.276591 0.249998 -0.144420
C274  C     C_1   0.276610 0.776609 0.749999 -0.152395
C275  C     C_1   0.723400 0.223403 0.250001 -0.145775
C276  C     C_1   0.223394 0.276603 0.750001 -0.150682
C277  C     C_1   0.776594 0.723409 0.249999 -0.144473
C278  C     C_1   0.723397 0.776605 0.249999 -0.150749
C279  C     C_1   0.276591 0.223406 0.750001 -0.144437
C280  C     C_1   0.776608 0.276611 0.250001 -0.152410
Cl1   Cl    Cl    0.661536 0.061541 0.614920 -0.552831
Cl2   Cl    Cl    0.159080 0.432772 0.885043 -0.551766
Cl3   Cl    Cl    0.432227 0.158887 0.114971 -0.551571
Cl4   Cl    Cl    0.563751 0.160627 0.885073 -0.552558
Cl5   Cl    Cl    0.839517 0.435905 0.114932 -0.552452
Cl6   Cl    Cl    0.840891 0.567326 0.885032 -0.551713
Cl7   Cl    Cl    0.567757 0.841095 0.114970 -0.551627
Cl8   Cl    Cl    0.436351 0.839375 0.885076 -0.552561
Cl9   Cl    Cl    0.657157 0.928133 0.384978 -0.550525
Cl10  Cl    Cl    0.927281 0.656610 0.615014 -0.549916
Cl11  Cl    Cl    0.060639 0.661782 0.385107 -0.553037
Cl12  Cl    Cl    0.338520 0.938637 0.614898 -0.552910
Cl13  Cl    Cl    0.342899 0.071803 0.384989 -0.550263
Cl14  Cl    Cl    0.072954 0.343248 0.615047 -0.550412
Cl15  Cl    Cl    0.939314 0.338202 0.385099 -0.553000
Cl16  Cl    Cl    0.160449 0.564132 0.114930 -0.552484
H1    H     H_    0.029652 0.711265 0.984155 0.159901
H2    H     H_    0.519822 0.787652 0.515790 0.159822
H3    H     H_    0.819944 0.164373 0.821531 0.262806
H4    H     H_    0.850244 0.333813 0.187011 0.173346
H5    H     H_    0.954345 0.339317 0.176037 0.086615
H6    H     H_    0.795499 0.286048 0.149565 0.271386
H7    H     H_    0.902075 0.286697 0.139118 0.255572
H8    H     H_    0.943707 0.180785 0.167897 0.266759
H9    H     H_    0.859046 0.142974 0.150522 0.285344
H10   H     H_    0.836681 0.179452 0.178362 0.262809
H11   H     H_    0.853464 0.669136 0.812965 0.172348
H12   H     H_    0.957696 0.661145 0.823731 0.086739
H13   H     H_    0.787697 0.519340 0.484237 0.159864
H14   H     H_    0.800951 0.718396 0.850457 0.271212
H15   H     H_    0.907632 0.714825 0.860784 0.255471
H16   H     H_    0.951837 0.819646 0.831997 0.266844
H17   H     H_    0.868442 0.859679 0.849440 0.285121
H18   H     H_    0.844784 0.823877 0.821612 0.262667
H19   H     H_    0.669730 0.853844 0.186994 0.172231
H20   H     H_    0.661168 0.958184 0.176335 0.086805
H21   H     H_    0.719124 0.802106 0.149442 0.271198
H22   H     H_    0.714936 0.908893 0.139212 0.255445
H23   H     H_    0.824501 0.846095 0.178289 0.262645
H24   H     H_    0.210532 0.534832 0.515878 0.159506
H25   H     H_    0.819606 0.953289 0.168028 0.266865
H26   H     H_    0.860035 0.870409 0.150477 0.285139
H27   H     H_    0.334371 0.849882 0.812958 0.173462
H28   H     H_    0.339366 0.953879 0.824021 0.086560
H29   H     H_    0.286806 0.794504 0.850357 0.271417
H30   H     H_    0.286894 0.900972 0.860881 0.255562
H31   H     H_    0.180860 0.942374 0.832105 0.266688
H32   H     H_    0.143422 0.857303 0.849399 0.285331
H33   H     H_    0.180115 0.835473 0.821552 0.262805
H34   H     H_    0.370537 0.276870 0.576651 0.204426
H35   H     H_    0.465472 0.789500 0.484123 0.159525
H36   H     H_    0.341842 0.181560 0.562947 0.130474
H37   H     H_    0.379660 0.351333 0.539298 0.250589
H38   H     H_    0.341495 0.256591 0.526158 0.215817
H39   H     H_    0.210483 0.263110 0.549486 0.266827
H40   H     H_    0.224657 0.355531 0.532454 0.259566
H41   H     H_    0.247888 0.360229 0.561859 0.299965
H42   H     H_    0.352223 0.733145 0.423021 0.205917
H43   H     H_    0.329845 0.829597 0.436977 0.128939
H44   H     H_    0.355445 0.656513 0.460071 0.253263
H45   H     H_    0.324394 0.753078 0.473571 0.214117
H46   H     H_    0.480299 0.212353 0.515773 0.159849
H47   H     H_    0.193304 0.757322 0.450183 0.266131
H48   H     H_    0.200432 0.663443 0.466949 0.259082
H49   H     H_    0.223432 0.658242 0.437534 0.299826
H50   H     H_    0.733682 0.351621 0.577011 0.206064
H51   H     H_    0.829926 0.329299 0.562949 0.128693
H52   H     H_    0.656513 0.355061 0.540040 0.253394
H53   H     H_    0.752875 0.324063 0.526432 0.214011
H54   H     H_    0.757426 0.192848 0.549769 0.266047
H55   H     H_    0.663327 0.200079 0.533093 0.259111
H56   H     H_    0.658519 0.222928 0.562520 0.299796
H57   H     H_    0.212456 0.480488 0.484209 0.159874
H58   H     H_    0.277060 0.370884 0.423312 0.204251
H59   H     H_    0.181701 0.342081 0.436977 0.130631
H60   H     H_    0.351368 0.379840 0.460687 0.250551
H61   H     H_    0.256581 0.341612 0.473791 0.215882
H62   H     H_    0.263200 0.210691 0.450430 0.266858
H63   H     H_    0.355567 0.224813 0.467487 0.259590
H64   H     H_    0.360351 0.248157 0.438089 0.299981
H65   H     H_    0.629558 0.723205 0.576674 0.204408
H66   H     H_    0.658302 0.818426 0.562933 0.130422
H67   H     H_    0.620283 0.648582 0.539341 0.250593
H68   H     H_    0.789681 0.464967 0.515901 0.159487
H69   H     H_    0.658537 0.743226 0.526171 0.215803
H70   H     H_    0.789573 0.736656 0.549490 0.266829
H71   H     H_    0.775272 0.644180 0.532485 0.259576
H72   H     H_    0.752073 0.639629 0.561893 0.299946
H73   H     H_    0.647857 0.266741 0.422990 0.205901
H74   H     H_    0.670241 0.170295 0.436947 0.128974
H75   H     H_    0.644715 0.343404 0.460036 0.253295
H76   H     H_    0.675759 0.246843 0.473538 0.214115
H77   H     H_    0.806814 0.242542 0.450137 0.266116
H78   H     H_    0.799739 0.336433 0.466900 0.259087
H79   H     H_    0.651698 0.163662 0.687089 0.173929
H80   H     H_    0.776696 0.341624 0.437488 0.299839
H81   H     H_    0.266704 0.648182 0.576973 0.206041
H82   H     H_    0.170362 0.670486 0.562956 0.128748
H83   H     H_    0.343613 0.644765 0.539959 0.253313
H84   H     H_    0.247152 0.675804 0.526406 0.214047
H85   H     H_    0.242802 0.806978 0.549763 0.266098
H86   H     H_    0.336776 0.799760 0.533037 0.259084
H87   H     H_    0.341799 0.776858 0.562459 0.299813
H88   H     H_    0.722983 0.629042 0.423364 0.204262
H89   H     H_    0.818358 0.657824 0.437024 0.130611
H90   H     H_    0.548067 0.160505 0.675739 0.086678
H91   H     H_    0.648728 0.620000 0.460744 0.250527
H92   H     H_    0.743530 0.658205 0.473846 0.215885
H93   H     H_    0.736873 0.789177 0.450510 0.266849
H94   H     H_    0.644525 0.775008 0.467570 0.259580
H95   H     H_    0.639712 0.751734 0.438169 0.299975
H96   H     H_    0.864326 0.773641 0.076796 0.204780
H97   H     H_    0.837786 0.677719 0.063085 0.130174
H98   H     H_    0.871082 0.848548 0.039492 0.251428
H99   H     H_    0.835352 0.752938 0.026312 0.215324
H100  H     H_    0.704388 0.755797 0.049732 0.266686
H101  H     H_    0.709321 0.210185 0.649819 0.271071
H102  H     H_    0.715926 0.848622 0.032718 0.259423
H103  H     H_    0.739296 0.853829 0.062110 0.299904
H104  H     H_    0.858164 0.229726 0.923086 0.205301
H105  H     H_    0.833778 0.326053 0.936863 0.129711
H106  H     H_    0.862786 0.154161 0.960295 0.252334
H107  H     H_    0.829520 0.250404 0.973583 0.214766
H108  H     H_    0.698573 0.251153 0.950128 0.266456
H109  H     H_    0.707626 0.157862 0.967060 0.259246
H110  H     H_    0.730957 0.152447 0.937667 0.299869
H111  H     H_    0.229776 0.857986 0.076895 0.205362
H112  H     H_    0.024648 0.288209 0.015810 0.159965
H113  H     H_    0.603226 0.212189 0.639053 0.255919
H114  H     H_    0.326061 0.833642 0.063092 0.129621
H115  H     H_    0.154113 0.862749 0.039697 0.252342
H116  H     H_    0.250313 0.829482 0.026388 0.214734
H117  H     H_    0.251067 0.698476 0.049821 0.266457
H118  H     H_    0.157746 0.707603 0.032903 0.259237
H119  H     H_    0.152397 0.730865 0.062300 0.299847
H120  H     H_    0.773881 0.864614 0.923223 0.204703
H121  H     H_    0.677791 0.838040 0.936845 0.130372
H122  H     H_    0.848339 0.871173 0.960599 0.251366
H123  H     H_    0.752569 0.835351 0.973677 0.215416
H124  H     H_    0.562955 0.318942 0.667763 0.267035
H125  H     H_    0.755732 0.704541 0.950201 0.266786
H126  H     H_    0.848339 0.715976 0.967303 0.259409
H127  H     H_    0.853914 0.739537 0.937926 0.299932
H128  H     H_    0.135581 0.226410 0.076775 0.204780
H129  H     H_    0.162134 0.322294 0.063049 0.130141
H130  H     H_    0.128685 0.151450 0.039477 0.251414
H131  H     H_    0.164452 0.247017 0.026284 0.215324
H132  H     H_    0.295464 0.244102 0.049684 0.266672
H133  H     H_    0.283825 0.151257 0.032682 0.259431
H134  H     H_    0.260515 0.146115 0.062078 0.299901
H135  H     H_    0.649344 0.354764 0.650685 0.285560
H136  H     H_    0.141755 0.770391 0.923109 0.205280
H137  H     H_    0.166106 0.674026 0.936871 0.129749
H138  H     H_    0.137121 0.845870 0.960331 0.252294
H139  H     H_    0.170356 0.749589 0.973604 0.214785
H140  H     H_    0.301322 0.748866 0.950157 0.266483
H141  H     H_    0.292274 0.842122 0.967104 0.259233
H142  H     H_    0.268967 0.847606 0.937711 0.299853
H143  H     H_    0.770255 0.141981 0.076904 0.205343
H144  H     H_    0.673947 0.166315 0.063110 0.129656
H145  H     H_    0.845864 0.137241 0.039698 0.252338
H146  H     H_    0.669476 0.317546 0.678570 0.262666
H147  H     H_    0.749641 0.170508 0.026401 0.214742
H148  H     H_    0.748909 0.301500 0.049840 0.266450
H149  H     H_    0.842214 0.292388 0.032915 0.259247
H150  H     H_    0.847594 0.269110 0.062310 0.299867
H151  H     H_    0.226572 0.135531 0.923195 0.204733
H152  H     H_    0.322305 0.162097 0.936993 0.130047
H153  H     H_    0.151157 0.128636 0.960407 0.251470
H154  H     H_    0.246585 0.164177 0.973713 0.215292
H155  H     H_    0.244203 0.295351 0.950382 0.266551
H156  H     H_    0.151070 0.283718 0.967272 0.259506
H157  H     H_    0.642033 0.826453 0.312986 0.171082
H158  H     H_    0.146371 0.260629 0.937857 0.299873
H159  H     H_    0.537681 0.838211 0.323414 0.087053
H160  H     H_    0.691125 0.775336 0.350590 0.270869
H161  H     H_    0.584345 0.783149 0.360676 0.255380
H162  H     H_    0.644108 0.671385 0.321705 0.262639
H163  H     H_    0.536966 0.679919 0.331840 0.267092
H164  H     H_    0.288182 0.024557 0.984185 0.159931
H165  H     H_    0.618140 0.636791 0.349496 0.284890
H166  H     H_    0.823937 0.641898 0.686587 0.171048
H167  H     H_    0.838648 0.536685 0.677087 0.087466
H168  H     H_    0.773115 0.685250 0.648483 0.271474
H169  H     H_    0.784094 0.577628 0.639267 0.254761
H170  H     H_    0.681042 0.530900 0.668264 0.266799
H171  H     H_    0.636527 0.608407 0.649724 0.285156
H172  H     H_    0.669025 0.639041 0.677361 0.262771
H173  H     H_    0.162769 0.652687 0.312948 0.174255
H174  H     H_    0.160225 0.549022 0.324286 0.086555
H175  H     H_    0.711219 0.029859 0.015854 0.159887
H176  H     H_    0.208826 0.710515 0.350251 0.271389
H177  H     H_    0.211581 0.604378 0.360975 0.255841
H178  H     H_    0.318580 0.565036 0.332238 0.266754
H179  H     H_    0.353808 0.651512 0.349370 0.285579
H180  H     H_    0.316459 0.671636 0.321495 0.262874
H181  H     H_    0.347845 0.836264 0.686990 0.174033
H182  H     H_    0.451749 0.839695 0.675824 0.086649
H183  H     H_    0.291242 0.789886 0.649589 0.271328
H184  H     H_    0.397628 0.788094 0.639021 0.255810
H185  H     H_    0.437262 0.681271 0.667783 0.266854
H186  H     H_    0.970173 0.288828 0.984149 0.159878
H187  H     H_    0.351510 0.645390 0.650493 0.285548
H188  H     H_    0.330389 0.682388 0.678349 0.262727
H189  H     H_    0.357524 0.174450 0.313222 0.171159
H190  H     H_    0.462378 0.161448 0.323173 0.087263
H191  H     H_    0.311220 0.225329 0.351081 0.271199
H192  H     H_    0.418455 0.216099 0.360738 0.255115
H193  H     H_    0.465382 0.319394 0.331865 0.266933
H194  H     H_    0.385858 0.363049 0.349945 0.285038
H195  H     H_    0.357733 0.329464 0.322211 0.262742
H196  H     H_    0.174442 0.359145 0.687056 0.170744
H197  H     H_    0.975198 0.711868 0.015819 0.159981
H198  H     H_    0.161998 0.463407 0.676621 0.087153
H199  H     H_    0.226010 0.310376 0.649470 0.270624
H200  H     H_    0.217433 0.417068 0.639365 0.255495
H201  H     H_    0.329552 0.358241 0.678363 0.262571
H202  H     H_    0.320263 0.465281 0.668202 0.267224
H203  H     H_    0.364014 0.384361 0.650571 0.284839
H204  H     H_    0.837099 0.347247 0.312964 0.174284
H205  H     H_    0.839776 0.450994 0.324247 0.086548
H206  H     H_    0.791055 0.289757 0.350304 0.271484
H207  H     H_    0.788412 0.395982 0.360971 0.255707
H208  H     H_    0.711876 0.975395 0.984191 0.160027
H209  H     H_    0.681396 0.435192 0.332227 0.266782
H210  H     H_    0.646123 0.348860 0.349403 0.285614
H211  H     H_    0.683421 0.328516 0.321534 0.262896
H212  H     H_    0.149696 0.666062 0.187046 0.173337
H213  H     H_    0.045675 0.660728 0.176012 0.086592
H214  H     H_    0.204783 0.713842 0.149637 0.271330
H215  H     H_    0.098286 0.713379 0.139135 0.255600
H216  H     H_    0.056593 0.819266 0.167919 0.266769
H217  H     H_    0.141473 0.857003 0.150605 0.285311
H218  H     H_    0.163525 0.820392 0.178447 0.262767
H219  H     H_    0.288822 0.970093 0.015846 0.159860
H220  H     H_    0.146504 0.330920 0.812972 0.172352
H221  H     H_    0.042300 0.338864 0.823760 0.086757
H222  H     H_    0.199155 0.281708 0.850454 0.271188
H223  H     H_    0.092508 0.285234 0.860804 0.255521
H224  H     H_    0.155289 0.176205 0.821620 0.262691
H225  H     H_    0.048259 0.180401 0.832023 0.266863
H226  H     H_    0.131708 0.140411 0.849454 0.285153
H227  H     H_    0.330285 0.146032 0.187008 0.172185
H228  H     H_    0.338803 0.041746 0.176310 0.086828
H229  H     H_    0.280853 0.197990 0.149486 0.271131
H230  H     H_    0.534667 0.210465 0.484108 0.159551
H231  H     H_    0.285034 0.091270 0.139206 0.255524
H232  H     H_    0.175519 0.153779 0.178324 0.262635
H233  H     H_    0.180383 0.046676 0.167996 0.266906
H234  H     H_    0.139954 0.129711 0.150499 0.285158
H235  H     H_    0.665665 0.150086 0.812948 0.173446
H236  H     H_    0.660650 0.046089 0.824009 0.086571
H237  H     H_    0.713306 0.205454 0.850338 0.271379
H238  H     H_    0.713158 0.099000 0.860870 0.255588
H239  H     H_    0.819139 0.057491 0.832094 0.266703
H240  H     H_    0.856642 0.142566 0.849379 0.285332
N1    N     N_R   0.500058 0.000052 0.593727 -0.295480
N2    N     N_R   0.500026 0.999940 0.406172 -0.295846
N3    N     N_R   0.000166 0.499920 0.593834 -0.295891
N4    N     N_R   0.000008 0.499975 0.406278 -0.295416
N5    N     N_R   0.999976 0.500026 0.093758 -0.295494
N6    N     N_R   0.999973 0.500046 0.906209 -0.295620
N7    N     N_R   0.500000 0.999992 0.093793 -0.295647
N8    N     N_R   0.500047 0.000006 0.906245 -0.295468
O1    O     O_3   0.500000 1.000000 0.750000 -0.500296
O2    O     O_R   0.500000 0.069020 0.200420 -0.609607
O3    O     O_3   0.272459 0.039386 0.942324 -0.611885
O4    O     O_R   0.069020 0.500000 0.799580 -0.609663
O5    O     O_R   0.930980 0.500000 0.200420 -0.609712
O6    O     O_R   0.000000 0.569020 0.299580 -0.609823
O7    O     O_R   0.000000 0.430980 0.700420 -0.609625
O8    O     O_R   0.430980 1.000000 0.299580 -0.609506
O9    O     O_R   0.569020 1.000000 0.700420 -0.609690
O10   O     O_R   0.000000 0.430980 0.299580 -0.609754
O11   O     O_R   0.000000 0.569020 0.700420 -0.609401
O12   O     O_R   0.569020 1.000000 0.299580 -0.609640
O13   O     O_3   0.500000 0.000000 0.250000 -0.500807
O14   O     O_R   0.430980 1.000000 0.700420 -0.609718
O15   O     O_R   0.597490 0.833170 0.762730 -0.630402
O16   O     O_R   0.402510 0.166830 0.237270 -0.635438
O17   O     O_R   0.166830 0.597490 0.762730 -0.630501
O18   O     O_R   0.833170 0.402510 0.237270 -0.635737
O19   O     O_R   0.402510 0.166830 0.762730 -0.630396
O20   O     O_R   0.597490 0.833170 0.237270 -0.635403
O21   O     O_R   0.833170 0.402510 0.762730 -0.630490
O22   O     O_R   0.166830 0.597490 0.237270 -0.635763
O23   O     O_R   0.597490 0.166830 0.237270 -0.630471
O24   O     O_3   0.000000 0.500000 0.750000 -0.500846
O25   O     O_R   0.402510 0.833170 0.762730 -0.635942
O26   O     O_R   0.166830 0.402510 0.237270 -0.630362
O27   O     O_R   0.833170 0.597490 0.762730 -0.635702
O28   O     O_R   0.402510 0.833170 0.237270 -0.630482
O29   O     O_R   0.597490 0.166830 0.762730 -0.635945
O30   O     O_R   0.833170 0.597490 0.237270 -0.630355
O31   O     O_R   0.166830 0.402510 0.762730 -0.635635
O32   O     O_R   0.097490 0.333170 0.262730 -0.629776
O33   O     O_R   0.902510 0.666830 0.737270 -0.633473
O34   O     O_R   0.666830 0.097490 0.262730 -0.631071
O35   O     O_3   0.000000 0.500000 0.250000 -0.500261
O36   O     O_R   0.333170 0.902510 0.737270 -0.636567
O37   O     O_R   0.902510 0.666830 0.262730 -0.629799
O38   O     O_R   0.097490 0.333170 0.737270 -0.633811
O39   O     O_R   0.333170 0.902510 0.262730 -0.631102
O40   O     O_R   0.666830 0.097490 0.737270 -0.636574
O41   O     O_R   0.097490 0.666830 0.737270 -0.631122
O42   O     O_R   0.902510 0.333170 0.262730 -0.636833
O43   O     O_R   0.666830 0.902510 0.737270 -0.629734
O44   O     O_R   0.333170 0.097490 0.262730 -0.633908
O45   O     O_R   0.902510 0.333170 0.737270 -0.631058
O46   O     O_R   0.500000 0.069020 0.799580 -0.609773
O47   O     O_R   0.097490 0.666830 0.262730 -0.636860
O48   O     O_R   0.333170 0.097490 0.737270 -0.629765
O49   O     O_R   0.666830 0.902510 0.262730 -0.634103
O50   O     O_2   0.482281 0.146327 0.594391 -0.524776
O51   O     O_2   0.472532 0.855156 0.405502 -0.525613
O52   O     O_2   0.855473 0.471944 0.594515 -0.526201
O53   O     O_2   0.146325 0.482585 0.405599 -0.524891
O54   O     O_2   0.517845 0.853779 0.594402 -0.524815
O55   O     O_2   0.527529 0.144723 0.405491 -0.526028
O56   O     O_2   0.144864 0.527867 0.594501 -0.525464
O57   O     O_R   0.500000 0.930980 0.200420 -0.609618
O58   O     O_2   0.853689 0.517368 0.405619 -0.524962
O59   O     O_2   0.979210 0.645901 0.094435 -0.525208
O60   O     O_2   0.975997 0.354642 0.905532 -0.525495
O61   O     O_2   0.354629 0.975808 0.094466 -0.525484
O62   O     O_2   0.645949 0.979434 0.905572 -0.525288
O63   O     O_2   0.020747 0.354152 0.094428 -0.525262
O64   O     O_2   0.023944 0.645452 0.905536 -0.525517
O65   O     O_2   0.645372 0.024173 0.094471 -0.525530
O66   O     O_2   0.354147 0.020598 0.905569 -0.525241
O67   O     O_3   0.636772 0.070633 0.663809 -0.556321
O68   O     O_R   0.930980 0.500000 0.799580 -0.609652
O69   O     O_3   0.631825 0.920794 0.336071 -0.556470
O70   O     O_3   0.919588 0.631055 0.663906 -0.556211
O71   O     O_3   0.069802 0.637166 0.336214 -0.556404
O72   O     O_3   0.363205 0.929486 0.663788 -0.556330
O73   O     O_3   0.368331 0.079442 0.336092 -0.556306
O74   O     O_3   0.080090 0.368696 0.663953 -0.556493
O75   O     O_3   0.930128 0.362853 0.336208 -0.556352
O76   O     O_3   0.135657 0.572678 0.163830 -0.556391
O77   O     O_3   0.134089 0.424708 0.836135 -0.556427
O78   O     O_3   0.424206 0.133814 0.163875 -0.556385
O79   O     O_R   0.069020 0.500000 0.200420 -0.609740
O80   O     O_3   0.572340 0.135856 0.836173 -0.556403
O81   O     O_3   0.864354 0.427290 0.163828 -0.556355
O82   O     O_3   0.865910 0.575348 0.836126 -0.556404
O83   O     O_3   0.575775 0.866164 0.163874 -0.556383
O84   O     O_3   0.427715 0.864136 0.836177 -0.556407
O85   O     O_3   0.465715 0.228423 0.557631 -0.611617
O86   O     O_3   0.450214 0.774364 0.442261 -0.612563
O87   O     O_3   0.774626 0.449711 0.557767 -0.612409
O88   O     O_3   0.228482 0.465946 0.442351 -0.611759
O89   O     O_3   0.534380 0.771632 0.557650 -0.611654
O90   O     O_R   0.500000 0.930980 0.799580 -0.609772
O91   O     O_3   0.549891 0.225553 0.442243 -0.612558
O92   O     O_3   0.225656 0.550094 0.557742 -0.612434
O93   O     O_3   0.771597 0.533943 0.442382 -0.611753
O94   O     O_3   0.960427 0.727594 0.057680 -0.611863
O95   O     O_3   0.955190 0.273399 0.942287 -0.612140
O96   O     O_3   0.273391 0.955075 0.057708 -0.612158
O97   O     O_3   0.727633 0.960632 0.942333 -0.611939
O98   O     O_3   0.039455 0.272468 0.057670 -0.611881
O99   O     O_3   0.044702 0.726695 0.942295 -0.612242
O100  O     O_3   0.726629 0.044894 0.057716 -0.612152
Zn1   Zn    Zn3+2 0.599000 0.000000 0.730930 0.987586
Zn2   Zn    Zn3+2 0.901000 0.500000 0.769070 0.987387
Zn3   Zn    Zn3+2 0.500000 0.099000 0.230930 0.987562
Zn4   Zn    Zn3+2 0.500000 0.901000 0.769070 0.987429
Zn5   Zn    Zn3+2 0.901000 0.500000 0.230930 0.987621
Zn6   Zn    Zn3+2 0.099000 0.500000 0.769070 0.987317
Zn7   Zn    Zn3+2 0.500000 0.901000 0.230930 0.987526
Zn8   Zn    Zn3+2 0.500000 0.099000 0.769070 0.987425
Zn9   Zn    Zn3+2 0.401000 0.000000 0.269070 0.988137
Zn10  Zn    Zn3+2 0.000000 0.599000 0.730930 0.988476
Zn11  Zn    Zn3+2 0.000000 0.401000 0.269070 0.987344
Zn12  Zn    Zn3+2 0.401000 0.000000 0.730930 0.987535
Zn13  Zn    Zn3+2 0.599000 0.000000 0.269070 0.987979
Zn14  Zn    Zn3+2 0.000000 0.401000 0.730930 0.988216
Zn15  Zn    Zn3+2 0.000000 0.599000 0.269070 0.987272
Zn16  Zn    Zn3+2 0.099000 0.500000 0.230930 0.987587

loop_
_geom_bond_atom_site_label_1
_geom_bond_atom_site_label_2
_ccdc_geom_bond_type
C94   C146  A    
C98   H135  S    
O15   Zn4   S    
C122  H210  S    
C58   O77   S    
C145  H25   S    
C160  H59   S    
C36   Cl6   S    
C219  C232  A    
C161  H60   S    
O35   Zn11  S    
C79   C87   A    
C114  C115  S    
C41   C67   A    
C252  O15   A    
C43   C168  A    
C183  O96   S    
C115  H192  S    
C113  O97   S    
C3    C274  T    
C130  H227  S    
C26   Cl12  S    
C27   Cl13  S    
C117  H198  S    
C182  H109  S    
C36   C66   A    
C165  H71   S    
C106  C107  S    
C143  C144  S    
C34   Cl5   S    
C116  H195  S    
C74   C92   A    
C174  H91   S    
C110  C111  S    
C259  O9    A    
C36   C53   A    
C256  C279  S    
C224  C251  A    
C76   C94   A    
C171  H84   S    
C261  O23   A    
C188  H126  S    
C38   C55   A    
C132  H232  S    
C237  O7    A    
C146  O100  S    
C15   C85   A    
O19   Zn8   S    
C213  C240  A    
C102  H162  S    
C29   C64   A    
C123  H212  S    
C11   C82   A    
O13   Zn9   S    
C39   C65   A    
C31   C62   A    
C29   Cl15  S    
C162  H62   S    
C190  C237  S    
C46   C243  A    
C44   C179  A    
C104  C105  S    
C13   O87   S    
C179  C248  S    
C177  H99   S    
O1    Zn12  S    
C262  C274  S    
C119  H202  S    
C263  O32   A    
C40   C58   A    
C251  H68   S    
C149  H33   S    
C69   N8    S    
C131  H231  S    
C140  C141  S    
C116  H194  S    
C139  H10   S    
C202  H155  S    
C144  C145  S    
C21   O63   S    
C58   C205  A    
C175  H95   S    
C181  C182  S    
C239  H186  S    
C176  H96   S    
C109  H182  S    
C156  O87   S    
C2    C247  A    
C209  C235  A    
C253  O44   A    
C60   O80   S    
C169  H78   S    
C241  H208  S    
C96   H79   S    
C39   C56   A    
C121  H207  S    
C137  O81   S    
C114  H189  S    
C238  H175  S    
C196  H143  S    
C186  H120  S    
O90   Zn4   S    
C154  C155  S    
C193  H137  S    
C46   C84   A    
C212  C225  A    
C59   C206  A    
C79   O94   S    
C25   C95   A    
C47   O75   S    
C154  H45   S    
O35   Zn15  S    
C158  C159  S    
O37   Zn15  S    
C172  H85   S    
C176  O94   S    
C223  C232  A    
C75   C93   A    
C254  O17   A    
C158  H52   S    
C120  H204  S    
C128  H223  S    
C203  C215  S    
C77   C91   A    
C89   C101  A    
C17   C87   A    
C186  H121  S    
C210  C228  A    
C249  C270  A    
C130  O78   S    
C45   O74   S    
C198  H149  S    
C196  C197  S    
C183  H114  S    
O24   Zn2   S    
C185  H118  S    
O43   Zn1   S    
C60   C207  A    
C180  H105  S    
C163  H65   S    
C97   H113  S    
C52   C203  A    
C108  H178  S    
C153  O86   S    
C156  C158  S    
C275  C280  T    
C18   O60   S    
C151  H37   S    
C155  H47   S    
C262  O25   A    
O40   Zn1   S    
C189  O98   S    
C11   O53   S    
O7    Zn14  S    
C10   O52   S    
C57   C85   A    
C127  O77   S    
C245  H13   S    
C200  H154  S    
C109  O72   S    
C212  C239  A    
C28   C63   A    
C181  H107  S    
C136  H239  S    
C247  H35   S    
C77   C228  A    
C200  C202  S    
C193  C194  S    
C55   O84   S    
C30   C61   A    
O10   Zn11  S    
C142  H17   S    
C256  O48   A    
C186  C187  S    
O79   Zn16  S    
O4    Zn6   S    
C68   O93   S    
C127  H221  S    
C49   C179  A    
C21   C92   A    
O42   Zn11  S    
C192  H133  S    
C16   O58   S    
C208  C213  A    
C199  H152  S    
C147  C148  S    
C131  H229  S    
C28   Cl14  S    
C128  C129  S    
C37   Cl7   S    
C72   C85   A    
C2    O86   S    
O18   Zn5   S    
C38   Cl8   S    
C167  C169  S    
C145  H23   S    
C183  H111  S    
C97   H101  S    
C29   C47   A    
C133  H235  S    
C4    C273  T    
O2    Zn3   S    
C30   C48   A    
C168  C259  S    
C160  H58   S    
C155  H49   S    
C156  H51   S    
C169  H80   S    
C204  O4    A    
C266  O29   A    
C120  H205  S    
C115  C116  S    
C23   O65   S    
C138  H7    S    
C101  O96   S    
C112  O2    A    
C184  C185  S    
C96   H90   S    
C194  H139  S    
C189  C191  S    
C174  C175  S    
O34   Zn13  S    
C219  C224  A    
C43   O72   S    
C134  H237  S    
C135  O99   S    
C27   C44   A    
C265  O39   A    
O57   Zn7   S    
C48   C168  A    
C221  C230  A    
C192  H132  S    
C107  C108  S    
C267  O37   A    
C172  H87   S    
C218  C244  A    
C74   C87   A    
C143  H20   S    
C259  O14   A    
C167  H75   S    
C105  H171  S    
C150  H36   S    
C76   C89   A    
C265  O28   A    
C111  H187  S    
C110  H184  S    
C98   H146  S    
C258  O45   A    
O5    Zn5   S    
O8    Zn9   S    
C96   C97   S    
C5    C252  S    
C152  H40   S    
C79   C240  A    
C149  H31   S    
C132  H233  S    
C216  C229  A    
C104  H168  S    
C193  H136  S    
C216  C242  A    
C13   C251  A    
C102  H165  S    
C143  O83   S    
C24   O88   S    
C252  O43   A    
C124  O98   S    
C159  H56   S    
C108  H180  S    
C220  C233  A    
C75   C225  A    
C178  H103  S    
C99   H159  S    
C127  H220  S    
C248  O12   A    
C54   C206  A    
C253  O16   A    
C119  H203  S    
C18   C88   A    
C129  H226  S    
C237  O11   A    
C118  H199  S    
C147  H27   S    
C27   C62   A    
C217  C230  A    
C204  O68   A    
C15   N3    A    
C103  H166  S    
C268  C276  S    
O12   Zn13  S    
C135  C234  A    
C63   N3    S    
C101  C242  A    
C199  O3    S    
C117  O74   S    
C223  C250  A    
C140  H12   S    
C50   O70   S    
C264  O27   A    
C46   O91   S    
C37   C54   A    
O35   Zn16  S    
C120  C121  S    
C218  C221  A    
O22   Zn16  S    
O11   Zn10  S    
C125  H215  S    
C166  H73   S    
C20   O62   S    
C176  C177  S    
C5    C272  T    
C99   O69   S    
C6    C271  T    
C95   C157  A    
C22   O64   S    
C107  H176  S    
C57   C246  A    
C93   C135  A    
C266  C269  S    
C152  H41   S    
C31   Cl9   S    
C128  H222  S    
C129  H224  S    
C55   C207  A    
C152  H39   S    
C115  H191  S    
C130  H228  S    
C24   C250  A    
C264  O33   A    
C182  H110  S    
C133  H236  S    
C117  C118  S    
C8    O50   S    
C57   O92   S    
C194  H138  S    
C165  H70   S    
C180  H104  S    
C11   N4    A    
O23   Zn3   S    
C110  H183  S    
C37   C67   A    
C22   C93   A    
C174  H92   S    
C197  C198  S    
O35   Zn5   S    
C178  H100  S    
C38   C69   A    
C7    C269  T    
C144  H21   S    
C150  H34   S    
C111  H185  S    
C171  H83   S    
C45   C190  A    
C199  C200  S    
C211  C214  A    
C204  C205  S    
C260  O47   A    
C123  H213  S    
C150  C151  S    
C154  H44   S    
C117  H196  S    
C164  H69   S    
C220  C223  A    
C173  H88   S    
C173  O93   S    
C61   N1    S    
C10   N3    A    
C16   N4    A    
C102  H163  S    
C255  C280  S    
C159  H54   S    
C100  H161  S    
C64   N4    S    
O16   Zn3   S    
C162  H63   S    
C17   O59   S    
C14   C84   A    
C171  C172  S    
C270  O85   S    
C99   H157  S    
C161  C162  S    
C56   C203  A    
C177  H98   S    
C119  H201  S    
C90   C239  A    
C160  O88   S    
C184  H115  S    
C164  C165  S    
C26   C61   A    
C14   O55   S    
C71   C84   A    
C114  O73   S    
C140  O82   S    
C92   C124  A    
C202  H156  S    
C123  C125  S    
C13   C81   A    
O13   Zn7   S    
C209  C212  A    
C109  H181  S    
C72   C233  A    
O27   Zn2   S    
C6    C260  S    
C48   O67   S    
C106  H173  S    
C268  O38   A    
C56   O76   S    
C191  H130  S    
C156  H50   S    
C126  H217  S    
C260  O22   A    
C130  C131  S    
C166  O91   S    
C170  H81   S    
C261  O34   A    
C263  C273  S    
C35   C83   A    
C114  H190  S    
C98   H124  S    
C151  C152  S    
C137  H5    S    
C18   N6    A    
C195  H142  S    
C210  C236  A    
C141  H15   S    
C72   C81   A    
C136  H3    S    
O24   Zn10  S    
O44   Zn9   S    
C25   N8    A    
C194  C195  S    
C122  H211  S    
C243  H230  S    
C132  H234  S    
C264  C272  S    
C40   C66   A    
C122  H209  S    
C16   C86   A    
C172  H86   S    
C145  H26   S    
C215  O5    A    
C31   C49   A    
C161  H61   S    
C235  H112  S    
C104  H169  S    
C97   C98   S    
C158  H53   S    
O41   Zn10  S    
C201  C226  S    
C20   C91   A    
C189  H129  S    
C244  H2    S    
C197  H145  S    
C198  H150  S    
C182  H108  S    
C196  O100  S    
C185  H117  S    
C196  H144  S    
C165  H72   S    
C126  H216  S    
C173  C174  S    
C267  C277  S    
C30   Cl1   S    
C175  H93   S    
C191  C192  S    
C12   C83   A    
C266  O40   A    
C138  H6    S    
C213  C227  A    
C133  O80   S    
C188  H125  S    
C276  C279  T    
C189  H128  S    
C40   Cl2   S    
C211  C238  A    
C236  H164  S    
C256  O19   A    
C164  H67   S    
C70   C83   A    
C121  C122  S    
C147  O84   S    
C139  H9    S    
C181  H106  S    
C193  O99   S    
C88   C90   A    
C133  C134  S    
C142  H18   S    
O13   Zn13  S    
C257  O49   A    
C127  C128  S    
C100  H160  S    
C73   C82   A    
C113  C241  A    
C180  C181  S    
C248  O8    A    
C65   N5    S    
C20   N8    A    
C217  C222  A    
C67   N7    S    
C211  C229  A    
C199  H151  S    
C255  O18   A    
C22   N6    A    
O21   Zn2   S    
O46   Zn8   S    
C116  H193  S    
C42   Cl4   S    
C157  C236  A    
C68   C245  A    
C33   C51   A    
C221  C247  A    
C10   C81   A    
C34   C52   A    
C12   N1    A    
C249  H46   S    
C265  C271  S    
C3    C254  S    
C112  C206  S    
C187  C188  S    
C109  C110  S    
C250  H57   S    
O1    Zn4   S    
C210  C216  A    
C262  O36   A    
C134  C136  S    
C195  H140  S    
C78   C270  A    
O30   Zn5   S    
O24   Zn14  S    
C153  H42   S    
C50   C190  A    
O6    Zn15  S    
C215  O79   A    
C138  C139  S    
C134  H238  S    
C44   O73   S    
C25   O66   S    
C177  C178  S    
C170  C171  S    
C76   C229  A    
C7    C258  S    
C73   C86   A    
C209  C227  A    
C143  H19   S    
O47   Zn15  S    
C105  H170  S    
C51   C201  A    
C15   O56   S    
C32   Cl10  S    
C112  O57   A    
C70   C78   A    
C68   C86   A    
C197  H147  S    
C163  C164  S    
C198  H148  S    
C224  C233  A    
C19   N7    A    
O9    Zn1   S    
C185  H119  S    
C163  H66   S    
C52   O81   S    
C169  H77   S    
C214  C241  A    
C159  H55   S    
C176  H97   S    
C121  H206  S    
C180  O95   S    
C151  H38   S    
C49   O69   S    
C155  H48   S    
O26   Zn16  S    
C188  H127  S    
O1    Zn8   S    
C51   O71   S    
C123  O76   S    
C96   O67   S    
C163  O89   S    
O20   Zn7   S    
C129  H225  S    
C148  H29   S    
C47   C201  A    
C153  H43   S    
C167  H76   S    
C118  H200  S    
C200  H153  S    
C24   C82   A    
C118  C119  S    
C103  C104  S    
C70   C231  A    
C124  C235  A    
C246  H24   S    
C62   N2    S    
O48   Zn12  S    
C258  O21   A    
C120  O75   S    
C53   C205  A    
C90   O95   S    
C219  C245  A    
O38   Zn14  S    
C59   O78   S    
C214  C228  A    
C191  H131  S    
C19   O61   S    
O39   Zn9   S    
C267  O30   A    
C1    O46   A    
C257  C278  S    
O17   Zn6   S    
C8    C78   A    
C8    N1    A    
C4    C253  S    
C103  O70   S    
C1    C207  S    
C34   C65   A    
C71   C80   A    
C33   Cl11  S    
O68   Zn2   S    
C9    N2    A    
C175  H94   S    
C125  H214  S    
C166  H74   S    
C257  O20   A    
C28   C45   A    
O13   Zn3   S    
C186  O97   S    
C192  H134  S    
C146  C238  A    
C35   O89   S    
C148  C149  S    
C41   C59   A    
C42   C60   A    
C187  H122  S    
O14   Zn12  S    
C21   N5    A    
C77   C95   A    
C42   C69   A    
C91   C113  A    
C9    C80   A    
C23   N7    A    
C217  C243  A    
C183  C184  S    
C74   C227  A    
C19   C89   A    
C208  C225  A    
O24   Zn6   S    
C242  H219  S    
C157  O3    S    
C142  H16   S    
C99   C100  S    
C1    O90   A    
C66   N6    S    
C148  H30   S    
C54   O83   S    
C100  C102  S    
O25   Zn4   S    
C14   N2    A    
C32   C50   A    
C139  H8    S    
C226  O6    A    
C105  H172  S    
C144  H22   S    
C9    O51   S    
C111  H188  S    
C26   C43   A    
C222  C231  A    
O49   Zn13  S    
C166  C167  S    
C234  H1    S    
C187  H123  S    
C149  H32   S    
C208  C234  A    
C53   O82   S    
C240  H197  S    
C220  C246  A    
C136  H240  S    
C107  H177  S    
C108  H179  S    
C162  H64   S    
C17   N5    A    
C178  H102  S    
C32   C63   A    
C103  H167  S    
C41   Cl3   S    
C150  O85   S    
O29   Zn8   S    
C173  H89   S    
C261  C275  S    
O32   Zn11  S    
C137  C138  S    
C263  O26   A    
C23   C94   A    
C12   O54   S    
C184  H116  S    
C160  C161  S    
C170  O92   S    
C147  H28   S    
C141  C142  S    
O33   Zn10  S    
C125  C126  S    
C33   C64   A    
C71   C230  A    
O36   Zn12  S    
C254  O41   A    
C106  H174  S    
C255  O42   A    
C218  C231  A    
C2    C80   A    
C126  H218  S    
O28   Zn7   S    
C226  O10   A    
C222  C249  A    
O1    Zn1   S    
C75   C88   A    
C35   C244  A    
C140  H11   S    
C106  O71   S    
C170  H82   S    
C141  H14   S    
C39   Cl16  S    
C268  O31   A    
C137  H4    S    
O31   Zn6   S    
C195  H141  S    
C153  C154  S    
C277  C278  T    
C202  H158  S    
O45   Zn14  S    
C73   C232  A    
C131  C132  S    
