data_mof_unit_27894.cif
_audit_creation_date              2012-12-10T17:36:39-0500
_audit_creation_method            fapswitch 2.2
_symmetry_space_group_name_H-M    P1
_symmetry_Int_Tables_number       1
_space_group_crystal_system       triclinic
_cell_length_a                    11.983494
_cell_length_b                    12.873773
_cell_length_c                    15.726016
_cell_angle_alpha                 90.093885
_cell_angle_beta                  86.639576
_cell_angle_gamma                 93.474967
_cell_volume                      2417.4672196

loop_
_atom_site_label
_atom_site_type_symbol
_atom_type_description
_atom_site_fract_x
_atom_site_fract_y
_atom_site_fract_z
_atom_type_partial_charge
C1    C     C_R   0.522203 0.700437 0.498142 0.916631
C2    C     C_R   0.550952 0.025855 0.511145 -0.009449
C3    C     C_R   0.952709 0.393722 0.428790 -0.328800
C4    C     C_R   0.047290 0.606274 0.571213 -0.328661
C5    C     C_R   0.836802 0.404991 0.434727 0.037086
C6    C     C_R   0.163197 0.595006 0.565276 0.037162
C7    C     C_R   0.859343 0.547284 0.529494 -0.041954
C8    C     C_R   0.140657 0.452715 0.470507 -0.042027
C9    C     C_R   0.976442 0.538988 0.525530 0.094018
C10   C     C_R   0.023557 0.461009 0.474472 0.094074
C11   C     C_R   0.500576 0.500110 0.662095 0.904785
C12   C     C_R   0.477797 0.299564 0.501857 0.916592
C13   C     C_R   0.499424 0.499889 0.337905 0.904769
C14   C     C_3   0.492400 0.595731 0.028404 0.645879
C15   C     C_3   0.507600 0.404268 0.971596 0.645880
C16   C     C_3   0.589700 0.560779 0.968873 -0.319976
C17   C     C_3   0.410300 0.439220 0.031127 -0.319977
C18   C     C_1   0.501714 0.500530 0.750954 -0.173864
C19   C     C_1   0.498286 0.499469 0.249046 -0.173869
C20   C     C_3   0.403581 0.538209 0.975761 -0.318407
C21   C     C_3   0.596419 0.461790 0.024239 -0.318412
C22   C     C_3   0.501029 0.501385 0.917119 0.050304
C23   C     C_R   0.646199 0.970126 0.523601 0.555798
C24   C     C_3   0.498971 0.498614 0.082881 0.050306
C25   C     C_1   0.501837 0.500967 0.826234 0.015364
C26   C     C_1   0.498163 0.499032 0.173766 0.015359
C27   C     C_R   0.463995 0.188228 0.502442 -0.144299
C28   C     C_R   0.535998 0.811776 0.497553 -0.144628
C29   C     C_3   0.479785 0.769822 0.001074 -0.309345
C30   C     C_3   0.520215 0.230178 0.998926 -0.309355
C31   C     C_3   0.822751 0.025892 0.477676 -0.343538
C32   C     C_3   0.176757 0.975029 0.521935 -0.342895
C33   C     C_R   0.353785 0.029876 0.476375 0.555742
C34   C     C_R   0.637302 0.862265 0.518114 -0.296735
C35   C     C_R   0.362705 0.137748 0.481843 -0.296954
C36   C     C_R   0.443580 0.867414 0.480926 -0.235710
C37   C     C_R   0.556397 0.132587 0.519093 -0.236090
C38   C     C_R   0.449030 0.974151 0.488845 -0.009224
H1    H     H_    0.661509 0.610864 0.941456 0.161550
H2    H     H_    0.821477 0.606401 0.568684 0.122706
H3    H     H_    0.217828 0.647185 0.600259 0.131356
H4    H     H_    0.782171 0.352810 0.399746 0.131255
H5    H     H_    0.986456 0.332935 0.389053 0.144054
H6    H     H_    0.013542 0.667058 0.610953 0.144137
H7    H     H_    0.404623 0.754862 0.963583 0.157108
H8    H     H_    0.557283 0.773470 0.958401 0.157129
H9    H     H_    0.473307 0.847328 0.031254 0.196796
H10   H     H_    0.442717 0.226529 0.041599 0.157127
H11   H     H_    0.595377 0.245137 0.036417 0.157101
H12   H     H_    0.338491 0.389135 0.058544 0.161546
H13   H     H_    0.526693 0.152671 0.968746 0.196798
H14   H     H_    0.789944 0.067666 0.423321 0.161871
H15   H     H_    0.847387 0.947196 0.457552 0.168743
H16   H     H_    0.899461 0.070678 0.496388 0.198268
H17   H     H_    0.151861 0.053975 0.541078 0.168550
H18   H     H_    0.209164 0.934180 0.576933 0.161858
H19   H     H_    0.100273 0.929809 0.503308 0.198337
H20   H     H_    0.673759 0.429732 0.046151 0.161812
H21   H     H_    0.326241 0.570267 0.953849 0.161816
H22   H     H_    0.633802 0.173053 0.536322 0.217165
H23   H     H_    0.366162 0.826942 0.463731 0.217248
H24   H     H_    0.291689 0.181708 0.467757 0.170180
H25   H     H_    0.708362 0.818329 0.532135 0.170411
H26   H     H_    0.178523 0.393598 0.431316 0.122677
N1    N     N_R   0.207800 0.519340 0.515560 -0.101638
N2    N     N_R   0.792200 0.480660 0.484440 -0.101614
O1    O     O_R   0.421700 0.658830 0.504150 -0.632618
O2    O     O_3   0.515658 0.305096 0.934273 -0.596010
O3    O     O_3   0.744538 0.020155 0.548326 -0.613994
O4    O     O_3   0.255487 0.979800 0.451599 -0.614134
O5    O     O_R   0.578300 0.341170 0.495850 -0.632659
O6    O     O_R   0.609310 0.646410 0.494170 -0.626800
O7    O     O_R   0.390690 0.353590 0.505830 -0.626809
O8    O     O_R   0.406210 0.506220 0.628210 -0.616870
O9    O     O_R   0.593790 0.493780 0.371790 -0.616868
O10   O     O_R   0.593830 0.493800 0.618230 -0.611831
O11   O     O_R   0.406170 0.506200 0.381770 -0.611827
O12   O     O_3   0.484342 0.694903 0.065727 -0.596011
Zn1   Zn    Zn3+2 0.374730 0.508290 0.506660 0.953263
Zn2   Zn    Zn3+2 0.625270 0.491710 0.493340 0.953243

loop_
_geom_bond_atom_site_label_1
_geom_bond_atom_site_label_2
_ccdc_geom_bond_type
C30   H13   S    
C11   C18   S    
C16   C21   S    
N1    Zn1   S    
C23   O3    S    
C31   H14   S    
C5    H4    S    
C3    H5    S    
C29   H9    S    
C30   H10   S    
C15   C22   S    
C24   C26   S    
C11   O10   A    
C17   C20   S    
C15   C17   S    
C14   C24   S    
C19   C26   T    
C33   C35   A    
C6    N1    A    
C29   O12   S    
C13   O9    A    
C22   C25   S    
C1    C28   S    
C7    H2    S    
O9    Zn2   S    
C32   H17   S    
C28   C34   A    
C8    N1    A    
C12   O7    A    
C18   C25   T    
C32   H19   S    
O5    Zn2   S    
O11   Zn1   S    
C13   O11   A    
C17   C24   S    
C13   C19   S    
C12   C27   S    
C1    O6    A    
C14   C20   S    
O1    Zn1   S    
C4    C6    A    
C32   O4    S    
C4    H6    S    
C27   C35   A    
C6    H3    S    
C29   H7    S    
C2    C38   A    
C15   C21   S    
C23   C34   A    
O7    Zn1   S    
C31   H15   S    
C20   H21   S    
C33   O4    S    
C8    H26   S    
C30   H11   S    
C20   C22   S    
O8    Zn1   S    
C14   C16   S    
C36   H23   S    
C9    C10   A    
C7    C9    A    
C16   C22   S    
C12   O5    A    
O10   Zn2   S    
C5    N2    A    
C3    C5    A    
C11   O8    A    
C17   H12   S    
N2    Zn2   S    
C33   C38   A    
C29   H8    S    
C36   C38   A    
C21   H20   S    
O6    Zn2   S    
C3    C10   A    
C7    N2    A    
C2    C37   A    
C27   C37   A    
C15   O2    S    
C34   H25   S    
C1    O1    A    
C35   H24   S    
C14   O12   S    
C31   H16   S    
C37   H22   S    
C16   H1    S    
C31   O3    S    
C28   C36   A    
C8    C10   A    
C21   C24   S    
C2    C23   A    
C4    C9    A    
C32   H18   S    
C30   O2    S    
