data_mof_unit_44512.cif
_audit_creation_date              2012-10-26T19:35:15-0400
_audit_creation_method            fapswitch 2.2
_symmetry_space_group_name_H-M    P1
_symmetry_Int_Tables_number       1
_space_group_crystal_system       triclinic
_cell_length_a                    10.846342
_cell_length_b                    10.851729
_cell_length_c                    9.53047
_cell_angle_alpha                 89.940757
_cell_angle_beta                  89.892087
_cell_angle_gamma                 92.08133
_cell_volume                      1121.00851415

loop_
_atom_site_label
_atom_site_type_symbol
_atom_type_description
_atom_site_fract_x
_atom_site_fract_y
_atom_site_fract_z
_atom_type_partial_charge
C1    C     C_R   0.497420 0.262417 0.499918 0.555378
C2    C     C_R   0.463138 0.937245 0.368221 -0.017071
C3    C     C_R   0.477992 0.870277 0.495456 -0.034832
C4    C     C_R   0.262669 0.504642 0.500508 0.528529
C5    C     C_R   0.500822 0.935555 0.619236 0.083432
C6    C     C_3   0.431420 0.929670 0.754656 -0.228466
C7    C     C_3   0.440939 0.069395 0.756661 -0.249170
C8    C     C_R   0.436061 0.412791 0.073908 0.164801
C9    C     C_R   0.575168 0.582570 0.074349 0.000992
C10   C     C_R   0.575261 0.582369 0.925311 -0.002371
C11   C     C_R   0.435990 0.412825 0.926496 0.159245
C12   C     C_R   0.070793 0.597457 0.595614 0.017879
C13   C     C_3   0.299990 0.387631 0.921032 -0.273256
C14   C     C_3   0.300111 0.387466 0.080131 -0.279930
C15   C     C_R   0.487707 0.736653 0.499059 0.523077
C16   C     C_R   0.737892 0.508892 0.499857 0.529257
C17   C     C_R   0.138910 0.672531 0.691884 -0.129082
C18   C     C_R   0.080301 0.748689 0.785181 -0.166199
C19   C     C_R   0.954971 0.764184 0.773779 -0.086897
C20   C     C_R   0.886202 0.702562 0.668848 0.024316
C21   C     C_R   0.940525 0.607400 0.588615 -0.010876
C22   C     C_2   0.769902 0.758313 0.628073 0.236260
C23   C     C_R   0.129678 0.516602 0.501976 0.002803
C24   C     C_2   0.423047 0.878360 0.234276 0.226295
C25   C     C_R   0.061190 0.446138 0.405671 -0.156137
C26   C     C_R   0.934281 0.448650 0.405299 -0.144693
C27   C     C_R   0.872470 0.524792 0.497983 -0.017074
C28   C     C_R   0.509444 0.062324 0.620933 0.029356
C29   C     C_R   0.494661 0.129215 0.498004 -0.031473
C30   C     C_R   0.475919 0.066067 0.371033 -0.127914
Cu1   Cu    Cu3+1 0.499990 0.499980 0.640670 0.950716
Cu2   Cu    Cu3+1 0.500010 0.500020 0.359330 0.929960
H1    H     H_    0.106054 0.384530 0.333898 0.121070
H2    H     H_    0.335345 0.892266 0.742127 0.111582
H3    H     H_    0.485177 0.886226 0.839349 0.213308
H4    H     H_    0.350261 0.112911 0.745265 0.126283
H5    H     H_    0.500058 0.106987 0.842844 0.173574
H6    H     H_    0.275855 0.295819 0.875247 0.124646
H7    H     H_    0.238038 0.676392 0.696774 0.150688
H8    H     H_    0.914183 0.833417 0.839288 0.162188
H9    H     H_    0.734121 0.745888 0.522973 0.113105
H10   H     H_    0.368389 0.792706 0.234253 0.136913
H11   H     H_    0.632740 0.649502 0.130207 0.132905
H12   H     H_    0.633159 0.648786 0.869428 0.167779
H13   H     H_    0.249024 0.465453 0.876202 0.161172
H14   H     H_    0.249198 0.465244 0.125132 0.154528
H15   H     H_    0.276341 0.295508 0.126277 0.126828
H16   H     H_    0.133746 0.802545 0.860650 0.120222
H17   H     H_    0.883597 0.387432 0.334421 0.139604
H18   H     H_    0.462975 0.117486 0.274914 0.177891
N1    N     N_R   0.500790 0.500930 0.147930 -0.237304
N2    N     N_R   0.500790 0.500890 0.852020 -0.240829
O1    O     O_R   0.500000 0.319640 0.618810 -0.489850
O2    O     O_2   0.447845 0.927099 0.121673 -0.552587
O3    O     O_R   0.500010 0.319680 0.381230 -0.503626
O4    O     O_R   0.319640 0.499980 0.618820 -0.523758
O5    O     O_R   0.319650 0.500020 0.381230 -0.514760
O6    O     O_R   0.499990 0.680320 0.618770 -0.487608
O7    O     O_R   0.500000 0.680360 0.381190 -0.529610
O8    O     O_R   0.680350 0.499980 0.618770 -0.489939
O9    O     O_R   0.680360 0.500020 0.381180 -0.504121
O10   O     O_2   0.716847 0.825250 0.709298 -0.547149

loop_
_geom_bond_atom_site_label_1
_geom_bond_atom_site_label_2
_ccdc_geom_bond_type
C12   C17   A    
Cu1   O8    S    
C8    C14   S    
Cu2   N1    S    
C6    C7    S    
C11   N2    A    
Cu1   O4    S    
C22   O10   D    
C5    C28   A    
C24   H10   S    
C7    H4    S    
Cu2   O3    S    
C19   C20   A    
C9    N1    A    
Cu1   N2    S    
C2    C30   A    
C10   N2    A    
C16   C27   S    
C1    C29   S    
C2    C3    A    
C21   C27   A    
C14   H14   S    
C13   C14   S    
Cu1   O1    S    
C13   H13   S    
C11   C13   S    
C12   C23   A    
C13   H6    S    
C29   C30   A    
C15   O7    A    
Cu2   O5    S    
C8    C11   A    
C16   O8    A    
C16   O9    A    
Cu1   O6    S    
C28   C29   A    
C20   C22   S    
Cu2   O9    S    
C17   C18   A    
C23   C25   A    
C26   C27   A    
C5    C6    S    
C30   H18   S    
C15   O6    A    
C1    O3    A    
C9    H11   S    
C22   H9    S    
C19   H8    S    
C24   O2    D    
C6    H2    S    
C4    O4    A    
C3    C15   S    
C20   C21   A    
C18   C19   A    
C9    C10   A    
C26   H17   S    
C8    N1    A    
C4    C23   S    
C17   H7    S    
C1    O1    A    
C2    C24   S    
Cu2   O7    S    
C3    C5    A    
C25   C26   A    
C14   H15   S    
C10   H12   S    
C12   C21   A    
C6    H3    S    
C7    C28   S    
Cu1   Cu2   S    
C4    O5    A    
C25   H1    S    
C7    H5    S    
C18   H16   S    
