data_mof_unit_7171.cif
_audit_creation_date              2012-12-11T14:13:19-0500
_audit_creation_method            fapswitch 2.2
_symmetry_space_group_name_H-M    P1
_symmetry_Int_Tables_number       1
_space_group_crystal_system       monoclinic
_cell_length_a                    17.702714
_cell_length_b                    17.276937
_cell_length_c                    17.012348
_cell_angle_alpha                 90.0
_cell_angle_beta                  89.999974
_cell_angle_gamma                 90.0
_cell_volume                      5203.20408605

loop_
_atom_site_label
_atom_site_type_symbol
_atom_type_description
_atom_site_fract_x
_atom_site_fract_y
_atom_site_fract_z
_atom_type_partial_charge
C1    C     C_R   0.606222 0.303427 0.101097 -0.055083
C2    C     C_R   0.669425 0.575871 0.143779 -0.140067
C3    C     C_R   0.393778 0.696573 0.101097 -0.055083
C4    C     C_R   0.330574 0.424129 0.143779 -0.140068
C5    C     C_R   0.606222 0.696573 0.898903 -0.055082
C6    C     C_R   0.669426 0.424129 0.856221 -0.140066
C7    C     C_R   0.393778 0.303427 0.898903 -0.055082
C8    C     C_R   0.330574 0.575871 0.856221 -0.140068
C9    C     C_R   0.106222 0.803427 0.601097 -0.055081
C10   C     C_R   0.169426 0.075871 0.643779 -0.140067
C11   C     C_R   0.893778 0.196573 0.601098 -0.055082
C12   C     C_R   0.830574 0.924129 0.643779 -0.140067
C13   C     C_R   0.106222 0.196573 0.398902 -0.055082
C14   C     C_R   0.169426 0.924129 0.356221 -0.140067
C15   C     C_R   0.893778 0.803427 0.398902 -0.055082
C16   C     C_R   0.830574 0.075871 0.356221 -0.140066
C17   C     C_R   0.575904 0.660162 0.151287 0.577174
C18   C     C_R   0.305816 0.604947 0.106004 0.550002
C19   C     C_R   0.424096 0.339838 0.151287 0.577173
C20   C     C_R   0.694183 0.395053 0.106004 0.550002
C21   C     C_R   0.575904 0.339838 0.848712 0.577172
C22   C     C_R   0.305816 0.395053 0.893996 0.550001
C23   C     C_R   0.424096 0.660162 0.848712 0.577173
C24   C     C_R   0.694183 0.604947 0.893996 0.550001
C25   C     C_R   0.075904 0.160163 0.651287 0.577173
C26   C     C_R   0.805816 0.104947 0.606004 0.550003
C27   C     C_R   0.924096 0.839838 0.651288 0.577174
C28   C     C_R   0.194184 0.895053 0.606004 0.550001
C29   C     C_R   0.075904 0.839838 0.348712 0.577173
C30   C     C_R   0.805816 0.895053 0.393996 0.550001
C31   C     C_R   0.924096 0.160162 0.348712 0.577173
C32   C     C_R   0.194184 0.104947 0.393996 0.550001
C33   C     C_R   0.679261 0.318152 0.123329 -0.301546
C34   C     C_R   0.636219 0.627856 0.193188 -0.279353
C35   C     C_R   0.320738 0.681848 0.123329 -0.301546
C36   C     C_R   0.363781 0.372144 0.193188 -0.279353
C37   C     C_R   0.679261 0.681848 0.876671 -0.301546
C38   C     C_R   0.636219 0.372144 0.806811 -0.279352
C39   C     C_R   0.320738 0.318152 0.876671 -0.301546
C40   C     C_R   0.363781 0.627856 0.806811 -0.279353
C41   C     C_R   0.179261 0.818152 0.623329 -0.301546
C42   C     C_R   0.136219 0.127856 0.693188 -0.279351
C43   C     C_R   0.820739 0.181847 0.623329 -0.301546
C44   C     C_R   0.863781 0.872144 0.693188 -0.279354
C45   C     C_R   0.179261 0.181848 0.376671 -0.301546
C46   C     C_R   0.136219 0.872144 0.306812 -0.279353
C47   C     C_R   0.820739 0.818152 0.376671 -0.301547
C48   C     C_R   0.863781 0.127856 0.306812 -0.279353
C49   C     C_2   0.795422 0.754640 0.862269 -0.236516
C50   C     C_2   0.349702 0.711610 0.692199 -0.343221
C51   C     C_2   0.204578 0.245360 0.862269 -0.236515
C52   C     C_2   0.650297 0.288390 0.692198 -0.343223
C53   C     C_2   0.795422 0.245360 0.137731 -0.236516
C54   C     C_2   0.349703 0.288390 0.307801 -0.343222
C55   C     C_2   0.204578 0.754640 0.137731 -0.236516
C56   C     C_2   0.650297 0.711610 0.307801 -0.343223
C57   C     C_2   0.295422 0.254640 0.362269 -0.236515
C58   C     C_2   0.849703 0.211610 0.192198 -0.343223
C59   C     C_2   0.704578 0.745360 0.362269 -0.236515
C60   C     C_2   0.150297 0.788390 0.192198 -0.343222
C61   C     C_2   0.295422 0.745360 0.637731 -0.236518
C62   C     C_2   0.849703 0.788390 0.807801 -0.343221
C63   C     C_2   0.704578 0.254640 0.637731 -0.236514
C64   C     C_2   0.150297 0.211611 0.807801 -0.343222
C65   C     C_2   0.726967 0.736208 0.834499 0.689783
C66   C     C_2   0.336719 0.642739 0.725925 0.741814
C67   C     C_2   0.273033 0.263792 0.834499 0.689783
C68   C     C_2   0.663281 0.357261 0.725925 0.741814
C69   C     C_2   0.726967 0.263792 0.165500 0.689784
C70   C     C_2   0.336719 0.357261 0.274075 0.741815
C71   C     C_2   0.273033 0.736208 0.165500 0.689783
C72   C     C_2   0.663281 0.642739 0.274075 0.741814
C73   C     C_2   0.226967 0.236208 0.334500 0.689782
C74   C     C_2   0.836719 0.142739 0.225925 0.741815
C75   C     C_2   0.773033 0.763792 0.334500 0.689783
C76   C     C_2   0.163281 0.857261 0.225925 0.741815
C77   C     C_2   0.226967 0.763792 0.665500 0.689785
C78   C     C_2   0.836719 0.857261 0.774075 0.741816
C79   C     C_2   0.773033 0.236208 0.665501 0.689782
C80   C     C_2   0.163281 0.142739 0.774075 0.741815
H1    H     H_    0.580344 0.246810 0.097277 0.180397
H2    H     H_    0.716348 0.539863 0.158176 0.195006
H3    H     H_    0.419656 0.753190 0.097277 0.180398
H4    H     H_    0.283652 0.460137 0.158176 0.195006
H5    H     H_    0.580344 0.753190 0.902722 0.180397
H6    H     H_    0.716348 0.460137 0.841824 0.195006
H7    H     H_    0.419656 0.246810 0.902722 0.180397
H8    H     H_    0.283652 0.539863 0.841824 0.195006
H9    H     H_    0.080344 0.746810 0.597277 0.180397
H10   H     H_    0.216348 0.039863 0.658176 0.195006
H11   H     H_    0.919656 0.253190 0.597278 0.180397
H12   H     H_    0.783652 0.960137 0.658176 0.195006
H13   H     H_    0.080344 0.253190 0.402722 0.180397
H14   H     H_    0.216348 0.960137 0.341824 0.195006
H15   H     H_    0.919656 0.746810 0.402722 0.180397
H16   H     H_    0.783652 0.039863 0.341824 0.195006
H17   H     H_    0.815862 0.729677 0.916882 0.136074
H18   H     H_    0.389291 0.752491 0.717220 0.163071
H19   H     H_    0.184138 0.270322 0.916882 0.136073
H20   H     H_    0.610708 0.247509 0.717219 0.163072
H21   H     H_    0.815862 0.270323 0.083118 0.136074
H22   H     H_    0.389291 0.247508 0.282780 0.163071
H23   H     H_    0.184138 0.729677 0.083118 0.136073
H24   H     H_    0.610709 0.752491 0.282780 0.163072
H25   H     H_    0.315862 0.229677 0.416882 0.136073
H26   H     H_    0.889291 0.252491 0.217219 0.163072
H27   H     H_    0.684138 0.770323 0.416882 0.136073
H28   H     H_    0.110708 0.747509 0.217219 0.163072
H29   H     H_    0.315862 0.770323 0.583118 0.136074
H30   H     H_    0.889291 0.747509 0.782780 0.163071
H31   H     H_    0.684139 0.229678 0.583118 0.136073
H32   H     H_    0.110709 0.252492 0.782780 0.163071
N1    N     N_R   0.574080 0.369570 0.076720 -0.084186
N2    N     N_R   0.630430 0.574080 0.076720 -0.067384
N3    N     N_R   0.425920 0.630430 0.076720 -0.084186
N4    N     N_R   0.369570 0.425920 0.076720 -0.067384
N5    N     N_R   0.574080 0.630430 0.923280 -0.084186
N6    N     N_R   0.630430 0.425920 0.923280 -0.067384
N7    N     N_R   0.425920 0.369570 0.923280 -0.084186
N8    N     N_R   0.369570 0.574080 0.923280 -0.067384
N9    N     N_R   0.074080 0.869570 0.576720 -0.084186
N10   N     N_R   0.130430 0.074080 0.576720 -0.067384
N11   N     N_R   0.925920 0.130430 0.576720 -0.084184
N12   N     N_R   0.869570 0.925920 0.576720 -0.067384
N13   N     N_R   0.074080 0.130430 0.423280 -0.084186
N14   N     N_R   0.130430 0.925920 0.423280 -0.067384
N15   N     N_R   0.925920 0.869570 0.423280 -0.084186
N16   N     N_R   0.869570 0.074080 0.423280 -0.067384
N17   N     N_R   0.574050 0.630410 0.076720 -0.100672
N18   N     N_R   0.369590 0.574050 0.076720 -0.093864
N19   N     N_R   0.425950 0.369590 0.076720 -0.100672
N20   N     N_R   0.630410 0.425950 0.076720 -0.093863
N21   N     N_R   0.574050 0.369590 0.923280 -0.100672
N22   N     N_R   0.369590 0.425950 0.923280 -0.093863
N23   N     N_R   0.425950 0.630410 0.923280 -0.100672
N24   N     N_R   0.630410 0.574050 0.923280 -0.093864
N25   N     N_R   0.074050 0.130410 0.576720 -0.100673
N26   N     N_R   0.869590 0.074050 0.576720 -0.093863
N27   N     N_R   0.925950 0.869590 0.576720 -0.100672
N28   N     N_R   0.130410 0.925950 0.576720 -0.093864
N29   N     N_R   0.074050 0.869590 0.423280 -0.100672
N30   N     N_R   0.869590 0.925950 0.423280 -0.093863
N31   N     N_R   0.925950 0.130410 0.423280 -0.100673
N32   N     N_R   0.130410 0.074050 0.423280 -0.093863
Ni1   Ni    Ni4+2 0.500000 0.370760 0.000000 0.200920
Ni2   Ni    Ni4+2 0.629240 0.500000 0.000000 0.266040
Ni3   Ni    Ni4+2 0.500000 0.629240 0.000000 0.200920
Ni4   Ni    Ni4+2 0.370760 0.500000 0.000000 0.266040
Ni5   Ni    Ni4+2 0.000000 0.870760 0.500000 0.200920
Ni6   Ni    Ni4+2 0.129240 0.000000 0.500000 0.266040
Ni7   Ni    Ni4+2 0.000000 0.129240 0.500000 0.200920
Ni8   Ni    Ni4+2 0.870760 0.000000 0.500000 0.266041
O1    O     O_3   0.522016 0.708280 0.183524 -0.635973
C81   C     C_3   0.483181 0.669066 0.244896 -0.298872
H33   H     H_    0.518814 0.654231 0.295899 0.111377
H34   H     H_    0.455877 0.614915 0.223963 0.130833
H35   H     H_    0.438997 0.708289 0.267615 0.223601
O2    O     O_3   0.235106 0.574723 0.089012 -0.604826
C82   C     C_3   0.188958 0.572174 0.156921 -0.258571
H36   H     H_    0.143433 0.615851 0.152548 0.162702
H37   H     H_    0.219969 0.579060 0.213502 0.104157
H38   H     H_    0.160409 0.515042 0.158930 0.197498
O3    O     O_3   0.477984 0.291720 0.183524 -0.635973
C83   C     C_3   0.516819 0.330935 0.244896 -0.298871
H39   H     H_    0.481186 0.345769 0.295900 0.111378
H40   H     H_    0.544122 0.385086 0.223963 0.130832
H41   H     H_    0.561003 0.291712 0.267614 0.223602
O4    O     O_3   0.764894 0.425277 0.089012 -0.604826
C84   C     C_3   0.811042 0.427826 0.156920 -0.258571
H42   H     H_    0.856567 0.384149 0.152547 0.162702
H43   H     H_    0.780031 0.420940 0.213502 0.104157
H44   H     H_    0.839591 0.484958 0.158930 0.197498
O5    O     O_3   0.522016 0.291720 0.816476 -0.635973
C85   C     C_3   0.483181 0.330935 0.755104 -0.298869
H45   H     H_    0.518814 0.345771 0.704101 0.111376
H46   H     H_    0.455877 0.385085 0.776038 0.130832
H47   H     H_    0.438998 0.291712 0.732385 0.223600
O6    O     O_3   0.235106 0.425277 0.910988 -0.604826
C86   C     C_3   0.188958 0.427826 0.843079 -0.258569
H48   H     H_    0.143433 0.384149 0.847453 0.162702
H49   H     H_    0.219969 0.420940 0.786498 0.104157
H50   H     H_    0.160409 0.484958 0.841070 0.197497
O7    O     O_3   0.477984 0.708280 0.816476 -0.635973
C87   C     C_3   0.516819 0.669066 0.755104 -0.298870
H51   H     H_    0.481186 0.654231 0.704100 0.111377
H52   H     H_    0.544122 0.614914 0.776037 0.130832
H53   H     H_    0.561003 0.708288 0.732386 0.223601
O8    O     O_3   0.764894 0.574723 0.910988 -0.604826
C88   C     C_3   0.811042 0.572174 0.843079 -0.258571
H54   H     H_    0.856567 0.615851 0.847453 0.162702
H55   H     H_    0.780031 0.579060 0.786498 0.104157
H56   H     H_    0.839591 0.515041 0.841070 0.197498
O9    O     O_3   0.022016 0.208280 0.683524 -0.635972
C89   C     C_3   0.983181 0.169064 0.744895 -0.298879
H57   H     H_    0.018813 0.154235 0.795901 0.111385
H58   H     H_    0.955883 0.114910 0.723963 0.130828
H59   H     H_    0.938993 0.208283 0.767610 0.223604
O10   O     O_3   0.735106 0.074723 0.589012 -0.604826
C90   C     C_3   0.688957 0.072174 0.656920 -0.258571
H60   H     H_    0.643433 0.115851 0.652547 0.162702
H61   H     H_    0.719969 0.079059 0.713501 0.104158
H62   H     H_    0.660408 0.015041 0.658929 0.197498
O11   O     O_3   0.977984 0.791720 0.683524 -0.635973
C91   C     C_3   0.016819 0.830934 0.744896 -0.298870
H63   H     H_    0.981185 0.845773 0.795898 0.111373
H64   H     H_    0.044126 0.885082 0.723963 0.130836
H65   H     H_    0.060999 0.791709 0.767618 0.223599
O12   O     O_3   0.264894 0.925276 0.589012 -0.604826
C92   C     C_3   0.311042 0.927826 0.656921 -0.258572
H66   H     H_    0.356567 0.884149 0.652547 0.162703
H67   H     H_    0.280031 0.920940 0.713502 0.104157
H68   H     H_    0.339591 0.984958 0.658930 0.197498
O13   O     O_3   0.022016 0.791720 0.316476 -0.635973
C93   C     C_3   0.983181 0.830934 0.255104 -0.298871
H69   H     H_    0.018814 0.845770 0.204101 0.111376
H70   H     H_    0.955877 0.885085 0.276037 0.130833
H71   H     H_    0.938998 0.791711 0.232384 0.223600
O14   O     O_3   0.735106 0.925277 0.410988 -0.604826
C94   C     C_3   0.688958 0.927826 0.343079 -0.258570
H72   H     H_    0.643433 0.884149 0.347453 0.162702
H73   H     H_    0.719969 0.920940 0.286498 0.104157
H74   H     H_    0.660409 0.984958 0.341070 0.197498
O15   O     O_3   0.977984 0.208280 0.316476 -0.635973
C95   C     C_3   0.016819 0.169066 0.255104 -0.298868
H75   H     H_    0.981186 0.154230 0.204101 0.111376
H76   H     H_    0.044123 0.114915 0.276037 0.130832
H77   H     H_    0.061002 0.208289 0.232384 0.223600
O16   O     O_3   0.264894 0.074723 0.410988 -0.604826
C96   C     C_3   0.311042 0.072174 0.343079 -0.258568
H78   H     H_    0.356567 0.115851 0.347453 0.162702
H79   H     H_    0.280031 0.079060 0.286498 0.104156
H80   H     H_    0.339591 0.015041 0.341070 0.197497
O17   O     O_3   0.700635 0.766894 0.764205 -0.571928
C97   C     C_3   0.713700 0.712916 0.703360 -0.302277
H81   H     H_    0.690723 0.736898 0.647809 0.185801
H82   H     H_    0.684609 0.656953 0.714654 0.104660
H83   H     H_    0.775113 0.702796 0.694310 0.145926
O18   O     O_3   0.283356 0.593589 0.693178 -0.567189
C98   C     C_3   0.320843 0.527078 0.665185 -0.328861
H84   H     H_    0.278533 0.488156 0.637783 0.185221
H85   H     H_    0.348390 0.494285 0.713634 0.115129
H86   H     H_    0.363141 0.542349 0.619284 0.136682
O19   O     O_3   0.299366 0.233106 0.764205 -0.571928
C99   C     C_3   0.286301 0.287085 0.703360 -0.302278
H87   H     H_    0.309277 0.263102 0.647809 0.185801
H88   H     H_    0.315391 0.343048 0.714654 0.104660
H89   H     H_    0.224887 0.297204 0.694309 0.145926
O20   O     O_3   0.716644 0.406411 0.693178 -0.567189
C100  C     C_3   0.679157 0.472922 0.665185 -0.328862
H90   H     H_    0.721468 0.511844 0.637783 0.185221
H91   H     H_    0.651610 0.505715 0.713634 0.115129
H92   H     H_    0.636860 0.457651 0.619283 0.136682
O21   O     O_3   0.700634 0.233106 0.235795 -0.571928
C101  C     C_3   0.713700 0.287085 0.296640 -0.302276
H93   H     H_    0.690723 0.263102 0.352191 0.185801
H94   H     H_    0.684609 0.343048 0.285346 0.104660
H95   H     H_    0.775114 0.297204 0.305690 0.145925
O22   O     O_3   0.283357 0.406411 0.306823 -0.567189
C102  C     C_3   0.320844 0.472923 0.334814 -0.328861
H96   H     H_    0.278534 0.511844 0.362217 0.185220
H97   H     H_    0.348390 0.505715 0.286365 0.115129
H98   H     H_    0.363143 0.457652 0.380715 0.136681
O23   O     O_3   0.299365 0.766894 0.235795 -0.571927
C103  C     C_3   0.286301 0.712915 0.296640 -0.302276
H99   H     H_    0.309277 0.736898 0.352191 0.185801
H100  H     H_    0.315391 0.656953 0.285346 0.104660
H101  H     H_    0.224887 0.702795 0.305690 0.145925
O24   O     O_3   0.716644 0.593589 0.306822 -0.567188
C104  C     C_3   0.679157 0.527078 0.334815 -0.328860
H102  H     H_    0.721467 0.488157 0.362218 0.185220
H103  H     H_    0.651610 0.494285 0.286366 0.115129
H104  H     H_    0.636859 0.542349 0.380716 0.136681
O25   O     O_3   0.200634 0.266894 0.264205 -0.571927
C105  C     C_3   0.213699 0.212916 0.203360 -0.302276
H105  H     H_    0.190722 0.236898 0.147809 0.185801
H106  H     H_    0.184608 0.156953 0.214654 0.104660
H107  H     H_    0.275113 0.202796 0.194309 0.145925
O26   O     O_3   0.783356 0.093589 0.193178 -0.567189
C106  C     C_3   0.820843 0.027078 0.165185 -0.328862
H108  H     H_    0.778532 0.988156 0.137783 0.185221
H109  H     H_    0.848390 0.994285 0.213634 0.115129
H110  H     H_    0.863140 0.042349 0.119283 0.136683
O27   O     O_3   0.799366 0.733106 0.264205 -0.571927
C107  C     C_3   0.786301 0.787084 0.203360 -0.302274
H111  H     H_    0.809277 0.763102 0.147809 0.185800
H112  H     H_    0.815392 0.843047 0.214654 0.104659
H113  H     H_    0.724887 0.797204 0.194309 0.145925
O28   O     O_3   0.216644 0.906411 0.193178 -0.567189
C108  C     C_3   0.179157 0.972922 0.165185 -0.328860
H114  H     H_    0.221468 0.011843 0.137783 0.185220
H115  H     H_    0.151610 0.005715 0.213634 0.115129
H116  H     H_    0.136859 0.957651 0.119284 0.136681
O29   O     O_3   0.200634 0.733106 0.735794 -0.571927
C109  C     C_3   0.213698 0.787084 0.796640 -0.302275
H117  H     H_    0.190721 0.763101 0.852190 0.185800
H118  H     H_    0.184607 0.843047 0.785345 0.104660
H119  H     H_    0.275112 0.797204 0.805690 0.145925
O30   O     O_3   0.783357 0.906411 0.806823 -0.567189
C110  C     C_3   0.820844 0.972922 0.834814 -0.328863
H120  H     H_    0.778534 0.011843 0.862220 0.185221
H121  H     H_    0.848387 0.005717 0.786365 0.115132
H122  H     H_    0.863144 0.957651 0.880713 0.136679
O31   O     O_3   0.799365 0.266893 0.735795 -0.571928
C111  C     C_3   0.786298 0.212915 0.796641 -0.302277
H123  H     H_    0.809275 0.236897 0.852192 0.185802
H124  H     H_    0.815388 0.156951 0.785347 0.104658
H125  H     H_    0.724884 0.202796 0.805690 0.145926
O32   O     O_3   0.216643 0.093589 0.806823 -0.567190
C112  C     C_3   0.179155 0.027077 0.834814 -0.328863
H126  H     H_    0.221466 0.988154 0.862214 0.185220
H127  H     H_    0.151606 0.994286 0.786365 0.115128
H128  H     H_    0.136859 0.042348 0.880717 0.136684

loop_
_geom_bond_atom_site_label_1
_geom_bond_atom_site_label_2
_ccdc_geom_bond_type
C89   H58   S    
C4    C36   A    
C5    C37   A    
C32   C45   A    
O15   C95   S    
C17   O1    S    
N11   N26   A    
N9    N28   A    
C107  H111  S    
C64   H32   S    
C89   H59   S    
N13   N32   A    
C99   H87   S    
C105  H105  S    
C101  H94   S    
C111  H125  S    
C56   C72   D    
C9    N9    A    
C82   H37   S    
C33   C69   S    
C13   N13   A    
C2    C34   A    
N31   Ni7   S    
C53   C69   D    
C90   H60   S    
C15   N15   A    
C19   N19   A    
C97   H82   S    
C20   N20   A    
C21   N21   A    
O16   C96   S    
C4    N4    A    
C16   H16   S    
C7    N7    A    
C10   N10   A    
N18   Ni4   S    
C60   C76   D    
C97   H83   S    
O7    C87   S    
C96   H78   S    
C29   O13   S    
O31   C111  S    
C54   C70   D    
C85   H47   S    
C81   H33   S    
C20   C33   A    
O4    C84   S    
N8    Ni4   S    
C21   O5    S    
C31   C48   A    
C104  H103  S    
C3    H3    S    
O2    C82   S    
C28   O12   S    
C18   N18   A    
N21   Ni1   S    
C17   C34   A    
C49   C62   S    
C107  H113  S    
C51   C64   S    
N10   N25   A    
C102  H97   S    
C52   C63   S    
C53   C58   S    
C50   C66   D    
N14   N29   A    
C9    C41   A    
C14   N14   A    
C56   C59   S    
C24   O8    S    
N8    N23   A    
C35   C71   S    
C13   C45   A    
C2    N2    A    
N9    Ni5   S    
C106  H109  S    
C63   H31   S    
C59   H27   S    
C32   N32   A    
C49   H17   S    
C11   H11   S    
C12   C44   A    
O9    C89   S    
C7    C39   A    
C8    C40   A    
C55   C71   D    
O19   C99   S    
N12   N27   A    
C108  H116  S    
O6    C86   S    
C68   O20   S    
C100  H90   S    
C27   O11   S    
C96   H80   S    
O21   C101  S    
C93   H70   S    
N30   Ni8   S    
C72   O24   S    
C87   H51   S    
C57   C73   D    
C88   H55   S    
C85   H45   S    
N32   Ni6   S    
N13   Ni7   S    
C27   C44   A    
N16   Ni8   S    
C21   C38   A    
C61   C77   D    
C103  H99   S    
C37   C65   S    
C90   H62   S    
C6    C38   A    
C18   C35   A    
C30   O14   S    
C5    H5    S    
C24   N24   A    
C111  H124  S    
C66   O18   S    
C31   N31   A    
C84   H43   S    
C36   C70   S    
C92   H66   S    
C112  H127  S    
C50   H18   S    
N7    N22   A    
N17   Ni3   S    
C19   O3    S    
C101  H95   S    
C52   H20   S    
C27   N27   A    
C8    H8    S    
C25   N25   A    
C23   O7    S    
O29   C109  S    
C16   N16   A    
C3    C35   A    
C29   N29   A    
C24   C37   A    
C98   H85   S    
C51   C67   D    
N23   Ni3   S    
C34   C72   S    
C58   C74   D    
C74   O26   S    
C100  H92   S    
C62   C78   D    
C6    H6    S    
C87   H53   S    
C107  H112  S    
O22   C102  S    
C47   C75   S    
N15   Ni5   S    
C94   H74   S    
N14   Ni6   S    
C103  H101  S    
C22   C39   A    
C99   H88   S    
N19   Ni1   S    
C105  H106  S    
C26   O10   S    
C110  H122  S    
N24   Ni2   S    
C77   O29   S    
C78   O30   S    
C91   H63   S    
O27   C107  S    
C50   C61   S    
O26   C106  S    
C76   O28   S    
C55   C60   S    
C54   C57   S    
N1    N20   A    
N28   Ni6   S    
C10   C42   A    
C105  H107  S    
C98   H84   S    
C95   H75   S    
O23   C103  S    
C14   C46   A    
O13   C93   S    
C1    N1    A    
N10   Ni6   S    
C65   O17   S    
C83   H39   S    
C15   H15   S    
C109  H117  S    
C1    H1    S    
C23   C40   A    
N3    Ni3   S    
C28   C41   A    
C92   H68   S    
N1    Ni1   S    
C7    H7    S    
C32   O16   S    
C53   H21   S    
O12   C92   S    
C106  H108  S    
C81   H34   S    
C60   H28   S    
C86   H50   S    
C89   H57   S    
C40   C66   S    
C104  H102  S    
C64   C80   D    
C80   O32   S    
C12   H12   S    
C71   O23   S    
N11   Ni7   S    
N29   Ni5   S    
C56   H24   S    
C109  H119  S    
C9    H9    S    
C94   H72   S    
N4    Ni4   S    
C67   O19   S    
N26   Ni8   S    
C112  H126  S    
N27   Ni5   S    
C13   H13   S    
C110  H120  S    
C101  H93   S    
C18   O2    S    
C48   C74   S    
C82   H36   S    
C91   H65   S    
C82   H38   S    
C81   H35   S    
C38   C68   S    
N2    N17   A    
C2    H2    S    
C97   H81   S    
C95   H77   S    
C79   O31   S    
C25   O9    S    
O20   C100  S    
O18   C98   S    
C54   H22   S    
C83   H41   S    
C11   N11   A    
C26   N26   A    
C25   C42   A    
N7    Ni1   S    
C30   N30   A    
C23   N23   A    
C29   C46   A    
N5    Ni3   S    
N20   Ni2   S    
C96   H79   S    
C99   H89   S    
C3    N3    A    
C44   C78   S    
C87   H52   S    
C88   H54   S    
N16   N31   A    
C85   H46   S    
C1    C33   A    
C86   H48   S    
C70   O22   S    
O24   C104  S    
C10   H10   S    
C103  H100  S    
C104  H104  S    
C90   H61   S    
N5    N24   A    
C12   N12   A    
C14   H14   S    
C57   H25   S    
O11   C91   S    
C42   C80   S    
C55   H23   S    
C84   H42   S    
O3    C83   S    
C28   N28   A    
C15   C47   A    
C22   O6    S    
C102  H98   S    
C61   H29   S    
C16   C48   A    
C46   C76   S    
C69   O21   S    
C63   C79   D    
O5    C85   S    
C49   C65   D    
C22   N22   A    
C19   C36   A    
C41   C77   S    
C43   C79   S    
C75   O27   S    
C45   C73   S    
C106  H110  S    
C108  H115  S    
C73   O25   S    
C4    H4    S    
C11   C43   A    
O10   C90   S    
C52   C68   D    
N12   Ni8   S    
C26   C43   A    
C51   H19   S    
C20   O4    S    
C100  H91   S    
C17   N17   A    
C30   C47   A    
N6    Ni2   S    
N2    Ni2   S    
C93   H69   S    
C5    N5    A    
O8    C88   S    
C58   H26   S    
N15   N30   A    
C88   H56   S    
C94   H73   S    
C62   H30   S    
O25   C105  S    
C110  H121  S    
N6    N21   A    
C31   O15   S    
C111  H123  S    
C91   H64   S    
C84   H44   S    
C102  H96   S    
C59   C75   D    
O32   C112  S    
C8    N8    A    
C108  H114  S    
O17   C97   S    
C112  H128  S    
C39   C67   S    
C93   H71   S    
C95   H76   S    
N22   Ni4   S    
O28   C108  S    
C83   H40   S    
C109  H118  S    
O14   C94   S    
N4    N19   A    
C92   H67   S    
C6    N6    A    
C98   H86   S    
O30   C110  S    
N25   Ni7   S    
O1    C81   S    
N3    N18   A    
C86   H49   S    
