data_mof_unit_7013.cif
_audit_creation_date              2012-12-11T14:42:16-0500
_audit_creation_method            fapswitch 2.2
_symmetry_space_group_name_H-M    P1
_symmetry_Int_Tables_number       1
_space_group_crystal_system       triclinic
_cell_length_a                    18.933327
_cell_length_b                    10.923817
_cell_length_c                    18.77289
_cell_angle_alpha                 90.273663
_cell_angle_beta                  90.43926
_cell_angle_gamma                 90.487354
_cell_volume                      3882.38787859

loop_
_atom_site_label
_atom_site_type_symbol
_atom_type_description
_atom_site_fract_x
_atom_site_fract_y
_atom_site_fract_z
_atom_type_partial_charge
C1    C     C_R   0.728066 0.953966 0.853374 0.554923
C2    C     C_R   0.252870 0.399399 0.920656 0.008373
C3    C     C_1   0.977665 0.906902 0.447336 0.222408
C4    C     C_R   0.260217 0.930978 0.070618 0.018423
C5    C     C_R   0.752871 0.899405 0.920658 0.008370
C6    C     C_R   0.819755 0.410576 0.028120 -0.134480
C7    C     C_R   0.209494 0.310292 0.952268 -0.144003
C8    C     C_R   0.319748 0.910583 0.028122 -0.134497
C9    C     C_R   0.709504 0.810281 0.952264 -0.144004
C10   C     C_R   0.813661 0.404793 0.955354 -0.128857
C11   C     C_R   0.219248 0.278627 0.022879 -0.133266
C12   C     C_R   0.313655 0.904793 0.955356 -0.128874
C13   C     C_R   0.273796 0.958029 0.145225 0.543115
C14   C     C_R   0.719257 0.778616 0.022875 -0.133264
C15   C     C_R   0.747265 0.413377 0.923520 0.014078
C16   C     C_R   0.272955 0.334281 0.063402 0.008068
C17   C     C_R   0.247263 0.913368 0.923522 0.014077
C18   C     C_R   0.772956 0.834283 0.063403 0.008068
C19   C     C_R   0.463879 0.272477 0.548869 -0.029543
C20   C     C_R   0.473112 0.283661 0.476065 -0.028467
C21   C     C_R   0.963780 0.772481 0.548931 -0.029640
C22   C     C_R   0.972969 0.783647 0.476118 -0.028698
C23   C     C_R   0.482524 0.175721 0.434196 0.005640
C24   C     C_R   0.228067 0.453964 0.853373 0.554925
C25   C     C_R   0.485972 0.164140 0.581547 0.003762
C26   C     C_R   0.982359 0.675695 0.434252 0.005510
C27   C     C_R   0.985884 0.664143 0.581602 0.003749
C28   C     C_R   0.489498 0.062185 0.467752 -0.159239
C29   C     C_R   0.492850 0.056742 0.541306 -0.160104
C30   C     C_R   0.989245 0.562140 0.467817 -0.158790
C31   C     C_R   0.992661 0.556715 0.541371 -0.159764
C32   C     C_R   0.813980 0.384782 0.542224 -0.138122
C33   C     C_R   0.177859 0.396289 0.452931 -0.126702
C34   C     C_R   0.314168 0.886586 0.542495 -0.138036
C35   C     C_R   0.773796 0.458029 0.145225 0.543102
C36   C     C_R   0.677888 0.896150 0.452958 -0.126827
C37   C     C_R   0.818981 0.392462 0.469547 -0.126453
C38   C     C_R   0.166915 0.424423 0.523750 -0.130701
C39   C     C_R   0.319344 0.894517 0.469824 -0.126097
C40   C     C_R   0.666950 0.924275 0.523776 -0.130746
C41   C     C_R   0.530181 0.177359 0.851100 0.555057
C42   C     C_R   0.470627 0.177833 0.149449 0.550284
C43   C     C_R   0.030181 0.677359 0.851100 0.555062
C44   C     C_R   0.970627 0.677833 0.149449 0.550293
C45   C     C_R   0.761106 0.431480 0.428445 0.029375
C46   C     C_R   0.693342 0.446154 0.038565 -0.042446
C47   C     C_R   0.219060 0.486423 0.563167 0.023921
C48   C     C_R   0.261243 0.931852 0.428515 0.029409
C49   C     C_R   0.719064 0.986394 0.563170 0.024056
C50   C     C_R   0.698019 0.464122 0.461626 -0.134640
C51   C     C_R   0.279485 0.531238 0.528354 -0.121125
C52   C     C_R   0.197799 0.962881 0.461462 -0.134936
C53   C     C_R   0.779453 0.031309 0.528336 -0.121135
C54   C     C_R   0.692143 0.452119 0.535055 -0.126736
C55   C     C_R   0.291508 0.499888 0.457235 -0.136360
C56   C     C_R   0.191810 0.950784 0.534868 -0.126760
C57   C     C_R   0.312564 0.444682 0.959017 -0.031536
C58   C     C_R   0.791469 0.999974 0.457212 -0.136399
C59   C     C_R   0.749869 0.409497 0.575275 0.028652
C60   C     C_R   0.242203 0.426679 0.420288 0.021011
C61   C     C_R   0.249755 0.909627 0.575296 0.028584
C62   C     C_R   0.742199 0.926659 0.420291 0.021065
C63   C     C_R   0.738381 0.365147 0.852295 0.546858
C64   C     C_R   0.276210 0.311005 0.140044 0.558361
C65   C     C_R   0.238381 0.865145 0.852296 0.546864
C66   C     C_R   0.776210 0.811005 0.140044 0.558366
C67   C     C_R   0.708805 0.003240 0.639909 0.564940
C68   C     C_R   0.193342 0.946141 0.038567 -0.042434
C69   C     C_R   0.273656 0.958578 0.354071 0.552438
C70   C     C_R   0.208803 0.503247 0.639910 0.564901
C71   C     C_R   0.773617 0.458489 0.354041 0.552510
C72   C     C_R   0.525510 0.175082 0.647752 0.542924
C73   C     C_R   0.466877 0.178034 0.358160 0.548388
C74   C     C_R   0.025494 0.675083 0.647767 0.542814
C75   C     C_R   0.966825 0.678033 0.358190 0.548428
C76   C     C_R   0.739402 0.362817 0.646521 0.534690
C77   C     C_R   0.259618 0.365453 0.353015 0.554524
C78   C     C_R   0.239378 0.862802 0.646515 0.534633
C79   C     C_R   0.812555 0.944711 0.959024 -0.031538
C80   C     C_R   0.759616 0.865454 0.353014 0.554518
C81   C     C_2   0.499288 0.167083 0.921966 -0.114687
C82   C     C_2   0.503977 0.170400 0.079688 -0.103108
C83   C     C_2   0.999289 0.667082 0.921966 -0.114690
C84   C     C_2   0.003977 0.670402 0.079688 -0.103106
C85   C     C_2   0.499230 0.068467 0.039871 -0.166206
C86   C     C_2   0.513980 0.069761 0.963164 -0.163630
C87   C     C_2   0.999235 0.568467 0.039873 -0.166207
C88   C     C_2   0.013984 0.569761 0.963165 -0.163627
C89   C     C_R   0.687332 0.437533 0.964833 -0.144487
C90   C     C_R   0.760219 0.430980 0.070617 0.018425
C91   C     C_R   0.322105 0.411354 0.030169 -0.139993
C92   C     C_R   0.187333 0.937513 0.964836 -0.144480
C93   C     C_R   0.822098 0.911377 0.030175 -0.139992
C94   C     C_1   0.630283 0.466392 0.079714 0.187243
C95   C     C_1   0.363262 0.528757 0.928694 0.222992
C96   C     C_1   0.130286 0.966379 0.079718 0.187241
C97   C     C_1   0.863237 0.028828 0.928715 0.223006
C98   C     C_1   0.439009 0.375693 0.590778 0.224418
C99   C     C_1   0.477834 0.406926 0.447292 0.222667
C100  C     C_1   0.938947 0.875709 0.590852 0.224454
Cr1   Cr    Cr6+3 0.769270 0.163730 0.750710 1.064932
Cr2   Cr    Cr6+3 0.385840 0.322500 0.252290 1.058571
Cr3   Cr    Cr6+3 0.114160 0.822500 0.747710 1.040121
Cr4   Cr    Cr6+3 0.885840 0.822500 0.252290 1.058558
Cr5   Cr    Cr6+3 0.230730 0.163730 0.249290 1.046805
Cr6   Cr    Cr6+3 0.269270 0.663730 0.750710 1.064952
Cr7   Cr    Cr6+3 0.730730 0.663730 0.249290 1.046740
Cr8   Cr    Cr6+3 0.612620 0.009790 0.748780 1.020056
Cr9   Cr    Cr6+3 0.387380 0.009790 0.251220 1.024271
Cr10  Cr    Cr6+3 0.112620 0.509790 0.748780 1.020117
Cr11  Cr    Cr6+3 0.887380 0.509790 0.251220 1.024270
Cr12  Cr    Cr6+3 0.614160 0.322500 0.747710 1.040162
H1    H     H_    0.483954 0.981989 0.063592 0.149913
H2    H     H_    0.340209 0.528201 0.432300 0.154639
H3    H     H_    0.141207 0.968103 0.559301 0.147466
H4    H     H_    0.840133 0.028395 0.432251 0.154538
H5    H     H_    0.523389 0.255047 0.056522 0.130152
H6    H     H_    0.473073 0.246680 0.944009 0.112997
H7    H     H_    0.023383 0.755051 0.056520 0.130151
H8    H     H_    0.973072 0.746678 0.944009 0.112992
H9    H     H_    0.860425 0.386001 0.924309 0.151001
H10   H     H_    0.182529 0.214656 0.046734 0.147941
H11   H     H_    0.360416 0.886009 0.924311 0.150984
H12   H     H_    0.538673 0.988964 0.940808 0.164676
H13   H     H_    0.682543 0.714632 0.046728 0.147938
H14   H     H_    0.859376 0.352482 0.571978 0.136982
H15   H     H_    0.137513 0.342923 0.425423 0.141759
H16   H     H_    0.359703 0.855459 0.572449 0.136785
H17   H     H_    0.637567 0.842697 0.425473 0.141673
H18   H     H_    0.653607 0.497825 0.430975 0.146103
H19   H     H_    0.318617 0.585834 0.556676 0.160280
H20   H     H_    0.153183 0.995249 0.430633 0.145936
H21   H     H_    0.818561 0.085980 0.556643 0.159939
H22   H     H_    0.635369 0.442190 0.940307 0.144117
H23   H     H_    0.983967 0.481986 0.063596 0.149910
H24   H     H_    0.366159 0.449770 0.060295 0.147243
H25   H     H_    0.135372 0.942161 0.940311 0.144117
H26   H     H_    0.866144 0.949809 0.060305 0.147242
H27   H     H_    0.871946 0.400653 0.050920 0.141931
H28   H     H_    0.164867 0.270240 0.923895 0.144537
H29   H     H_    0.371935 0.900676 0.050922 0.141936
H30   H     H_    0.664884 0.770215 0.923887 0.144530
H31   H     H_    0.494539 0.978417 0.437151 0.130377
H32   H     H_    0.505344 0.970527 0.566389 0.127472
H33   H     H_    0.994202 0.478346 0.437225 0.130578
H34   H     H_    0.038678 0.488966 0.940809 0.164673
H35   H     H_    0.005142 0.470492 0.566454 0.127521
H36   H     H_    0.869343 0.370172 0.446011 0.143501
H37   H     H_    0.118796 0.392429 0.548435 0.129907
H38   H     H_    0.369952 0.873617 0.446430 0.143529
H39   H     H_    0.618864 0.892176 0.548477 0.129875
H40   H     H_    0.641783 0.470803 0.559685 0.147159
N1    N     N_1   0.579786 0.482883 0.112636 -0.288702
N2    N     N_1   0.404033 0.596074 0.904618 -0.289490
N3    N     N_1   0.079791 0.982872 0.112641 -0.288725
N4    N     N_1   0.903992 0.096183 0.904650 -0.289490
N5    N     N_1   0.419674 0.457551 0.624535 -0.287484
N6    N     N_1   0.482218 0.505127 0.424734 -0.321159
N7    N     N_1   0.919636 0.957577 0.624615 -0.287448
N8    N     N_1   0.982028 0.005097 0.424771 -0.321289
O1    O     O_R   0.784320 0.290430 0.830510 -0.501174
O2    O     O_R   0.456080 0.282180 0.333210 -0.497372
O3    O     O_R   0.043920 0.782180 0.666790 -0.501941
O4    O     O_R   0.956080 0.782180 0.333210 -0.497364
O5    O     O_R   0.679040 0.374160 0.674430 -0.504372
O6    O     O_R   0.320960 0.374160 0.325570 -0.492073
O7    O     O_R   0.179040 0.874160 0.674430 -0.504479
O8    O     O_R   0.820960 0.874160 0.325570 -0.492039
O9    O     O_3   0.665350 0.165340 0.749070 -0.277072
O10   O     O_3   0.334650 0.165340 0.250930 -0.281611
O11   O     O_3   0.165350 0.665340 0.749070 -0.277104
O12   O     O_R   0.215680 0.290430 0.169490 -0.504638
O13   O     O_3   0.834650 0.665340 0.250930 -0.281568
O14   O     O_R   0.762640 0.040960 0.825200 -0.475448
O15   O     O_R   0.237360 0.040960 0.174800 -0.506350
O16   O     O_R   0.262640 0.540960 0.825200 -0.475454
O17   O     O_R   0.737360 0.540960 0.174800 -0.506340
O18   O     O_R   0.667400 0.923970 0.829950 -0.521666
O19   O     O_R   0.332600 0.923970 0.170050 -0.519412
O20   O     O_R   0.167400 0.423970 0.829950 -0.521660
O21   O     O_R   0.832600 0.423970 0.170050 -0.519442
O22   O     O_R   0.553960 0.081340 0.821780 -0.498476
O23   O     O_R   0.284320 0.790430 0.830510 -0.501203
O24   O     O_R   0.446040 0.081340 0.178220 -0.501459
O25   O     O_R   0.053960 0.581340 0.821780 -0.498466
O26   O     O_R   0.946040 0.581340 0.178220 -0.501462
O27   O     O_R   0.543180 0.283240 0.826740 -0.503353
O28   O     O_R   0.456820 0.283240 0.173260 -0.501473
O29   O     O_R   0.043180 0.783240 0.826740 -0.503342
O30   O     O_R   0.956820 0.783240 0.173260 -0.501476
O31   O     O_R   0.678360 0.375140 0.822710 -0.505261
O32   O     O_R   0.321640 0.375140 0.177290 -0.498936
O33   O     O_R   0.178360 0.875140 0.822710 -0.505226
O34   O     O_R   0.715680 0.790430 0.169490 -0.504618
O35   O     O_R   0.821640 0.875140 0.177290 -0.498955
O36   O     O_R   0.785050 0.289380 0.670560 -0.531403
O37   O     O_R   0.214950 0.289380 0.329440 -0.516600
O38   O     O_R   0.285050 0.789380 0.670560 -0.531222
O39   O     O_R   0.714950 0.789380 0.329440 -0.516723
O40   O     O_R   0.763320 0.039990 0.676930 -0.479855
O41   O     O_R   0.236680 0.039990 0.323070 -0.495258
O42   O     O_R   0.263320 0.539990 0.676930 -0.479867
O43   O     O_R   0.736680 0.539990 0.323070 -0.495386
O44   O     O_R   0.668130 0.922920 0.670000 -0.513860
O45   O     O_R   0.554640 0.080370 0.673500 -0.527685
O46   O     O_R   0.331870 0.922920 0.330000 -0.519997
O47   O     O_R   0.168130 0.422920 0.670000 -0.513736
O48   O     O_R   0.831870 0.422920 0.330000 -0.520063
O49   O     O_R   0.445360 0.080370 0.326500 -0.504040
O50   O     O_R   0.054640 0.580370 0.673500 -0.527664
O51   O     O_R   0.945360 0.580370 0.326500 -0.503912
O52   O     O_R   0.543920 0.282180 0.666790 -0.501737

loop_
_geom_bond_atom_site_label_1
_geom_bond_atom_site_label_2
_ccdc_geom_bond_type
C70   O42   A    
C58   H4    S    
C87   C88   S    
C49   C53   A    
Cr10  O25   S    
C58   C62   A    
Cr5   O12   S    
C45   C71   S    
C43   C83   S    
Cr6   O11   S    
C14   C18   A    
C2    C7    A    
C42   C82   S    
C84   C87   D    
Cr11  O21   S    
C48   C69   S    
C4    C8    A    
C10   H9    S    
Cr12  O27   S    
C66   O35   A    
C2    C57   A    
C46   C89   A    
C85   C86   S    
C69   O41   A    
C12   H11   S    
C39   H38   S    
C75   O51   A    
C69   O46   A    
C68   C96   S    
C14   H13   S    
C74   O50   A    
C1    C5    S    
Cr12  O52   S    
C73   O49   A    
C28   C29   A    
C79   C93   A    
C10   C15   A    
C94   N1    T    
C74   O3    A    
C36   C62   A    
C96   N3    T    
C15   C89   A    
C43   O25   A    
C40   C49   A    
Cr5   O15   S    
C33   H15   S    
C41   O27   A    
C63   O1    A    
C11   C16   A    
C97   N4    T    
C32   H14   S    
C6    H27   S    
C67   O44   A    
C50   H18   S    
C44   O30   A    
C54   C59   A    
Cr4   O35   S    
C91   H24   S    
C4    C13   S    
C71   O43   A    
C12   C17   A    
C24   O20   A    
Cr2   O32   S    
Cr3   O7    S    
C20   C23   A    
Cr1   O9    S    
C8    H29   S    
C93   H26   S    
C5    C79   A    
C27   C74   S    
C76   O36   A    
C61   C78   S    
C38   H37   S    
C81   C86   D    
Cr1   O36   S    
Cr2   O2    S    
Cr6   O38   S    
C31   H35   S    
Cr10  O11   S    
Cr5   O37   S    
C83   C88   D    
C21   C27   A    
C41   C81   S    
Cr2   O6    S    
Cr8   O9    S    
Cr7   O17   S    
Cr3   O11   S    
Cr1   O14   S    
Cr10  O50   S    
C17   C92   A    
C23   C73   S    
Cr9   O49   S    
C92   H25   S    
C64   O32   A    
C19   C98   S    
C65   O33   A    
C35   O17   A    
C25   C29   A    
C60   C77   S    
C1    O14   A    
Cr1   O40   S    
Cr5   O10   S    
C27   C31   A    
C34   C39   A    
C52   H20   S    
C87   H23   S    
C36   C40   A    
C53   H21   S    
C67   O40   A    
C28   H31   S    
C21   C100  S    
C51   H19   S    
C47   C51   A    
Cr7   O13   S    
C42   O24   A    
C77   O6    A    
C6    C90   A    
C29   H32   S    
C81   H6    S    
C34   C61   A    
Cr2   O28   S    
C40   H39   S    
C75   O4    A    
C83   H8    S    
C64   O12   A    
C7    C11   A    
C9    C14   A    
C2    C24   S    
C47   C70   S    
C5    C9    A    
C73   O2    A    
Cr6   O42   S    
C1    O18   A    
Cr9   O19   S    
Cr5   O41   S    
Cr12  O9    S    
C46   C94   S    
C98   N5    T    
Cr10  O20   S    
C30   C31   A    
C8    C12   A    
Cr4   O30   S    
C26   C75   S    
C78   O7    A    
Cr8   O18   S    
C76   O5    A    
C25   C72   S    
C50   C54   A    
C32   C37   A    
C38   C47   A    
C72   O45   A    
Cr3   O29   S    
Cr9   O24   S    
C71   O48   A    
C62   C80   S    
C33   C60   A    
C86   H12   S    
C3    N8    T    
C41   O22   A    
C11   H10   S    
C23   C28   A    
C37   C45   A    
C24   O16   A    
Cr9   O10   S    
C30   H33   S    
C4    C68   A    
C65   O23   A    
C42   O28   A    
C13   O15   A    
C15   C63   S    
C18   C66   S    
Cr11  O26   S    
C88   H34   S    
C89   H22   S    
C57   C91   A    
Cr11  O13   S    
Cr3   O3    S    
C79   C97   S    
Cr8   O45   S    
C44   C84   S    
Cr4   O4    S    
C54   H40   S    
C9    H30   S    
C49   C67   S    
Cr4   O13   S    
C46   C90   A    
C55   H2    S    
C35   O21   A    
C82   C85   D    
Cr7   O43   S    
C17   C65   S    
C33   C38   A    
C82   H5    S    
Cr8   O22   S    
C95   N2    T    
C21   C22   A    
C19   C20   A    
Cr1   O1    S    
C70   O47   A    
Cr4   O8    S    
Cr8   O44   S    
C13   O19   A    
C36   H17   S    
Cr12  O31   S    
Cr7   O39   S    
C80   O39   A    
C100  N7    T    
C72   O52   A    
C20   C99   S    
Cr2   O10   S    
C55   C60   A    
C84   H7    S    
C63   O31   A    
Cr12  O5    S    
Cr11  O48   S    
C85   H1    S    
C68   C92   A    
C56   H3    S    
C78   O38   A    
C51   C55   A    
Cr7   O34   S    
C37   H36   S    
Cr9   O46   S    
C19   C25   A    
Cr10  O47   S    
Cr11  O51   S    
Cr6   O23   S    
C6    C10   A    
C22   C26   A    
C35   C90   S    
C7    H28   S    
C48   C52   A    
C43   O29   A    
C16   C91   A    
C34   H16   S    
C57   C95   S    
C99   N6    T    
C44   O26   A    
C18   C93   A    
Cr6   O16   S    
C56   C61   A    
C3    C22   S    
C45   C50   A    
C16   C64   S    
C32   C59   A    
C66   O34   A    
C77   O37   A    
C59   C76   S    
C80   O8    A    
C53   C58   A    
C52   C56   A    
Cr3   O33   S    
C39   C48   A    
C26   C30   A    
