data_mof_unit_34521.cif
_audit_creation_date              2012-12-10T18:06:51-0500
_audit_creation_method            fapswitch 2.2
_symmetry_space_group_name_H-M    P1
_symmetry_Int_Tables_number       1
_space_group_crystal_system       triclinic
_cell_length_a                    12.601249
_cell_length_b                    13.15066
_cell_length_c                    15.464477
_cell_angle_alpha                 83.353281
_cell_angle_beta                  98.6737
_cell_angle_gamma                 96.7879
_cell_volume                      2503.07729474

loop_
_atom_site_label
_atom_site_type_symbol
_atom_type_description
_atom_site_fract_x
_atom_site_fract_y
_atom_site_fract_z
_atom_type_partial_charge
C1    C     C_R   0.442079 0.308666 0.506868 0.855569
C2    C     C_R   0.686512 0.540598 0.928994 0.178251
C3    C     C_R   0.577335 0.552497 0.895003 0.091709
C4    C     C_R   0.436347 0.515473 0.335903 0.854174
C5    C     C_R   0.756632 0.514027 0.874770 -0.206718
C6    C     C_R   0.718048 0.495467 0.788041 -0.201486
C7    C     C_R   0.539603 0.528882 0.809548 -0.266902
C8    C     C_R   0.644761 0.942961 0.369874 -0.201144
C9    C     C_R   0.582817 0.801050 0.469584 -0.050662
C10   C     C_R   0.331078 0.158936 0.568653 -0.189112
C11   C     C_R   0.310733 0.053330 0.587312 -0.147928
C12   C     C_R   0.461313 0.574555 0.096872 0.092548
C13   C     C_R   0.369330 0.987640 0.553668 -0.188012
C14   C     C_R   0.446209 0.027202 0.496825 0.088164
C15   C     C_R   0.453881 0.132851 0.467558 0.092653
C16   C     C_R   0.556075 0.691582 0.489099 0.858822
C17   C     C_R   0.515704 0.965562 0.467943 0.082266
C18   C     C_R   0.578546 0.005610 0.400411 0.179730
C19   C     C_R   0.572591 0.106747 0.363290 -0.254129
C20   C     C_R   0.510747 0.169710 0.396311 -0.207833
C21   C     C_R   0.525598 0.865322 0.505567 -0.253546
C22   C     C_R   0.645387 0.839977 0.403357 -0.191933
C23   C     C_R   0.355945 0.599441 0.061783 0.178702
C24   C     C_R   0.405264 0.199207 0.511184 -0.117013
C25   C     C_R   0.138410 0.640810 0.623017 -0.311299
C26   C     C_R   0.757613 0.380960 0.395338 0.023916
C27   C     C_R   0.852935 0.355394 0.373205 -0.252731
C28   C     C_R   0.565436 0.490125 0.663745 0.863879
C29   C     C_R   0.950653 0.400259 0.413249 -0.194932
C30   C     C_R   0.952836 0.471474 0.475712 0.015853
C31   C     C_R   0.853396 0.494616 0.495962 0.232253
C32   C     C_R   0.049006 0.520668 0.518443 -0.013197
C33   C     C_R   0.044022 0.591546 0.580346 0.197872
C34   C     C_R   0.540208 0.574698 0.040756 0.068802
C35   C     C_R   0.944983 0.612730 0.598849 -0.293046
C36   C     C_R   0.850949 0.564970 0.556905 -0.217625
C37   C     C_R   0.150833 0.502680 0.502253 -0.055625
C38   C     C_R   0.236645 0.619516 0.603906 0.009202
C39   C     C_R   0.404546 0.540586 0.241686 -0.056370
C40   C     C_R   0.608696 0.501739 0.755629 -0.059247
C41   C     C_R   0.277718 0.599075 0.117526 -0.207155
C42   C     C_R   0.302132 0.570337 0.207355 -0.191904
C43   C     C_R   0.482426 0.542236 0.186241 -0.267616
C44   C     C_R   0.506626 0.579872 0.949277 0.070232
C45   C     C_R   0.402961 0.610139 0.915506 -0.232191
C46   C     C_R   0.329560 0.621738 0.971382 -0.238378
C47   C     C_R   0.650759 0.567625 0.072871 -0.234313
C48   C     C_R   0.723197 0.552986 0.017079 -0.240672
H1    H     H_    0.250318 0.643594 0.943481 0.142977
H2    H     H_    0.506565 0.247215 0.364751 0.154227
H3    H     H_    0.311096 0.656501 0.636011 0.123133
H4    H     H_    0.454889 0.528089 0.784776 0.162317
H5    H     H_    0.136149 0.694947 0.670340 0.138728
H6    H     H_    0.163375 0.450616 0.456844 0.125349
H7    H     H_    0.681176 0.347182 0.364142 0.129741
H8    H     H_    0.022328 0.377842 0.393726 0.136767
H9    H     H_    0.851129 0.301270 0.325181 0.146820
H10   H     H_    0.777379 0.584928 0.573282 0.215710
H11   H     H_    0.773382 0.476166 0.746714 0.164977
H12   H     H_    0.840750 0.506562 0.899702 0.135479
H13   H     H_    0.807037 0.546717 0.043831 0.144691
H14   H     H_    0.197450 0.619582 0.091479 0.134090
H15   H     H_    0.241076 0.570935 0.249593 0.159129
H16   H     H_    0.558783 0.514450 0.213328 0.160382
H17   H     H_    0.377478 0.627189 0.845990 0.141856
H18   H     H_    0.940082 0.666667 0.645750 0.156443
H19   H     H_    0.683628 0.575266 0.140705 0.149633
H20   H     H_    0.689724 0.789952 0.374542 0.159488
H21   H     H_    0.617010 0.137709 0.309657 0.141247
H22   H     H_    0.692236 0.972406 0.317811 0.137372
H23   H     H_    0.485717 0.833467 0.561167 0.140726
H24   H     H_    0.291338 0.209117 0.601349 0.160410
H25   H     H_    0.350815 0.906412 0.571427 0.130381
H26   H     H_    0.252650 0.022373 0.630970 0.141723
N1    N     N_R   0.239390 0.551900 0.544730 -0.100528
N2    N     N_R   0.759950 0.448600 0.455730 -0.130012
O1    O     O_R   0.374950 0.371210 0.521360 -0.613650
O2    O     O_R   0.542050 0.338030 0.492790 -0.605262
O3    O     O_R   0.368720 0.526070 0.390200 -0.613906
O4    O     O_R   0.535820 0.492890 0.361630 -0.630700
O5    O     O_R   0.457950 0.661970 0.507210 -0.609380
O6    O     O_R   0.625050 0.628790 0.478640 -0.636729
O7    O     O_R   0.464180 0.507110 0.638370 -0.618334
O8    O     O_R   0.631280 0.473930 0.609800 -0.630135
Zn1   Zn    Zn3+2 0.388420 0.522150 0.519080 0.937075
Zn2   Zn    Zn3+2 0.611580 0.477850 0.480920 0.925891

loop_
_geom_bond_atom_site_label_1
_geom_bond_atom_site_label_2
_ccdc_geom_bond_type
C28   O8    A    
C1    O1    A    
C41   C42   A    
C19   C20   A    
C26   H7    S    
C48   H13   S    
C45   C46   A    
C12   C23   A    
C26   C27   A    
C21   H23   S    
C9    C16   S    
C25   H5    S    
C7    H4    S    
C4    O4    A    
C12   C43   A    
C3    C7    A    
C30   C31   A    
C9    C22   A    
C27   C29   A    
C28   C40   S    
C18   C19   A    
O4    Zn2   S    
N1    Zn1   S    
C35   C36   A    
C26   N2    A    
C7    C40   A    
O2    Zn2   S    
C37   N1    A    
O1    Zn1   S    
C23   C46   A    
C13   C14   A    
C28   O7    A    
C1    O2    A    
C14   C17   A    
C41   H14   S    
C47   H19   S    
C43   H16   S    
C39   C42   A    
C38   N1    A    
C15   C20   A    
C3    C44   A    
C34   C44   A    
C4    O3    A    
C27   H9    S    
C39   C43   A    
C38   H3    S    
C35   H18   S    
C2    C48   A    
O6    Zn2   S    
C17   C21   A    
C29   C30   A    
C25   C38   A    
C8    C22   A    
C47   C48   A    
C46   H1    S    
C4    C39   S    
C16   O6    A    
C17   C18   A    
C32   C37   A    
C22   H20   S    
C37   H6    S    
C15   C24   A    
O7    Zn1   S    
C13   H25   S    
C45   H17   S    
C6    C40   A    
C19   H21   S    
C2    C5    A    
C12   C34   A    
N2    Zn2   S    
O3    Zn1   S    
C44   C45   A    
C5    H12   S    
C31   C36   A    
C8    H22   S    
C6    H11   S    
O8    Zn2   S    
C11   H26   S    
C29   H8    S    
C36   H10   S    
C23   C41   A    
C10   C24   A    
C32   C33   A    
C2    C3    A    
C30   C32   A    
C11   C13   A    
C9    C21   A    
C31   N2    A    
C5    C6    A    
C16   O5    A    
C33   C35   A    
C8    C18   A    
C10   C11   A    
C1    C24   S    
C20   H2    S    
C14   C15   A    
C34   C47   A    
C42   H15   S    
O5    Zn1   S    
C25   C33   A    
C10   H24   S    
