data_mof_unit_41616.cif
_audit_creation_date              2012-12-11T14:39:29-0500
_audit_creation_method            fapswitch 2.2
_symmetry_space_group_name_H-M    P1
_symmetry_Int_Tables_number       1
_space_group_crystal_system       triclinic
_cell_length_a                    8.460195
_cell_length_b                    15.087651
_cell_length_c                    17.539618
_cell_angle_alpha                 98.9849
_cell_angle_beta                  98.83667
_cell_angle_gamma                 98.820919
_cell_volume                      2148.74294982

loop_
_atom_site_label
_atom_site_type_symbol
_atom_type_description
_atom_site_fract_x
_atom_site_fract_y
_atom_site_fract_z
_atom_type_partial_charge
Ba1   Ba    Ba6+2 0.844730 0.540500 0.462170 1.696884
Ba2   Ba    Ba6+2 0.345110 0.459580 0.537840 1.719902
C1    C     C_3   0.540078 0.848950 0.256221 -0.182994
C2    C     C_3   0.362089 0.523476 0.220083 -0.026058
C3    C     C_2   0.285241 0.542713 0.143671 -0.144999
C4    C     C_3   0.037672 0.724483 0.252182 0.335084
C5    C     C_2   0.128457 0.505734 0.115147 0.020792
C6    C     C_2   0.029364 0.461861 0.170047 0.003735
C7    C     C_1   0.093970 0.472259 0.247861 0.096350
C8    C     C_R   0.897717 0.458746 0.858650 -0.118348
C9    C     C_R   0.829183 0.452858 0.780356 0.024679
C10   C     C_R   0.087397 0.532854 0.754846 0.011488
C11   C     C_R   0.154114 0.542645 0.836798 0.008867
C12   C     C_3   0.482936 0.746038 0.246627 0.320665
C13   C     C_R   0.060648 0.500057 0.887538 0.019970
C14   C     C_2   0.059536 0.511573 0.031923 -0.079814
C15   C     C_2   0.134289 0.490665 0.969134 0.049998
C16   C     C_3   0.003708 0.752164 0.172422 -0.354263
C17   C     C_R   0.925570 0.486400 0.728644 -0.322410
C18   C     C_R   0.763173 0.229503 0.501754 -0.199270
C19   C     C_R   0.848089 0.180983 0.549314 -0.005642
C20   C     C_R   0.771750 0.094947 0.557682 -0.192714
C21   C     C_R   0.623597 0.049658 0.507201 0.045119
C22   C     C_R   0.535537 0.104839 0.464433 -0.104571
C23   C     C_3   0.395589 0.327585 0.292501 0.219614
C24   C     C_R   0.601602 0.196394 0.467393 -0.005623
C25   C     C_R   0.400204 0.909787 0.461367 -0.111034
C26   C     C_R   0.345299 0.815718 0.438978 0.003369
C27   C     C_R   0.602840 0.788409 0.503223 0.091294
C28   C     C_3   0.224405 0.763257 0.665157 0.285016
C29   C     C_R   0.666500 0.883664 0.517084 -0.137286
C30   C     C_R   0.564097 0.946829 0.495981 -0.029814
C31   C     C_R   0.451580 0.755617 0.454507 -0.226254
C32   C     C_3   0.295617 0.861109 0.708398 -0.413527
C33   C     C_3   0.904748 0.233854 0.323489 0.260195
C34   C     C_3   0.390412 0.308866 0.203060 -0.232105
C35   C     C_3   0.924849 0.133302 0.295129 -0.137235
C36   C     C_3   0.802432 0.722284 0.720241 0.314595
C37   C     C_3   0.855646 0.795134 0.797461 -0.071862
C38   C     C_3   0.726791 0.235729 0.303836 -0.298806
C39   C     C_2   0.864633 0.101533 0.207975 0.554699
C40   C     C_3   0.096578 0.115416 0.316036 -0.411819
C41   C     C_2   0.697776 0.640078 0.735497 0.398413
C42   C     C_3   0.697479 0.883106 0.316193 -0.290294
C43   C     C_3   0.915955 0.890809 0.783033 -0.337076
C44   C     C_2   0.979159 0.766995 0.856225 0.448847
C45   C     C_3   0.067509 0.197384 0.732103 0.379587
C46   C     C_2   0.315076 0.212800 0.164189 0.585405
C47   C     C_3   0.124330 0.291494 0.783724 -0.325931
C48   C     C_2   0.505066 0.178930 0.664410 0.581633
C49   C     C_3   0.674318 0.076827 0.779831 -0.443967
C50   C     C_3   0.279176 0.442664 0.976904 -0.388827
C51   C     C_3   0.884880 0.387396 0.132698 -0.358081
C52   C     C_3   0.317304 0.601972 0.872845 -0.246007
C53   C     C_2   0.854998 0.473606 0.645831 0.567812
C54   C     C_2   0.843077 0.914294 0.543130 0.551964
C55   C     C_2   0.303620 0.744984 0.597266 0.512697
C56   C     C_3   0.094043 0.123761 0.780828 -0.326949
C57   C     C_3   0.608689 0.228873 0.741572 0.354798
C58   C     C_3   0.629111 0.169808 0.805767 -0.151054
C59   C     C_2   0.242076 0.521348 0.275841 -0.284463
H1    H     H_    0.439900 0.732419 0.300997 -0.047792
H2    H     H_    0.442799 0.883977 0.275746 0.071089
H3    H     H_    0.279559 0.344654 0.305040 0.043618
H4    H     H_    0.492962 0.387701 0.318389 0.048112
H5    H     H_    0.317427 0.353314 0.174539 -0.016055
H6    H     H_    0.515594 0.325374 0.191029 0.083095
H7    H     H_    0.558577 0.866715 0.198670 0.155078
H8    H     H_    0.988078 0.691467 0.125288 0.074702
H9    H     H_    0.935962 0.188010 0.709402 -0.036315
H10   H     H_    0.225227 0.129572 0.804715 0.131010
H11   H     H_    0.026780 0.129705 0.830433 0.068411
H12   H     H_    0.430767 0.872425 0.719723 0.110840
H13   H     H_    0.050103 0.055669 0.742933 0.132828
H14   H     H_    0.731680 0.254361 0.730581 -0.161872
H15   H     H_    0.515620 0.158681 0.830254 0.125931
H16   H     H_    0.933695 0.672698 0.257141 0.119328
H17   H     H_    0.726089 0.209384 0.854612 0.087187
H18   H     H_    0.824753 0.428134 0.896652 0.061518
H19   H     H_    0.944006 0.534792 0.022364 0.072343
H20   H     H_    0.358593 0.581076 0.110098 0.082628
H21   H     H_    0.268180 0.567847 0.331689 0.061653
H22   H     H_    0.311344 0.952997 0.451983 0.090668
H23   H     H_    0.254156 0.911326 0.673362 0.137479
H24   H     H_    0.148999 0.693784 0.255645 -0.074224
H25   H     H_    0.832535 0.064644 0.602461 0.075090
H26   H     H_    0.418146 0.078731 0.427679 0.061454
H27   H     H_    0.406942 0.682931 0.439446 0.095170
H28   H     H_    0.822892 0.293555 0.490957 0.105059
H29   H     H_    0.890779 0.781524 0.166484 0.151083
H30   H     H_    0.107029 0.803698 0.165750 0.115258
H31   H     H_    0.093334 0.757486 0.646006 0.078351
H32   H     H_    0.689373 0.234323 0.240146 0.143858
H33   H     H_    0.653652 0.176036 0.319575 0.083102
H34   H     H_    0.260791 0.873817 0.766835 0.178112
H35   H     H_    0.707935 0.299803 0.336848 0.100448
H36   H     H_    0.915766 0.138210 0.166416 0.005580
H37   H     H_    0.174980 0.148354 0.280298 0.159870
H38   H     H_    0.144511 0.139641 0.379198 0.171532
H39   H     H_    0.096487 0.040872 0.303186 0.119015
H40   H     H_    0.644963 0.585105 0.687167 0.035323
H41   H     H_    0.701901 0.954927 0.343802 0.091069
H42   H     H_    0.803789 0.879707 0.286642 0.178416
H43   H     H_    0.705870 0.841584 0.363018 0.115552
H44   H     H_    0.007898 0.889208 0.745179 0.168445
H45   H     H_    0.950999 0.253472 0.387624 0.032880
H46   H     H_    0.813202 0.917535 0.752901 0.152614
H47   H     H_    0.968147 0.938456 0.839373 0.092178
H48   H     H_    0.943361 0.745092 0.908135 0.031549
H49   H     H_    0.185324 0.190159 0.157955 -0.045785
H50   H     H_    0.054163 0.298893 0.832191 0.055417
H51   H     H_    0.255430 0.300993 0.808776 0.152854
H52   H     H_    0.105195 0.345167 0.748788 0.104575
H53   H     H_    0.496388 0.213516 0.614698 0.001963
H54   H     H_    0.742021 0.055328 0.831119 0.122737
H55   H     H_    0.562992 0.024683 0.757024 0.176480
H56   H     H_    0.850818 0.089326 0.326823 0.071893
H57   H     H_    0.749116 0.078298 0.733510 0.122043
H58   H     H_    0.300863 0.412851 0.918568 0.121143
H59   H     H_    0.392279 0.490547 0.006356 0.111738
H60   H     H_    0.257134 0.385951 0.009644 0.121079
H61   H     H_    0.852889 0.384154 0.068501 0.098911
H62   H     H_    0.913492 0.320027 0.141698 0.110505
H63   H     H_    0.776082 0.398695 0.157862 0.153288
H64   H     H_    0.304546 0.650090 0.925374 0.107696
H65   H     H_    0.407480 0.559958 0.891002 0.131832
H66   H     H_    0.367727 0.643836 0.833101 0.193940
H67   H     H_    0.908839 0.700070 0.699527 -0.103087
H68   H     H_    0.815697 0.529122 0.620419 -0.032745
H69   H     H_    0.910964 0.953941 0.508251 0.014215
H70   H     H_    0.420667 0.784792 0.598992 -0.105487
H71   H     H_    0.747057 0.801828 0.825210 0.084229
H72   H     H_    0.379093 0.725438 0.196749 -0.010268
O1    O     O_2   0.823140 0.439340 0.307240 -0.492382
O2    O     O_2   0.156713 0.183480 0.526622 -0.474148
O3    O     O_3   0.157342 0.186898 0.671374 -0.545562
O4    O     O_3   0.097070 0.445850 0.405300 -0.460038
O5    O     O_3   0.592380 0.611270 0.541370 -0.502860
O6    O     O_2   0.323920 0.276750 0.459260 -0.443539
O7    O     O_3   0.421874 0.249786 0.323687 -0.658188
O8    O     O_2   0.503271 0.467322 0.779089 -0.442147
O9    O     O_3   0.533786 0.300369 0.771440 -0.630916
O10   O     O_3   0.627590 0.606740 0.357340 -0.473786
O11   O     O_2   0.696610 0.541420 0.221611 -0.496952
O12   O     O_3   0.711784 0.760854 0.664244 -0.641944
O13   O     O_3   0.986272 0.294792 0.283695 -0.664391
O14   O     O_3   0.608903 0.699050 0.230510 -0.591118
O15   O     O_2   0.865800 0.723280 0.540790 -0.448931
O16   O     O_3   0.060870 0.655550 0.397490 -0.440507
O17   O     O_2   0.028787 0.819551 0.457521 -0.478626
O18   O     O_2   0.756455 0.035077 0.183634 -0.576330
O19   O     O_2   0.671426 0.633722 0.801168 -0.620110
O20   O     O_2   0.118300 0.766891 0.845814 -0.590327
O21   O     O_2   0.398213 0.160460 0.137740 -0.564737
O22   O     O_2   0.428388 0.101617 0.656455 -0.593862
O23   O     O_3   0.056088 0.801470 0.311442 -0.620336
O24   O     O_2   0.845725 0.400425 0.604045 -0.603340
O25   O     O_2   0.913048 0.901375 0.605368 -0.603559
O26   O     O_2   0.241439 0.683237 0.542739 -0.571203
O27   O     O_2   0.366580 0.560690 0.692810 -0.440045
O28   O     O_3   0.092650 0.554230 0.594710 -0.457281
O29   O     O_3   0.562120 0.393340 0.642670 -0.471171
O30   O     O_3   0.259903 0.704941 0.717075 -0.612738
O31   O     O_3   0.597340 0.388800 0.458640 -0.462259
O32   O     O_3   0.128850 0.344520 0.602520 -0.434644
P1    P     P_3+3 0.993190 0.413330 0.319190 0.974550
P2    P     P_3+3 0.695930 0.711340 0.564320 1.018815
P3    P     P_3+3 0.125997 0.771989 0.401547 0.978235
P4    P     P_3+3 0.196530 0.586750 0.680820 1.040161
P5    P     P_3+3 0.066662 0.225351 0.589131 1.009199
P6    P     P_3+3 0.570411 0.591284 0.256575 0.941955
P7    P     P_3+3 0.485666 0.276271 0.425755 0.942493
P8    P     P_3+3 0.610134 0.403190 0.744515 0.976757

loop_
_geom_bond_atom_site_label_1
_geom_bond_atom_site_label_2
_ccdc_geom_bond_type
C46   H49   S    
C2    P6    S    
C45   O3    S    
C47   H52   S    
C1    H7    S    
C38   H32   S    
Ba2   O29   S    
C42   H43   S    
C34   H6    S    
C5    C6    S    
C45   C47   S    
O29   P8    S    
C52   H65   S    
O11   P6    D    
C58   H17   S    
Ba2   P4    S    
C4    H24   S    
C7    C59   D    
C48   C57   S    
C7    P1    S    
C33   C35   S    
C31   H27   S    
C22   C24   A    
C8    C13   A    
C40   H37   S    
C36   C37   S    
C34   H5    S    
C56   H10   S    
C37   H71   S    
O23   P3    S    
C19   P5    S    
C12   H1    S    
C28   C55   S    
C27   C31   A    
C49   H57   S    
Ba2   O28   S    
Ba1   Ba2   S    
O2    P5    D    
C35   C40   S    
C18   H28   S    
C54   O25   D    
Ba1   O31   S    
O14   P6    S    
C6    C7    D    
C53   H68   S    
O27   P4    D    
O1    P1    D    
Ba1   O16   S    
C29   C54   S    
C43   H47   S    
C47   H50   S    
O28   P4    S    
C16   H8    S    
C55   O26   D    
C24   P7    S    
C57   C58   S    
O7    P7    S    
C19   C20   A    
O8    P8    D    
O16   P3    S    
C32   H23   S    
C28   O30   S    
C38   H35   S    
C15   C50   S    
O4    P1    S    
C42   H42   S    
C43   H44   S    
O9    P8    S    
C4    C16   S    
C52   H64   S    
C1    C42   S    
C9    P8    S    
C28   C32   S    
C16   H29   S    
O13   P1    S    
C23   O7    S    
C23   H4    S    
C32   H34   S    
C57   O9    S    
C28   H31   S    
C51   H62   S    
Ba2   O31   S    
C3    C5    D    
C42   H41   S    
C41   O19   D    
C14   C15   D    
C4    H16   S    
C23   C34   S    
C45   H9    S    
C2    C59   S    
C58   H15   S    
C49   H54   S    
O5    P2    S    
C48   H53   S    
C23   H3    S    
Ba2   O5    S    
C41   H40   S    
C36   O12   S    
Ba1   O10   S    
C40   H39   S    
C3    H20   S    
C50   H60   S    
C29   C30   A    
C48   O22   D    
C21   C22   A    
C9    C17   A    
O6    P7    D    
C10   C11   A    
Ba2   O32   S    
C1    C12   S    
C37   C44   S    
C50   H59   S    
C5    C14   S    
O3    P5    S    
C26   C31   A    
C47   H51   S    
C11   C13   A    
C39   H36   S    
O31   P7    S    
C51   H61   S    
Ba2   O6    S    
Ba1   O1    S    
C57   H14   S    
Ba1   O4    S    
C56   H13   S    
C11   C52   S    
O12   P2    S    
C17   C53   S    
O32   P5    S    
C13   C15   S    
C44   O20   D    
C46   O21   D    
C25   C30   A    
Ba2   O4    S    
C55   H70   S    
C38   H33   S    
C2    C3    S    
C51   H63   S    
C6    C51   S    
C36   H67   S    
C8    H18   S    
C10   P4    S    
C39   O18   D    
C12   H72   S    
C1    H2    S    
C52   H66   S    
C49   H55   S    
C37   C43   S    
C59   H21   S    
C21   C30   S    
C27   P2    S    
C25   H22   S    
C33   C38   S    
O10   P6    S    
C36   C41   S    
C27   C29   A    
C33   H45   S    
C40   H38   S    
C45   C56   S    
C56   H11   S    
C18   C24   A    
Ba1   P1    S    
O17   P3    D    
C12   O14   S    
C10   C17   A    
C34   C46   S    
C20   H25   S    
C35   C39   S    
O30   P4    S    
C22   H26   S    
C54   H69   S    
C8    C9    A    
C26   P3    S    
C32   H12   S    
Ba1   O28   S    
C50   H58   S    
C16   H30   S    
C53   O24   D    
C35   H56   S    
C18   C19   A    
Ba2   O27   S    
C44   H48   S    
C25   C26   A    
O15   P2    D    
Ba1   P2    S    
C20   C21   A    
Ba1   O15   S    
C49   C58   S    
C14   H19   S    
C33   O13   S    
C4    O23   S    
Ba1   O5    S    
C43   H46   S    
