data_mof_unit_17695.cif
_audit_creation_date              2012-12-11T20:00:42-0500
_audit_creation_method            fapswitch 2.2
_symmetry_space_group_name_H-M    P1
_symmetry_Int_Tables_number       1
_space_group_crystal_system       triclinic
_cell_length_a                    8.274751
_cell_length_b                    16.298755
_cell_length_c                    27.062353
_cell_angle_alpha                 72.610611
_cell_angle_beta                  96.379613
_cell_angle_gamma                 96.121467
_cell_volume                      3451.07619524

loop_
_atom_site_label
_atom_site_type_symbol
_atom_type_description
_atom_site_fract_x
_atom_site_fract_y
_atom_site_fract_z
_atom_type_partial_charge
Ba1   Ba    Ba6+2 0.337820 0.939830 0.518500 1.645106
Ba2   Ba    Ba6+2 0.851970 0.060110 0.481480 1.650607
C1    C     C_3   0.040623 0.529414 0.602826 -0.194240
C2    C     C_R   0.539929 0.393547 0.198343 0.577759
C3    C     C_2   0.302585 0.291176 0.283597 -0.101654
C4    C     C_3   0.512808 0.640119 0.627958 0.323004
C5    C     C_3   0.289421 0.251980 0.341164 -0.097716
C6    C     C_1   0.477349 0.144276 0.338769 0.018825
C7    C     C_2   0.508722 0.189691 0.289328 -0.028281
C8    C     C_2   0.411888 0.265127 0.259378 0.263086
C9    C     C_R   0.521626 0.412061 0.104847 -0.078169
C10   C     C_R   0.428316 0.332104 0.113681 -0.035381
C11   C     C_R   0.374640 0.301101 0.071197 -0.062781
C12   C     C_3   0.028942 0.623049 0.601451 0.347295
C13   C     C_R   0.576310 0.443202 0.147548 -0.027873
C14   C     C_2   0.365895 0.166974 0.363002 -0.243272
C15   C     C_2   0.833612 0.837988 0.638312 -0.349359
C16   C     C_3   0.476087 0.563764 0.674830 -0.300226
C17   C     C_R   0.558774 0.472586 0.960232 0.018755
C18   C     C_R   0.682398 0.592831 0.992864 0.019519
C19   C     C_R   0.640140 0.556576 0.951059 0.051440
C20   C     C_R   0.529555 0.437060 0.918043 -0.102935
C21   C     C_R   0.573562 0.483146 0.868577 -0.063318
C22   C     C_R   0.647395 0.567284 0.858491 -0.027039
C23   C     C_3   0.080422 0.013220 0.646555 0.288204
C24   C     C_R   0.680327 0.604537 0.899537 -0.080794
C25   C     C_R   0.755167 0.689206 0.889132 -0.054672
C26   C     C_R   0.791283 0.736185 0.837550 0.605722
C27   C     C_R   0.689813 0.614378 0.808068 0.562704
C28   C     C_3   0.630846 0.945196 0.322505 0.736567
C29   C     C_2   0.896552 0.718927 0.720044 -0.128959
C30   C     C_3   0.905117 0.752924 0.661979 -0.039407
C31   C     C_1   0.720394 0.860811 0.661346 0.027071
C32   C     C_2   0.690374 0.823004 0.711318 0.348776
C33   C     C_2   0.786956 0.747229 0.743602 0.167504
C34   C     C_3   0.079519 0.974417 0.705104 -0.343474
C35   C     C_R   0.511508 0.426422 0.011048 0.019846
C36   C     C_R   0.560778 0.460708 0.053337 0.049996
C37   C     C_R   0.649218 0.542934 0.044684 0.019181
C38   C     C_R   0.415241 0.346845 0.021190 -0.100260
C39   C     C_R   0.667744 0.523002 0.138694 -0.066383
C40   C     C_3   0.523092 0.970446 0.271083 -0.372202
C41   C     C_R   0.756442 0.678228 0.981057 -0.098110
C42   C     C_R   0.791240 0.725132 0.930486 -0.062487
C43   C     C_R   0.702732 0.571876 0.088601 -0.102108
C44   C     C_2   0.405063 0.243539 0.515404 -0.283132
C45   C     C_3   0.582804 0.381171 0.376067 0.377787
C46   C     C_R   0.762085 0.771125 0.471050 -0.220708
C47   C     C_2   0.261772 0.308678 0.567400 -0.131157
C48   C     C_2   0.272292 0.243110 0.547752 0.052192
C49   C     C_2   0.514349 0.311267 0.502655 -0.004833
C50   C     C_3   0.473794 0.395212 0.509424 -0.041173
C51   C     C_3   0.389710 0.383070 0.559062 0.021485
C52   C     C_3   0.599281 0.115640 0.609852 0.316380
C53   C     C_2   0.609700 0.464006 0.503828 -0.076106
C54   C     C_2   0.571271 0.545711 0.488123 -0.059429
C55   C     C_R   0.843907 0.614599 0.462494 -0.017697
C56   C     C_3   0.566428 0.470338 0.337754 -0.326676
C57   C     C_R   0.694115 0.619240 0.480739 -0.037516
C58   C     C_R   0.956304 0.686308 0.451620 -0.148099
C59   C     C_R   0.917114 0.764483 0.456880 0.075871
C60   C     C_R   0.656430 0.697132 0.487326 0.038960
C61   C     C_3   0.645929 0.188816 0.634135 -0.372330
C62   C     C_3   0.120904 0.992858 0.358984 0.283279
C63   C     C_3   0.116381 0.031419 0.300197 -0.377615
C64   C     C_3   0.988843 0.466220 0.653711 -0.389347
C65   C     C_3   0.144328 0.401022 0.411993 -0.300071
C66   C     C_3   0.652212 0.177951 0.262867 -0.332617
C67   C     C_3   0.101618 0.406200 0.354554 0.385069
C68   C     C_3   0.475535 0.813135 0.761230 0.270093
C69   C     C_3   0.702425 0.857751 0.463755 -0.177270
C70   C     C_3   0.767143 0.845040 0.298757 0.134998
C71   C     C_3   0.037666 0.493722 0.325419 -0.337343
C72   C     C_R   0.390110 0.284891 0.164793 0.583792
H1    H     H_    0.059793 0.664329 0.562374 0.040324
H2    H     H_    0.249010 0.991935 0.375398 0.031598
H3    H     H_    0.054865 0.033783 0.374868 0.088798
H4    H     H_    0.167182 0.519675 0.597056 0.134536
H5    H     H_    0.171468 0.988467 0.282830 0.120337
H6    H     H_    0.184314 0.095660 0.289956 0.091056
H7    H     H_    0.988990 0.039801 0.283145 0.107297
H8    H     H_    0.900705 0.631313 0.606722 -0.047498
H9    H     H_    0.959495 0.515679 0.570212 0.068123
H10   H     H_    0.953586 0.010257 0.628750 0.008897
H11   H     H_    0.155758 0.974563 0.631866 0.073803
H12   H     H_    0.460431 0.028868 0.267529 0.074746
H13   H     H_    0.993778 0.006973 0.720411 0.147804
H14   H     H_    0.040721 0.904585 0.714688 0.069370
H15   H     H_    0.203870 0.982400 0.724077 0.127581
H16   H     H_    0.443437 0.587335 0.706558 0.137592
H17   H     H_    0.602283 0.335167 0.354566 0.078805
H18   H     H_    0.466287 0.361613 0.394827 -0.109451
H19   H     H_    0.675703 0.491300 0.315644 0.148937
H20   H     H_    0.459261 0.469150 0.309444 0.098068
H21   H     H_    0.550897 0.517544 0.358843 0.094639
H22   H     H_    0.214147 0.403881 0.336670 -0.037627
H23   H     H_    0.597979 0.983921 0.237548 0.053886
H24   H     H_    0.137916 0.545530 0.323008 0.063252
H25   H     H_    0.939739 0.507733 0.345851 0.126040
H26   H     H_    0.428164 0.689912 0.625197 0.115256
H27   H     H_    0.989443 0.494559 0.285301 0.125058
H28   H     H_    0.300813 0.240556 0.076455 0.119451
H29   H     H_    0.964272 0.663939 0.741593 0.108466
H30   H     H_    0.548235 0.452308 0.837893 0.117410
H31   H     H_    0.476111 0.372433 0.922118 0.069423
H32   H     H_    0.365785 0.318564 0.990974 0.068877
H33   H     H_    0.236389 0.347186 0.262968 0.066811
H34   H     H_    0.428073 0.917538 0.269476 0.125118
H35   H     H_    0.712913 0.548433 0.170758 0.110917
H36   H     H_    0.786571 0.711749 0.010039 0.066954
H37   H     H_    0.639670 0.667117 0.633541 -0.027021
H38   H     H_    0.847338 0.790240 0.923931 0.120159
H39   H     H_    0.775585 0.631659 0.085812 0.065907
H40   H     H_    0.340130 0.130400 0.402324 0.068819
H41   H     H_    0.863818 0.874739 0.599434 0.082728
H42   H     H_    0.169023 0.304998 0.593537 0.072618
H43   H     H_    0.070476 0.681521 0.437157 0.106883
H44   H     H_    0.420494 0.185058 0.505675 0.058888
H45   H     H_    0.467012 0.112290 0.599029 -0.014319
H46   H     H_    0.735342 0.448051 0.514693 0.092985
H47   H     H_    0.371007 0.521604 0.665076 0.124343
H48   H     H_    0.443363 0.558929 0.480593 0.094657
H49   H     H_    0.583657 0.525006 0.688002 0.128363
H50   H     H_    0.745859 0.986844 0.320361 -0.031601
H51   H     H_    0.069804 0.476913 0.687159 0.153977
H52   H     H_    0.860827 0.474177 0.659059 0.131192
H53   H     H_    0.997053 0.399164 0.652739 0.115449
H54   H     H_    0.193368 0.338482 0.433556 0.078320
H55   H     H_    0.239061 0.453100 0.415550 0.046630
H56   H     H_    0.667841 0.128375 0.575010 0.064022
H57   H     H_    0.035376 0.408184 0.430277 0.164731
H58   H     H_    0.721575 0.123130 0.284477 0.117558
H59   H     H_    0.736371 0.237249 0.255861 0.158517
H60   H     H_    0.609320 0.167569 0.224747 0.107057
H61   H     H_    0.498029 0.804357 0.803574 0.036131
H62   H     H_    0.454018 0.748487 0.754457 0.015066
H63   H     H_    0.361478 0.846317 0.748128 0.070476
H64   H     H_    0.568260 0.856468 0.455490 0.161515
H65   H     H_    0.742847 0.880862 0.498073 0.115561
H66   H     H_    0.749671 0.903810 0.428941 0.120132
H67   H     H_    0.572362 0.180409 0.667469 0.126510
H68   H     H_    0.859872 0.899387 0.284970 0.034867
H69   H     H_    0.689304 0.833287 0.264996 0.036605
H70   H     H_    0.833333 0.786498 0.317900 0.078131
H71   H     H_    0.624204 0.251816 0.605320 0.057236
H72   H     H_    0.777443 0.189167 0.648004 0.127318
N1    N     N_R   0.446936 0.315472 0.206545 -0.426345
N2    N     N_R   0.754600 0.699288 0.797266 -0.425754
O1    O     O_2   0.431310 0.922990 0.623550 -0.453911
O2    O     O_2   0.851324 0.306242 0.503264 -0.486712
O3    O     O_3   0.717861 0.384631 0.411954 -0.588781
O4    O     O_3   0.663280 0.983100 0.563360 -0.514464
O5    O     O_3   0.016420 0.932050 0.462720 -0.508896
O6    O     O_2   0.959730 0.164640 0.549160 -0.454815
O7    O     O_3   0.145479 0.099069 0.635751 -0.640287
O8    O     O_2   0.963803 0.190696 0.328901 -0.494140
O9    O     O_3   0.982514 0.340000 0.348600 -0.547872
O10   O     O_2   0.306801 0.216425 0.172132 -0.599441
O11   O     O_2   0.669411 0.579328 0.773622 -0.632149
O12   O     O_3   0.047785 0.908575 0.370416 -0.627729
O13   O     O_2   0.592386 0.419560 0.235379 -0.620989
O14   O     O_2   0.855532 0.809585 0.828647 -0.571119
O15   O     O_3   0.126250 0.812630 0.574830 -0.480159
O16   O     O_2   0.254499 0.778537 0.672151 -0.514040
O17   O     O_3   0.636594 0.038581 0.646903 -0.596903
O18   O     O_3   0.138786 0.644638 0.640209 -0.609920
O19   O     O_2   0.229950 0.835370 0.450810 -0.450227
O20   O     O_3   0.517580 0.797570 0.545130 -0.520435
O21   O     O_2   0.321920 0.692091 0.500397 -0.493336
O22   O     O_3   0.604601 0.866905 0.735394 -0.617016
O23   O     O_3   0.493734 0.611707 0.583514 -0.615983
O24   O     O_3   0.668716 0.858066 0.334829 -0.642497
O25   O     O_2   0.758370 0.077020 0.376420 -0.482510
O26   O     O_3   0.526390 0.016840 0.436620 -0.484211
O27   O     O_3   0.063420 0.187310 0.425160 -0.452435
O28   O     O_3   0.540368 0.950467 0.362371 -0.639821
O29   O     O_3   0.173250 0.067890 0.537260 -0.486113
O30   O     O_3   0.672100 0.202370 0.454860 -0.470511
P1    P     P_3+3 0.610630 0.953360 0.619150 1.029029
P2    P     P_3+3 0.057260 0.861390 0.437850 0.998575
P3    P     P_3+3 0.493773 0.700773 0.527961 0.930842
P4    P     P_3+3 0.579040 0.046590 0.380840 0.938414
P5    P     P_3+3 0.690055 0.300947 0.469149 0.970011
P6    P     P_3+3 0.108145 0.749895 0.638776 0.922901
P7    P     P_3+3 0.140883 0.144287 0.568328 0.952237
P8    P     P_3+3 0.075711 0.243321 0.359716 0.975803

loop_
_geom_bond_atom_site_label_1
_geom_bond_atom_site_label_2
_ccdc_geom_bond_type
C34   H15   S    
C70   H69   S    
C53   C54   D    
C63   H5    S    
C10   C72   A    
C31   P1    S    
C62   H3    S    
C5    P8    S    
C19   C24   A    
C67   H22   S    
O26   P4    S    
C27   N2    Am   
C26   O14   D    
C27   O11   D    
C34   H14   S    
C70   H68   S    
C24   C25   A    
C70   O24   S    
C66   H59   S    
C17   C19   A    
C56   H19   S    
C22   C24   A    
Ba1   Ba2   S    
C35   C38   A    
C49   P5    S    
Ba2   O25   S    
C36   C37   A    
Ba1   P2    S    
C55   C57   A    
C23   O7    S    
C52   C61   S    
Ba1   O19   S    
O1    P1    D    
O29   P7    S    
C64   H53   S    
C44   H44   S    
Ba1   O4    S    
C71   H25   S    
C32   C33   S    
Ba2   P4    S    
C66   H58   S    
C22   C27   A    
O12   P2    S    
C11   C38   A    
C17   C35   A    
C9    C13   A    
C4    O23   S    
C4    H37   S    
C29   C30   S    
C6    C7    D    
C23   H10   S    
C67   O9    S    
C21   C22   A    
C67   C71   S    
C40   H12   S    
Ba2   O29   S    
C12   O18   S    
C7    C8    S    
C61   H72   S    
O30   P5    S    
C32   O22   S    
C50   C53   S    
C8    N1    S    
C37   C43   A    
C71   H27   S    
O19   P2    D    
O5    P2    S    
Ba2   O6    S    
C63   H6    S    
C39   H35   S    
C52   H45   S    
C68   H62   S    
C65   H55   S    
C15   C31   D    
C45   H18   S    
C52   H56   S    
C25   C42   A    
C28   O28   S    
O23   P3    S    
C69   H64   S    
C53   H46   S    
C34   H13   S    
Ba2   O4    S    
C71   H24   S    
C4    C16   S    
O6    P7    D    
Ba1   O26   S    
C26   N2    Am   
C72   O10   D    
C49   C50   S    
C16   H16   S    
C72   N1    Am   
C17   C20   A    
O18   P6    S    
O9    P8    S    
C13   C39   A    
O7    P7    S    
C40   H23   S    
C1    H4    S    
C3    C5    S    
C18   C37   A    
C55   C58   A    
C69   H65   S    
C16   H47   S    
Ba1   O20   S    
C2    N1    Am   
C44   C49   D    
C64   H52   S    
C14   H40   S    
C58   C59   A    
C65   C67   S    
C54   H48   S    
C29   H29   S    
C9    C36   A    
O28   P4    S    
C56   H21   S    
C35   C36   A    
O16   P6    D    
Ba2   O27   S    
C46   C69   S    
C63   H7    S    
C21   H30   S    
O21   P3    D    
C62   O12   S    
C23   H11   S    
C31   C32   D    
C62   H2    S    
C58   H43   S    
C10   C11   A    
Ba1   O5    S    
C28   O24   S    
C69   H66   S    
C1    C12   S    
C59   P2    S    
C42   H38   S    
C5    C14   S    
C41   H36   S    
C28   H50   S    
O25   P4    D    
O20   P3    S    
Ba2   O5    S    
C41   C42   A    
C1    H9    S    
C68   H61   S    
O17   P1    S    
C29   C33   D    
C1    C64   S    
C12   H8    S    
C52   O17   S    
C46   C60   A    
C18   C41   A    
C50   C51   S    
C15   H41   S    
C38   H32   S    
C3    H33   S    
C6    P4    S    
C70   H70   S    
C44   C48   S    
C57   C60   A    
O15   P6    S    
C2    O13   D    
C45   H17   S    
C30   P6    S    
C65   H57   S    
C45   O3    S    
Ba1   O1    S    
C61   H67   S    
C9    C10   A    
C54   C57   S    
O3    P5    S    
O2    P5    D    
O8    P8    D    
C20   H31   S    
C16   H49   S    
C64   H51   S    
C62   C63   S    
O4    P1    S    
C66   H60   S    
C56   H20   S    
C7    C66   S    
C3    C8    D    
C65   H54   S    
Ba2   O26   S    
O27   P8    S    
Ba1   P1    S    
C46   C59   A    
C40   H34   S    
C2    C13   A    
C47   C51   S    
C33   N2    S    
C68   O22   S    
C23   C34   S    
C43   H39   S    
C47   H42   S    
C18   C19   A    
Ba1   O15   S    
C68   H63   S    
C6    C14   D    
C47   C48   D    
C25   C26   A    
C15   C30   S    
C39   C43   A    
C20   C21   A    
C28   C40   S    
Ba2   O30   S    
C11   H28   S    
C48   P7    S    
Ba1   O29   S    
C61   H71   S    
C12   H1    S    
C4    H26   S    
C45   C56   S    
C60   P3    S    
