data_mof_unit_25172.cif
_audit_creation_date              2013-03-05T15:56:04-0500
_audit_creation_method            fapswitch 2.2
_symmetry_space_group_name_H-M    P1
_symmetry_Int_Tables_number       1
_space_group_crystal_system       triclinic
_cell_length_a                    8.437516
_cell_length_b                    16.475558
_cell_length_c                    27.038587
_cell_angle_alpha                 96.622682
_cell_angle_beta                  93.445563
_cell_angle_gamma                 86.180038
_cell_volume                      3720.11970687

loop_
_atom_site_label
_atom_site_type_symbol
_atom_site_description
_atom_site_fract_x
_atom_site_fract_y
_atom_site_fract_z
_atom_type_partial_charge
P1    P     P_3+3 0.086060 0.566890 0.610430 0.569407
O1    O     O_2   0.915540 0.542930 0.617950 -0.348392
O2    O     O_3   0.147530 0.542870 0.557780 -0.287256
O3    O     O_3   0.664390 0.396160 0.588360 -0.283612
O4    O     O_2   0.725698 0.498880 0.669319 -0.313300
O5    O     O_3   0.067849 0.674534 0.615266 -0.568548
O6    O     O_3   0.792255 0.350374 0.682448 -0.524652
C1    C     C_3   0.813270 0.299185 0.761968 -0.153263
H1    H     H_    0.942938 0.290136 0.756737 0.187026
P2    P     P_3+3 0.625290 0.314770 0.461990 0.571935
P3    P     P_3+3 0.100593 0.245592 0.561049 0.636957
O7    O     O_2   0.802410 0.302720 0.476520 -0.313403
O8    O     O_3   0.070880 0.354870 0.564040 -0.279248
O9    O     O_2   0.957295 0.210370 0.529402 -0.311352
O10   O     O_3   0.614198 0.288468 0.397093 -0.568785
O11   O     O_3   0.069671 0.217833 0.621185 -0.530104
C2    C     C_3   0.191005 0.165997 0.642994 0.642037
C3    C     C_3   0.171727 0.072362 0.624406 0.202862
C4    C     C_3   0.245807 0.283529 0.379982 0.571267
H2    H     H_    0.333894 0.318818 0.403581 0.046375
C5    C     C_3   0.300827 0.267127 0.326609 -0.131976
H3    H     H_    0.420288 0.235442 0.327752 0.176317
Ba1   Ba    Ba6+2 0.851940 0.461560 0.523510 1.847828
C6    C     C_3   0.993403 0.710016 0.658832 0.682654
C7    C     C_3   0.114066 0.718544 0.703527 -0.816353
H4    H     H_    0.176440 0.659858 0.710247 0.243934
C8    C     C_3   0.704750 0.338096 0.372787 0.076445
C9    C     C_3   0.756629 0.292861 0.321955 0.321760
P4    P     P_3+3 0.103630 0.433040 0.389570 0.505056
O12   O     O_2   0.274150 0.457040 0.382020 -0.392826
O13   O     O_3   0.042160 0.457070 0.442220 -0.320059
O14   O     O_3   0.525310 0.603770 0.411640 -0.414175
O15   O     O_3   0.096009 0.325657 0.379767 -0.606008
P5    P     P_3+3 0.097397 0.751840 0.436037 0.526369
O16   O     O_3   0.637620 0.597020 0.524620 -0.306881
O17   O     O_3   0.118810 0.645070 0.435950 -0.372088
O18   O     O_2   0.236940 0.789086 0.468521 -0.322281
O19   O     O_3   0.130753 0.774783 0.375979 -0.553726
Ba2   Ba    Ba6+2 0.337880 0.538370 0.476480 1.753658
P6    P     P_3+3 0.651768 0.416119 0.654191 0.644007
C10   C     C_3   0.720819 0.297858 0.711053 0.595103
H5    H     H_    0.594818 0.314560 0.718071 0.022750
H6    H     H_    0.777572 0.248691 0.782092 0.171496
O20   O     O_3   0.552080 0.402920 0.475380 -0.345232
C11   C     C_3   0.465483 0.781295 0.620245 0.747294
H7    H     H_    0.362822 0.741890 0.618503 0.072181
C12   C     C_3   0.503949 0.811714 0.675071 -0.737645
H8    H     H_    0.594964 0.857523 0.678227 0.312246
H9    H     H_    0.397257 0.843016 0.692292 0.236429
P7    P     P_3+3 0.571244 0.701368 0.536518 0.586034
O21   O     O_2   0.387280 0.697260 0.523450 -0.342177
O22   O     O_3   0.599487 0.734388 0.600796 -0.556581
H10   H     H_    0.245736 0.054083 0.592530 0.063393
C13   C     C_3   0.996249 0.760118 0.343193 0.649550
H11   H     H_    0.906520 0.724942 0.358845 -0.116047
C14   C     C_3   0.915392 0.842313 0.330707 -0.158771
H12   H     H_    0.824709 0.831993 0.299606 0.142015
H13   H     H_    0.852077 0.872062 0.363283 0.095822
P8    P     P_3+3 0.533927 0.587747 0.346735 0.533098
C15   C     C_3   0.520959 0.747203 0.359952 0.252776
H14   H     H_    0.635282 0.754770 0.382017 -0.014278
O23   O     O_2   0.371709 0.556211 0.326138 -0.322302
O24   O     O_3   0.539008 0.681546 0.322193 -0.497428
C16   C     C_3   0.473877 0.824949 0.335344 -0.057706
C17   C     C_R   0.021108 0.433853 0.180910 0.564545
O25   O     O_2   0.077643 0.380404 0.205553 -0.529998
N1    N     N_R   0.920715 0.496455 0.202630 -0.170861
C18   C     C_R   0.852271 0.554894 0.173203 0.606416
C19   C     C_2   0.734889 0.515643 0.270834 -0.030346
C20   C     C_3   0.699561 0.514423 0.325165 0.157030
C21   C     C_1   0.980026 0.486147 0.343225 0.208590
C22   C     C_2   0.015314 0.484529 0.295576 -0.140978
C23   C     C_2   0.885891 0.499707 0.255669 0.120772
C24   C     C_R   0.991039 0.490096 0.100642 -0.064654
C25   C     C_R   0.056873 0.429835 0.130026 -0.079435
C26   C     C_R   0.157543 0.366506 0.107936 -0.020413
C27   C     C_R   0.888246 0.553008 0.122534 -0.087751
C28   C     C_2   0.847576 0.524578 0.358670 -0.457770
H15   H     H_    0.137995 0.474174 0.285540 0.195244
H16   H     H_    0.211935 0.319603 0.129557 0.197215
C29   C     C_2   0.353461 0.505488 0.651425 0.219650
C30   C     C_R   0.153420 0.416189 0.974988 0.050649
C31   C     C_R   0.010398 0.550330 0.970450 0.000609
C32   C     C_R   0.100589 0.482258 0.947305 0.105546
C33   C     C_R   0.232810 0.347008 0.949445 -0.185672
C34   C     C_R   0.264114 0.344067 0.899296 -0.020788
C35   C     C_R   0.219649 0.410264 0.872164 -0.047968
C36   C     C_R   0.138441 0.480085 0.896069 -0.071025
C37   C     C_R   0.095450 0.547389 0.868843 -0.208013
C38   C     C_R   0.134497 0.542425 0.817832 0.661852
N2    N     N_R   0.214830 0.473361 0.794828 -0.169681
C39   C     C_R   0.254787 0.407266 0.821496 0.581399
C40   C     C_2   0.409429 0.445671 0.729472 -0.200727
C41   C     C_3   0.439768 0.434377 0.674141 0.134633
C42   C     C_1   0.201757 0.517716 0.659903 -0.000758
C43   C     C_2   0.144819 0.499220 0.702230 -0.209457
C44   C     C_2   0.259297 0.470399 0.742893 0.164931
O26   O     O_2   0.320028 0.345055 0.800950 -0.527031
C45   C     C_R   0.124373 0.420958 0.026917 0.037310
C46   C     C_R   0.027206 0.487201 0.049264 0.094098
C47   C     C_R   0.965603 0.550544 0.020732 0.068604
C48   C     C_R   0.190308 0.361955 0.057689 -0.191071
H17   H     H_    0.501402 0.431654 0.757292 0.190346
H18   H     H_    0.271439 0.312087 0.044358 0.145036
O27   O     O_2   0.760261 0.609300 0.191018 -0.527700
C49   C     C_R   0.822106 0.612871 0.093213 -0.039231
H19   H     H_    0.635563 0.521884 0.243864 0.178853
C50   C     C_R   0.971019 0.617157 0.942802 -0.274983
C51   C     C_R   0.014158 0.617219 0.893614 0.430922
O28   O     O_2   0.096947 0.599671 0.793869 -0.552654
C52   C     C_R   0.859783 0.611858 0.043644 -0.179258
H20   H     H_    0.800231 0.659237 0.023839 0.148716
H21   H     H_    0.845419 0.562060 0.394441 0.157427
C53   C     C_R   0.390426 0.264498 0.518648 0.073254
C54   C     C_R   0.529697 0.239967 0.494343 0.120663
C55   C     C_R   0.578579 0.156567 0.486884 -0.152326
C56   C     C_R   0.477654 0.096970 0.498428 0.309059
C57   C     C_R   0.326527 0.123520 0.515866 -0.233683
C58   C     C_R   0.287276 0.207085 0.529718 0.087895
C59   C     C_R   0.607240 0.848152 0.493922 -0.203092
C60   C     C_R   0.664968 0.767190 0.497702 0.186511
C61   C     C_R   0.704932 0.905330 0.477646 0.277128
N3    N     N_2   0.521401 0.010937 0.493143 0.001102
N4    N     N_2   0.659653 0.991215 0.479775 -0.002621
C62   C     C_R   0.811920 0.739998 0.479510 -0.365517
H22   H     H_    0.489214 0.867119 0.505293 0.212547
H23   H     H_    0.240122 0.079008 0.518243 0.180959
C63   C     C_R   0.906941 0.793877 0.460660 0.190081
C64   C     C_R   0.856670 0.877138 0.461552 -0.239895
H24   H     H_    0.855437 0.677204 0.481988 0.149423
N5    N     N_R   0.727034 0.215320 0.684860 0.271522
O29   O     O_R   0.752047 0.204571 0.637468 -0.245839
O30   O     O_R   0.678162 0.155097 0.705989 -0.247818
H25   H     H_    0.308384 0.326381 0.311306 0.148674
N6    N     N_R   0.194806 0.215365 0.294286 0.294725
O31   O     O_R   0.199885 0.137050 0.297572 -0.194660
O32   O     O_R   0.118902 0.243944 0.256130 -0.274787
H26   H     H_    0.894451 0.674094 0.668091 0.071981
N7    N     N_R   0.926336 0.791908 0.650277 0.253811
O33   O     O_R   0.921035 0.815900 0.605951 -0.294461
O34   O     O_R   0.881710 0.843688 0.687612 -0.326240
H27   H     H_    0.052891 0.742410 0.737945 0.291970
H28   H     H_    0.203356 0.761521 0.697135 0.242208
H29   H     H_    0.812599 0.356148 0.395433 0.135459
H30   H     H_    0.630303 0.394254 0.367154 0.067076
N8    N     N_R   0.815774 0.207340 0.325719 0.284027
O35   O     O_R   0.825929 0.176047 0.367916 -0.266109
O36   O     O_R   0.862685 0.161720 0.286153 -0.216127
H31   H     H_    0.855760 0.325937 0.310067 0.028731
N9    N     N_R   0.627779 0.296314 0.282978 0.210693
O37   O     O_R   0.588403 0.230751 0.254479 -0.283581
O38   O     O_R   0.563377 0.366584 0.272550 -0.467608
N10   N     N_R   0.423047 0.853006 0.593829 0.201482
O39   O     O_R   0.519849 0.911847 0.596076 -0.337742
O40   O     O_R   0.279245 0.864032 0.574561 -0.362850
H32   H     H_    0.549871 0.761242 0.696559 0.266245
N11   N     N_R   0.782906 0.377119 0.792442 0.233999
O41   O     O_R   0.830072 0.444402 0.778884 -0.391150
O42   O     O_R   0.716715 0.379103 0.834830 -0.367109
N12   N     N_R   0.045850 0.712045 0.297290 0.236283
O43   O     O_R   0.939901 0.690854 0.262199 -0.374039
O44   O     O_R   0.194607 0.690081 0.290760 -0.325761
N13   N     N_R   0.030300 0.896907 0.316711 0.301041
O45   O     O_R   0.092756 0.882775 0.273496 -0.291427
O46   O     O_R   0.056823 0.964708 0.344818 -0.221156
H33   H     H_    0.426372 0.737925 0.385174 0.174779
H34   H     H_    0.559479 0.832267 0.306883 0.138212
N14   N     N_R   0.468398 0.897068 0.372044 0.240443
O47   O     O_R   0.557219 0.957268 0.367942 -0.324695
O48   O     O_R   0.360818 0.906107 0.405042 -0.329726
N15   N     N_R   0.172379 0.177919 0.697221 0.243761
O49   O     O_R   0.286735 0.204913 0.727969 -0.279518
O50   O     O_R   0.045829 0.154875 0.715510 -0.340659
H35   H     H_    0.355467 0.819393 0.315693 0.217422
H36   H     H_    0.325013 0.289171 0.881805 0.190187
H37   H     H_    0.269320 0.292745 0.966897 0.144869
H38   H     H_    0.740360 0.661473 0.108603 0.184821
H39   H     H_    0.912897 0.673064 0.959365 0.170293
N16   N     N_R   0.350474 0.190454 0.633675 0.190964
O51   O     O_R   0.463806 0.136553 0.619981 -0.334957
O52   O     O_R   0.382792 0.266890 0.642757 -0.439310
N17   N     N_R   0.977432 0.690586 0.870290 0.266703
O53   O     O_R   0.832297 0.722654 0.869146 -0.325815
O54   O     O_R   0.092274 0.734128 0.860383 -0.305710
H40   H     H_    0.020355 0.512649 0.709487 0.223551
N18   N     N_R   0.438839 0.576081 0.648556 0.200714
O55   O     O_R   0.512405 0.580703 0.608478 -0.329801
O56   O     O_R   0.478841 0.621422 0.689369 -0.438973
H41   H     H_    0.689130 0.138494 0.469178 0.199685
H42   H     H_    0.934305 0.919610 0.449143 0.195978
N19   N     N_R   0.338159 0.348103 0.523259 0.241521
O57   O     O_R   0.239579 0.373786 0.489295 -0.343037
O58   O     O_R   0.367659 0.395270 0.563992 -0.398897
N20   N     N_R   0.231456 0.019019 0.662472 0.267367
O59   O     O_R   0.377574 0.022518 0.680552 -0.261917
O60   O     O_R   0.145749 0.962703 0.675154 -0.251886
N21   N     N_R   0.007035 0.055852 0.607609 0.279114
O61   O     O_R   0.972100 0.034449 0.560589 -0.357833
O62   O     O_R   0.898868 0.053127 0.639569 -0.163895
N22   N     N_R   0.235405 0.205992 0.400838 0.225887
O63   O     O_R   0.352657 0.150562 0.397398 -0.361469
O64   O     O_R   0.110867 0.192339 0.424041 -0.302925

loop_
_geom_bond_atom_site_label_1
_geom_bond_atom_site_label_2
_geom_bond_distance
_ccdc_geom_bond_type
C51   N17   1.434323 S    
Ba2   O21   2.820357 S    
C55   H41   1.082475 S    
C9    N8    1.475792 S    
C9    N9    1.470962 S    
N11   O41   1.300623 A    
C37   C51   1.419530 A    
C3    N20   1.474101 S    
P5    O18   1.543342 D    
P3    O8    1.794325 S    
C10   H5    1.102362 S    
C5    H25   1.110380 S    
N20   O60   1.301544 A    
C42   C43   1.341453 D    
C1    H6    1.111932 S    
N15   O49   1.302093 A    
P3    C58   1.872027 S    
C63   C64   1.406533 A    
C40   H17   1.080470 S    
C53   C54   1.394405 A    
C19   H19   1.084908 S    
C39   O26   1.221651 D    
N3    N4    1.253018 D    
C12   H9    1.107395 S    
C33   C34   1.391731 A    
C50   C51   1.399959 A    
N15   O50   1.299841 A    
C14   N13   1.459814 S    
C4    N22   1.464470 S    
C40   C41   1.521127 S    
C15   O24   1.406300 S    
C27   C49   1.402322 A    
C4    C5    1.531346 S    
P1    O1    1.548086 D    
C16   H34   1.108254 S    
P2    O10   1.756658 S    
C29   C42   1.312182 D    
P3    O9    1.544484 D    
C59   H22   1.075674 S    
C20   C28   1.505090 S    
C12   H32   1.104827 S    
N17   O54   1.301326 A    
C54   C55   1.403345 A    
P4    O15   1.763346 S    
C33   H37   1.077011 S    
C55   C56   1.414467 A    
O8    Ba1   2.733421 S    
C34   H36   1.083669 S    
C30   C45   1.432146 A    
O14   Ba2   2.780586 S    
N21   O62   1.300368 A    
N17   O53   1.301032 A    
C3    H10   1.096927 S    
C57   C58   1.407380 A    
O2    Ba1   2.958807 S    
C62   H24   1.082612 S    
N10   O39   1.302531 A    
C12   H8    1.105036 S    
C14   H13   1.106119 S    
C1    H1    1.109615 S    
C17   N1    1.389199 Am   
C24   C27   1.406194 A    
C62   C63   1.392419 A    
P7    O22   1.767126 S    
O6    P6    1.753004 S    
C19   C23   1.361524 D    
N1    C23   1.475337 S    
N10   O40   1.301178 A    
C49   H38   1.083561 S    
C53   C58   1.395754 A    
P1    C42   1.840200 S    
C2    N16   1.474000 S    
N14   O48   1.300343 A    
N20   O59   1.301078 A    
O2    Ba2   2.790724 S    
C9    H31   1.110561 S    
N11   O42   1.300939 A    
C5    H3    1.104221 S    
C64   H42   1.083027 S    
P4    O13   1.543929 S    
C7    H28   1.101711 S    
P7    C60   1.838337 S    
C3    N21   1.468751 S    
C1    N11   1.459711 S    
N2    C44   1.469742 S    
C59   C61   1.415354 A    
C2    C3    1.582317 S    
N8    O36   1.300709 A    
C49   C52   1.393933 A    
C11   C12   1.531824 S    
C6    N7    1.465826 S    
C26   C48   1.395248 A    
C13   C14   1.538816 S    
C24   C25   1.407434 A    
P2    O20   1.551753 S    
N1    C18   1.393199 Am   
C26   H16   1.083616 S    
N6    O31   1.301216 A    
C1    C10   1.539628 S    
C4    O15   1.400872 S    
N2    C39   1.386499 Am   
C10   N5    1.458214 S    
O3    Ba1   2.781417 S    
C34   C35   1.401905 A    
N22   O63   1.300951 A    
C24   C46   1.434925 A    
C11   O22   1.418983 S    
C6    H26   1.111373 S    
C7    H4    1.098214 S    
C11   H7    1.112195 S    
C15   H33   1.109559 S    
Ba1   O20   2.944174 S    
N19   O57   1.290411 A    
C15   H14   1.109789 S    
P1    O2    1.543910 S    
N12   O44   1.299572 A    
C57   H23   1.077593 S    
O16   Ba2   2.943456 S    
C25   C26   1.402152 A    
N19   O58   1.293935 A    
C60   C62   1.388708 A    
P4    O12   1.548483 D    
P3    O11   1.777500 S    
O10   C8    1.397051 S    
C45   C46   1.420070 A    
O19   C13   1.413645 S    
C8    H30   1.103358 S    
O5    C6    1.416016 S    
C43   C44   1.516231 S    
P4    Ba2   3.376133 S    
O16   P7    1.771595 S    
P7    O21   1.575221 D    
C50   H39   1.077289 S    
C6    C7    1.532538 S    
C48   H18   1.077020 S    
C31   C50   1.411625 A    
P2    O7    1.528083 D    
P5    C63   1.838278 S    
N14   O47   1.300793 A    
P1    Ba1   3.375659 S    
C30   C32   1.423734 A    
N9    O38   1.299317 A    
C31   C32   1.417799 A    
C28   H21   1.086287 S    
C11   N10   1.463493 S    
C14   H12   1.108386 S    
C38   O28   1.219098 D    
C16   H35   1.107263 S    
N5    O29   1.301191 A    
C40   C44   1.361870 D    
C29   N18   1.420149 S    
C8    C9    1.558404 S    
C61   N4    1.436420 S    
C59   C60   1.402085 A    
N8    O35   1.301154 A    
C18   C27   1.417373 A    
N6    O32   1.299488 A    
C13   H11   1.114322 S    
P8    O23   1.545933 D    
C53   N19   1.411881 S    
C31   C47   1.432393 A    
C52   H20   1.077209 S    
N13   O46   1.300966 A    
P5    O19   1.752089 S    
P8    O24   1.754770 S    
C43   H40   1.083558 S    
O17   Ba2   2.734197 S    
C32   C36   1.436235 A    
P6    C41   1.894189 S    
C22   C23   1.517751 S    
N5    O30   1.301726 A    
N7    O33   1.301999 A    
C2    N15   1.473186 S    
Ba2   O20   2.775092 S    
P2    Ba1   3.402781 S    
C22   H15   1.083420 S    
C30   C33   1.413190 A    
P1    O5    1.760288 S    
Ba1   O16   2.775811 S    
C17   C25   1.419377 A    
C15   C16   1.529126 S    
O3    P6    1.780716 S    
N12   O43   1.297896 A    
C4    H2    1.101180 S    
N18   O55   1.292895 A    
C21   C22   1.336542 D    
C16   N14   1.457691 S    
C56   C57   1.410667 A    
C29   C41   1.509550 S    
N7    O34   1.301088 A    
C7    H27   1.110585 S    
C8    H29   1.103869 S    
C38   N2    1.387704 Am   
O11   C2    1.432568 S    
Ba1   Ba2   4.660340 S    
C47   C52   1.415420 A    
C46   C47   1.421151 A    
O13   Ba2   2.959612 S    
O12   Ba2   2.783778 S    
P5    O17   1.756075 S    
O6    C10   1.410674 S    
C56   N3    1.433782 S    
N21   O61   1.301146 A    
C19   C20   1.519065 S    
C61   C64   1.409036 A    
N13   O45   1.300837 A    
P8    C20   1.860959 S    
C13   N12   1.460963 S    
N16   O51   1.301420 A    
O7    Ba1   2.820009 S    
C45   C48   1.416214 A    
C36   C37   1.416212 A    
C35   C36   1.409703 A    
N22   O64   1.300639 A    
C17   O25   1.219887 D    
C18   O27   1.221006 D    
O4    P6    1.539373 D    
O1    Ba1   2.783383 S    
N9    O37   1.302308 A    
O14   P8    1.749488 S    
P4    C21   1.843297 S    
C37   C38   1.429183 A    
C35   C39   1.413687 A    
N18   O56   1.299395 A    
C5    N6    1.458457 S    
C21   C28   1.313410 D    
P2    C54   1.844080 S    
Ba1   O13   2.789842 S    
N16   O52   1.298820 A    
