data_mof_unit_36602.cif
_audit_creation_date              2013-03-05T15:48:53-0500
_audit_creation_method            fapswitch 2.2
_symmetry_space_group_name_H-M    P1
_symmetry_Int_Tables_number       1
_space_group_crystal_system       triclinic
_cell_length_a                    18.391577
_cell_length_b                    18.371877
_cell_length_c                    50.955768
_cell_angle_alpha                 90.194889
_cell_angle_beta                  89.73429
_cell_angle_gamma                 119.908564
_cell_volume                      14924.1937383

loop_
_atom_site_label
_atom_site_type_symbol
_atom_site_description
_atom_site_fract_x
_atom_site_fract_y
_atom_site_fract_z
_atom_type_partial_charge
O1    O     O_R   0.475290 0.813700 0.278840 -0.508034
O2    O     O_R   0.475290 0.813700 0.221160 -0.495670
O3    O     O_R   0.448450 0.657720 0.276690 -0.491446
O4    O     O_R   0.448450 0.657720 0.223310 -0.492585
C1    C     C_R   0.407925 0.584954 0.287910 0.544461
C2    C     C_R   0.408006 0.584663 0.212019 0.534044
O5    O     O_R   0.338410 0.524710 0.278840 -0.506336
O6    O     O_R   0.338410 0.524710 0.221160 -0.489288
O7    O     O_R   0.209270 0.551550 0.276690 -0.495820
O8    O     O_R   0.209270 0.551550 0.223310 -0.493716
C3    C     C_R   0.176173 0.591592 0.287790 0.544923
C4    C     C_R   0.177311 0.592392 0.212048 0.533168
O9    O     O_R   0.186300 0.661590 0.278840 -0.511102
O10   O     O_R   0.186300 0.661590 0.221160 -0.495883
O11   O     O_R   0.342280 0.790730 0.276690 -0.495489
O12   O     O_R   0.342280 0.790730 0.223310 -0.497144
C5    C     C_R   0.415675 0.825080 0.287461 0.539213
C6    C     C_R   0.414823 0.821505 0.211729 0.532162
Cr1   Cr    Cr6+3 0.456550 0.732290 0.250000 1.043523
Cr2   Cr    Cr6+3 0.275740 0.543450 0.250000 1.034436
Cr3   Cr    Cr6+3 0.267710 0.724260 0.250000 1.030694
O13   O     O_3   0.333333 0.666667 0.250000 -0.244194
C7    C     C_R   0.151258 0.542104 0.411041 0.436810
C8    C     C_R   0.122342 0.482481 0.087650 0.428790
O14   O     O_2   0.222193 0.579001 0.401839 -0.454111
O15   O     O_2   0.131634 0.429841 0.099417 -0.489439
N1    N     N_R   0.082725 0.513221 0.394662 -0.393541
N2    N     N_R   0.122022 0.547647 0.101277 -0.389828
C9    C     C_R   0.002108 0.470984 0.404447 0.421301
C10   C     C_R   0.113416 0.608453 0.087906 0.428621
C11   C     C_R   0.091066 0.592727 0.355081 -0.057766
C12   C     C_R   0.195181 0.632911 0.139954 -0.075669
C13   C     C_R   0.111663 0.610727 0.328610 -0.138919
C14   C     C_R   0.204135 0.644287 0.166885 -0.145757
C15   C     C_R   0.136684 0.493121 0.325563 -0.135836
C16   C     C_R   0.099124 0.498546 0.173831 -0.143081
C17   C     C_R   0.116508 0.475631 0.352019 -0.050796
C18   C     C_R   0.086599 0.488257 0.146592 -0.047475
C19   C     C_R   0.095661 0.526572 0.366945 0.244329
C20   C     C_R   0.134880 0.555634 0.129405 0.221201
C21   C     C_R   0.057661 0.487088 0.448656 -0.033549
C22   C     C_R   0.108956 0.541105 0.046321 -0.031867
C23   C     C_R   0.139623 0.529583 0.438277 0.018383
C24   C     C_R   0.113173 0.477074 0.060129 0.029354
C25   C     C_R   0.207900 0.556780 0.455242 -0.114934
C26   C     C_R   0.106172 0.408127 0.046219 -0.138501
C27   C     C_R   0.988424 0.456790 0.431538 0.031910
C28   C     C_R   0.110215 0.607779 0.060388 0.028577
C29   C     C_R   0.137018 0.562486 0.313781 0.008872
C30   C     C_R   0.156951 0.577350 0.184057 0.013777
H1    H     H_    0.156118 0.454835 0.314742 0.141788
H2    H     H_    0.063135 0.445956 0.186823 0.123994
H3    H     H_    0.119727 0.424187 0.361160 0.141672
H4    H     H_    0.039265 0.428128 0.138941 0.157294
H5    H     H_    0.271496 0.586205 0.447697 0.196550
H6    H     H_    0.105195 0.355948 0.056394 0.169331
C31   C     C_R   0.875209 0.428899 0.688596 0.007072
C32   C     C_R   0.878858 0.432654 0.810504 0.014036
C33   C     C_R   0.100734 0.507817 0.521212 0.025752
C34   C     C_R   0.095029 0.468248 0.976317 0.027685
C35   C     C_R   0.949730 0.410037 0.513315 0.023452
C36   C     C_R   0.072492 0.590123 0.978054 0.020419
C37   C     C_R   0.017718 0.454669 0.530868 -0.009962
C38   C     C_R   0.074782 0.524857 0.963667 -0.007023
C39   C     C_R   0.165198 0.557821 0.539661 0.255651
C40   C     C_R   0.108868 0.412050 0.960414 0.239131
C41   C     C_R   0.145659 0.552715 0.566522 -0.094321
C42   C     C_R   0.093107 0.407343 0.933260 -0.102400
C43   C     C_R   0.065564 0.497225 0.576034 -0.016207
C44   C     C_R   0.062041 0.454872 0.921473 -0.013566
C45   C     C_R   0.001540 0.447131 0.558289 -0.046459
C46   C     C_R   0.055018 0.515367 0.936477 -0.045087
C47   C     C_R   0.920411 0.391037 0.567921 0.041152
C48   C     C_R   0.027316 0.565990 0.924343 0.042006
C49   C     C_R   0.904308 0.387476 0.594942 0.425605
C50   C     C_R   0.000619 0.550837 0.898110 0.427992
N3    N     N_R   0.967178 0.439387 0.611963 -0.386605
N4    N     N_R   0.005251 0.489282 0.883717 -0.381701
C51   C     C_R   0.047258 0.493098 0.603021 0.423867
C52   C     C_R   0.038503 0.443652 0.894804 0.422629
C53   C     C_R   0.925468 0.370959 0.654891 -0.057423
C54   C     C_R   0.904551 0.386351 0.852212 -0.058014
C55   C     C_R   0.890137 0.365052 0.679543 -0.137427
C56   C     C_R   0.860779 0.368338 0.828580 -0.138997
C57   C     C_R   0.901515 0.501285 0.673282 -0.133573
C58   C     C_R   0.945307 0.513941 0.815527 -0.129567
C59   C     C_R   0.936950 0.507013 0.648590 -0.053436
C60   C     C_R   0.990877 0.531342 0.838777 -0.050195
C61   C     C_R   0.946627 0.440748 0.639056 0.240030
C62   C     C_R   0.968820 0.468425 0.857775 0.230544
O16   O     O_2   0.102228 0.537341 0.618588 -0.509164
O17   O     O_2   0.046733 0.392711 0.881495 -0.516335
C63   C     C_R   0.114699 0.510245 0.493490 0.020545
C64   C     C_R   0.099915 0.469943 0.004351 0.029082
C65   C     C_R   0.044834 0.474862 0.476196 0.023224
C66   C     C_R   0.101288 0.537474 0.018472 0.027034
C67   C     C_R   0.962177 0.426775 0.486125 0.020512
C68   C     C_R   0.092308 0.600127 0.005142 0.012896
C69   C     C_R   0.195594 0.545470 0.482190 -0.103090
C70   C     C_R   0.097807 0.403747 0.019055 -0.124527
H7    H     H_    0.871114 0.308744 0.690970 0.135571
H8    H     H_    0.810081 0.305118 0.825026 0.127901
H9    H     H_    0.932569 0.319468 0.647535 0.131749
H10   H     H_    0.886019 0.337075 0.866661 0.146929
H11   H     H_    0.193600 0.594483 0.580091 0.169318
H12   H     H_    0.105854 0.366513 0.921143 0.162098
H13   H     H_    0.250678 0.561334 0.493514 0.206002
H14   H     H_    0.084916 0.345190 0.010314 0.175193
O18   O     O_2   0.942496 0.445536 0.389487 -0.505816
O19   O     O_2   0.107691 0.662907 0.100065 -0.479135
C71   C     C_R   0.907103 0.413355 0.441813 -0.107842
C72   C     C_R   0.108111 0.672569 0.046729 -0.097951
H15   H     H_    0.111677 0.664726 0.320151 0.136746
H16   H     H_    0.250854 0.704990 0.174348 0.142500
H17   H     H_    0.074664 0.632071 0.366627 0.130226
H18   H     H_    0.235016 0.684948 0.127225 0.171711
H19   H     H_    0.852806 0.390570 0.429172 0.166392
H20   H     H_    0.111975 0.726140 0.056988 0.185063
C73   C     C_R   0.870763 0.350287 0.523584 -0.139265
C74   C     C_R   0.046961 0.641470 0.965046 -0.141073
C75   C     C_R   0.856596 0.340850 0.550379 -0.107936
C76   C     C_R   0.024200 0.629070 0.938843 -0.104610
O20   O     O_2   0.833853 0.339623 0.603352 -0.493587
O21   O     O_2   0.971109 0.591004 0.888258 -0.504170
C77   C     C_R   0.894105 0.398308 0.468537 -0.139000
C78   C     C_R   0.100532 0.669511 0.019647 -0.143431
H21   H     H_    0.818803 0.308706 0.511281 0.107187
H22   H     H_    0.039802 0.689518 0.974886 0.121962
H23   H     H_    0.890885 0.551427 0.679756 0.150457
H24   H     H_    0.961106 0.564246 0.801650 0.140107
H25   H     H_    0.794587 0.295150 0.557306 0.162480
H26   H     H_    0.003142 0.668918 0.930021 0.170977
H27   H     H_    0.952637 0.560825 0.636272 0.142487
H28   H     H_    0.041066 0.594722 0.842516 0.152838
H29   H     H_    0.829616 0.366680 0.475003 0.107832
H30   H     H_    0.101794 0.723013 0.010586 0.145857
C79   C     C_R   0.433147 0.881859 0.407383 0.425160
C80   C     C_R   0.350620 0.854310 0.085986 0.418425
O22   O     O_2   0.398530 0.810739 0.398308 -0.462549
O23   O     O_2   0.288286 0.843449 0.097970 -0.508885
N5    N     N_R   0.458352 0.949904 0.390930 -0.394049
N6    N     N_R   0.417645 0.857841 0.099465 -0.383728
C81   C     C_R   0.496635 0.030648 0.400678 0.421810
C82   C     C_R   0.486202 0.865664 0.085527 0.423476
C83   C     C_R   0.519758 0.951099 0.348118 -0.052736
C84   C     C_R   0.441936 0.798857 0.139855 -0.081552
C85   C     C_R   0.509428 0.919216 0.322710 -0.117804
C86   C     C_R   0.446577 0.795458 0.166970 -0.140506
C87   C     C_R   0.359137 0.862757 0.326462 -0.137843
C88   C     C_R   0.390363 0.888868 0.171880 -0.154486
C89   C     C_R   0.369598 0.893918 0.351952 -0.053696
C90   C     C_R   0.390805 0.896675 0.144379 -0.056536
C91   C     C_R   0.449589 0.935569 0.363150 0.237481
C92   C     C_R   0.416012 0.850886 0.127982 0.207557
C93   C     C_R   0.485391 0.975797 0.444841 -0.038687
C94   C     C_R   0.421081 0.866806 0.044141 -0.034538
C95   C     C_R   0.448012 0.894007 0.434455 -0.000456
C96   C     C_R   0.353539 0.862899 0.058351 0.006085
C97   C     C_R   0.431184 0.826648 0.450974 -0.099362
C98   C     C_R   0.292752 0.872628 0.044967 -0.117575
C99   C     C_R   0.510130 0.044718 0.427817 0.036687
C100  C     C_R   0.486292 0.865053 0.057926 0.033892
C101  C     C_R   0.428675 0.872173 0.312029 0.006738
C102  C     C_R   0.419780 0.839114 0.183329 0.006189
H31   H     H_    0.296113 0.826693 0.318759 0.136155
H32   H     H_    0.368212 0.922153 0.184117 0.128590
H33   H     H_    0.315094 0.881322 0.363565 0.132139
H34   H     H_    0.371538 0.938377 0.135969 0.167316
H35   H     H_    0.410401 0.765087 0.442557 0.216494
H36   H     H_    0.244035 0.875879 0.056097 0.189835
C103  C     C_R   0.559465 0.127447 0.687746 -0.035020
C104  C     C_R   0.557392 0.125475 0.811580 -0.031225
C105  C     C_R   0.465261 0.930720 0.516603 0.038034
C106  C     C_R   0.365420 0.887386 0.974566 0.032901
C107  C     C_R   0.548008 0.083660 0.510116 0.022440
C108  C     C_R   0.502889 0.894831 0.974952 0.020710
C109  C     C_R   0.507391 0.013250 0.527025 0.036101
C110  C     C_R   0.439053 0.900732 0.961279 0.034753
C111  C     C_R   0.414309 0.863755 0.533613 -0.096812
C112  C     C_R   0.297551 0.877139 0.958978 -0.097272
C113  C     C_R   0.412724 0.876326 0.560510 -0.102180
C114  C     C_R   0.308654 0.899945 0.932569 -0.098478
C115  C     C_R   0.460672 0.956696 0.571359 0.023129
C116  C     C_R   0.386127 0.926868 0.920209 0.018918
C117  C     C_R   0.507777 0.025572 0.554552 -0.030989
C118  C     C_R   0.449341 0.921445 0.934055 -0.032070
C119  C     C_R   0.554907 0.106882 0.565183 0.034720
C120  C     C_R   0.523393 0.938231 0.920824 0.032044
C121  C     C_R   0.556503 0.117937 0.592449 0.408027
C122  C     C_R   0.536080 0.966606 0.894685 0.399764
N7    N     N_R   0.509937 0.050104 0.608685 -0.369800
N8    N     N_R   0.478277 0.982188 0.882371 -0.377626
C123  C     C_R   0.461980 0.970251 0.598615 0.453243
C124  C     C_R   0.402351 0.959707 0.894465 0.461037
C125  C     C_R   0.465597 0.086659 0.650112 0.322280
C126  C     C_R   0.455910 0.998930 0.834770 0.324271
C127  C     C_R   0.486115 0.117444 0.675911 -0.132023
C128  C     C_R   0.482496 0.047956 0.811766 -0.141832
C129  C     C_R   0.607724 0.098968 0.674437 -0.145370
C130  C     C_R   0.603949 0.155244 0.834671 -0.110195
C131  C     C_R   0.587067 0.067547 0.649066 -0.100572
C132  C     C_R   0.575832 0.109190 0.857817 -0.079466
C133  C     C_R   0.517779 0.063528 0.636534 0.260335
C134  C     C_R   0.502334 0.030312 0.858208 0.227308
O24   O     O_2   0.421348 0.911249 0.613407 -0.481510
O25   O     O_2   0.350181 0.970840 0.883211 -0.462756
C135  C     C_R   0.470301 0.918379 0.489245 0.000657
C136  C     C_R   0.361498 0.882592 0.002628 -0.000470
C137  C     C_R   0.497488 0.988575 0.472299 0.014242
C138  C     C_R   0.424872 0.874871 0.016249 0.016775
C139  C     C_R   0.536605 0.071433 0.482613 0.023776
C140  C     C_R   0.494047 0.878345 0.002394 0.024220
C141  C     C_R   0.447723 0.838827 0.477885 0.033947
C142  C     C_R   0.299320 0.888919 0.017950 0.028977
H37   H     H_    0.446561 0.136419 0.686184 0.142509
H38   H     H_    0.446425 0.024079 0.793906 0.131882
H39   H     H_    0.373537 0.822683 0.572792 0.166151
H40   H     H_    0.256347 0.896785 0.921892 0.165368
H41   H     H_    0.372961 0.801240 0.526253 0.165311
H42   H     H_    0.235070 0.851810 0.966912 0.132663
O26   O     O_2   0.518611 0.089904 0.385703 -0.508945
O27   O     O_2   0.548170 0.874740 0.097177 -0.495911
C143  C     C_R   0.547933 0.125977 0.438230 -0.108690
C144  C     C_R   0.551335 0.864086 0.043944 -0.107094
H43   H     H_    0.564085 0.927816 0.311956 0.150501
H44   H     H_    0.468382 0.755627 0.175246 0.152221
H45   H     H_    0.581702 0.982851 0.356767 0.132986
H46   H     H_    0.459391 0.760909 0.128040 0.166162
H47   H     H_    0.567089 0.179981 0.425631 0.165426
H48   H     H_    0.600853 0.859892 0.054029 0.167533
C145  C     C_R   0.596675 0.164090 0.521399 -0.146522
C146  C     C_R   0.574642 0.907819 0.960659 -0.137987
C147  C     C_R   0.600269 0.175277 0.548416 -0.120626
C148  C     C_R   0.584476 0.928998 0.934219 -0.106751
O28   O     O_2   0.599792 0.187912 0.601880 -0.539550
O29   O     O_2   0.599487 0.979161 0.882972 -0.526787
C149  C     C_R   0.560912 0.139209 0.465066 -0.141122
C150  C     C_R   0.554227 0.868636 0.016789 -0.135868
H49   H     H_    0.634176 0.219596 0.509821 0.102044
H50   H     H_    0.626311 0.905030 0.969412 0.110842
H51   H     H_    0.664197 0.104985 0.683042 0.154523
H52   H     H_    0.661706 0.215051 0.834864 0.140701
H53   H     H_    0.637984 0.238277 0.556132 0.154428
H54   H     H_    0.641721 0.940505 0.924457 0.167852
H55   H     H_    0.627846 0.050775 0.638497 0.140060
H56   H     H_    0.612240 0.134463 0.875546 0.155211
H57   H     H_    0.587528 0.203339 0.471583 0.108658
H58   H     H_    0.605538 0.865383 0.007763 0.110074
C151  C     C_R   0.536996 0.593154 0.408600 0.450443
C152  C     C_R   0.534590 0.650311 0.089349 0.459613
O30   O     O_2   0.600406 0.628712 0.395107 -0.506862
O31   O     O_2   0.590425 0.701911 0.103350 -0.486557
N9    N     N_R   0.459131 0.552585 0.396769 -0.370752
N10   N     N_R   0.460869 0.587949 0.100545 -0.371730
C153  C     C_R   0.387145 0.507324 0.411588 0.452239
C154  C     C_R   0.394906 0.533798 0.084585 0.436907
C155  C     C_R   0.420587 0.491725 0.352461 -0.079763
C156  C     C_R   0.380981 0.587412 0.139368 -0.101441
C157  C     C_R   0.409421 0.498808 0.325686 -0.144620
C158  C     C_R   0.367279 0.584001 0.166270 -0.147176
C159  C     C_R   0.468384 0.648855 0.330969 -0.138708
C160  C     C_R   0.492510 0.575952 0.173964 -0.148972
C161  C     C_R   0.476238 0.642210 0.358062 0.094921
C162  C     C_R   0.504546 0.573875 0.146535 0.101023
C163  C     C_R   0.452484 0.562458 0.368930 0.214604
C164  C     C_R   0.449319 0.582819 0.128920 0.199526
C165  C     C_R   0.470572 0.550138 0.451498 -0.014454
C166  C     C_R   0.478431 0.600637 0.045547 -0.028668
C167  C     C_R   0.543441 0.595389 0.436107 0.042517
C168  C     C_R   0.545775 0.654593 0.061807 0.038324
C169  C     C_R   0.621060 0.642540 0.448480 -0.101533
C170  C     C_R   0.622696 0.711504 0.050167 -0.111529
C171  C     C_R   0.392143 0.503973 0.439076 0.035307
C172  C     C_R   0.401629 0.541904 0.057064 0.027381
C173  C     C_R   0.432791 0.577381 0.314772 -0.013546
C174  C     C_R   0.423519 0.580298 0.183800 -0.010245
H59   H     H_    0.483885 0.709329 0.322800 0.173582
H60   H     H_    0.534911 0.571349 0.187660 0.157292
H61   H     H_    0.678167 0.677437 0.437126 0.167692
H62   H     H_    0.675207 0.755119 0.062080 0.172234
C175  C     C_R   0.569400 0.442895 0.688636 -0.088194
C176  C     C_R   0.569301 0.443196 0.812410 -0.088096
C177  C     C_R   0.559644 0.604383 0.519482 0.007520
C178  C     C_R   0.580690 0.648070 0.979059 0.017583
C179  C     C_R   0.411737 0.492074 0.522058 0.007194
C180  C     C_R   0.428119 0.558418 0.973805 0.013455
C181  C     C_R   0.489577 0.545890 0.534438 0.023328
C182  C     C_R   0.509970 0.599360 0.962878 0.039609
C183  C     C_R   0.632920 0.662675 0.532936 -0.141847
C184  C     C_R   0.661282 0.684014 0.967456 -0.139882
C185  C     C_R   0.640005 0.657893 0.559932 -0.105254
C186  C     C_R   0.671706 0.669943 0.941120 -0.106820
C187  C     C_R   0.574530 0.594507 0.574521 0.023827
C188  C     C_R   0.602201 0.621341 0.925063 0.021619
C189  C     C_R   0.498399 0.539398 0.561916 -0.037613
C190  C     C_R   0.521049 0.589018 0.935684 -0.028794
C191  C     C_R   0.432077 0.476045 0.576591 0.028160
C192  C     C_R   0.450800 0.544260 0.919311 0.032577
C193  C     C_R   0.445063 0.464320 0.603061 0.424641
C194  C     C_R   0.462601 0.528635 0.892990 0.430955
N11   N     N_R   0.521121 0.516832 0.614890 -0.338267
N12   N     N_R   0.542014 0.552017 0.883678 -0.341368
C195  C     C_R   0.584394 0.583266 0.601300 0.484012
C196  C     C_R   0.611770 0.600900 0.898971 0.477578
C197  C     C_R   0.586900 0.454604 0.641333 0.264027
C198  C     C_R   0.583576 0.564932 0.836668 0.277611
C199  C     C_R   0.602181 0.429547 0.665508 -0.170938
C200  C     C_R   0.594100 0.528900 0.813592 -0.150034
C201  C     C_R   0.523537 0.486059 0.688006 0.009726
C202  C     C_R   0.535323 0.393271 0.835235 0.023773
C203  C     C_R   0.506257 0.509736 0.663318 0.272286
C204  C     C_R   0.525388 0.429681 0.858557 0.255874
C205  C     C_R   0.539026 0.494706 0.640192 0.244419
C206  C     C_R   0.550717 0.515714 0.859374 0.240959
O32   O     O_2   0.650074 0.631008 0.612406 -0.476288
O33   O     O_2   0.681914 0.624597 0.890108 -0.462676
C207  C     C_R   0.554756 0.601863 0.491672 0.026779
C208  C     C_R   0.568593 0.655839 0.006399 0.018012
C209  C     C_R   0.476289 0.550478 0.479337 0.059566
C210  C     C_R   0.488241 0.604201 0.017730 0.040584
C211  C     C_R   0.403710 0.498747 0.494548 0.031205
C212  C     C_R   0.418011 0.554441 0.001523 0.015391
C213  C     C_R   0.626610 0.646562 0.475675 -0.132517
C214  C     C_R   0.634347 0.711389 0.023079 -0.149956
H63   H     H_    0.639583 0.398958 0.666219 0.140199
H64   H     H_    0.621659 0.568202 0.796475 0.156434
H65   H     H_    0.698264 0.702795 0.569240 0.169453
H66   H     H_    0.734920 0.696182 0.933476 0.168843
H67   H     H_    0.685821 0.713454 0.523083 0.122734
H68   H     H_    0.717955 0.719683 0.978637 0.117516
H69   H     H_    0.688909 0.682785 0.483625 0.115056
H70   H     H_    0.695370 0.756653 0.015627 0.112133
O34   O     O_2   0.318740 0.471014 0.400833 -0.500210
O35   O     O_2   0.330261 0.478083 0.094389 -0.475258
C215  C     C_R   0.320269 0.456988 0.454391 -0.121837
C216  C     C_R   0.333447 0.491265 0.040848 -0.106208
H71   H     H_    0.380932 0.442784 0.313618 0.140110
H72   H     H_    0.314038 0.587674 0.173603 0.133039
H73   H     H_    0.402214 0.430574 0.360621 0.144457
H74   H     H_    0.338279 0.594622 0.126502 0.149546
H75   H     H_    0.258955 0.421922 0.445409 0.162256
H76   H     H_    0.273824 0.445201 0.049165 0.173184
C217  C     C_R   0.345373 0.431293 0.537575 -0.159905
C218  C     C_R   0.359136 0.520742 0.956561 -0.141050
C219  C     C_R   0.355657 0.423197 0.564215 -0.123567
C220  C     C_R   0.370247 0.513970 0.929815 -0.110445
O36   O     O_2   0.389751 0.405723 0.615364 -0.560637
O37   O     O_2   0.402089 0.492356 0.878481 -0.547039
C221  C     C_R   0.325817 0.454088 0.481528 -0.145989
C222  C     C_R   0.340831 0.498485 0.013678 -0.142434
H77   H     H_    0.285457 0.386298 0.529505 0.114242
H78   H     H_    0.295769 0.496918 0.963322 0.168145
H79   H     H_    0.303520 0.374059 0.575046 0.163915
H80   H     H_    0.315074 0.482192 0.917539 0.168784
H81   H     H_    0.267298 0.417827 0.491851 0.106630
H82   H     H_    0.286100 0.455765 0.002607 0.163854
O38   O     O_R   0.524710 0.338410 0.721160 -0.478841
O39   O     O_R   0.524710 0.338410 0.778840 -0.435424
O40   O     O_R   0.551550 0.209270 0.723310 -0.503886
O41   O     O_R   0.551550 0.209270 0.776690 -0.474180
C223  C     C_R   0.591093 0.174833 0.712481 0.540446
C224  C     C_R   0.590664 0.174557 0.787359 0.541700
O42   O     O_R   0.661590 0.186300 0.721160 -0.509959
O43   O     O_R   0.661590 0.186300 0.778840 -0.504384
O44   O     O_R   0.790730 0.342280 0.723310 -0.498255
O45   O     O_R   0.790730 0.342280 0.776690 -0.496127
C225  C     C_R   0.825352 0.415755 0.712584 0.538315
C226  C     C_R   0.825512 0.416121 0.787313 0.541487
O46   O     O_R   0.813700 0.475290 0.721160 -0.507907
O47   O     O_R   0.813700 0.475290 0.778840 -0.498309
O48   O     O_R   0.657720 0.448450 0.723310 -0.485050
O49   O     O_R   0.657720 0.448450 0.776690 -0.489227
C227  C     C_R   0.583908 0.409469 0.712850 0.582393
C228  C     C_R   0.584399 0.408386 0.787898 0.571123
Cr4   Cr    Cr6+3 0.543450 0.275740 0.750000 1.079961
Cr5   Cr    Cr6+3 0.724260 0.267710 0.750000 1.026907
Cr6   Cr    Cr6+3 0.732290 0.456550 0.750000 1.055984
O50   O     O_3   0.666667 0.333333 0.750000 -0.251192
O51   O     O_3   0.392862 0.075397 0.638516 -0.534856
C229  C     C_3   0.404815 0.154005 0.630521 -0.105696
H83   H     H_    0.452275 0.180777 0.614570 0.135092
H84   H     H_    0.422592 0.199098 0.647152 0.104066
H85   H     H_    0.344855 0.144799 0.622484 0.161280
O52   O     O_3   0.383874 0.921291 0.834286 -0.517300
C230  C     C_3   0.406410 0.860372 0.827978 -0.101016
H86   H     H_    0.448806 0.857976 0.843049 0.139900
H87   H     H_    0.435999 0.871736 0.808186 0.110003
H88   H     H_    0.348694 0.797864 0.827564 0.151891
C231  C     C_2   0.455440 0.772399 0.492129 0.558243
O53   O     O_2   0.414484 0.699061 0.485135 -0.554146
O54   O     O_R   0.513189 0.794294 0.512581 -0.693469
H89   H     H_    0.514258 0.743989 0.520241 0.333332
C232  C     C_2   0.250539 0.927644 0.008160 0.550855
O55   O     O_2   0.177068 0.898675 0.014596 -0.540890
O56   O     O_R   0.289737 0.999502 0.992447 -0.673093
H90   H     H_    0.250271 0.020419 0.987160 0.346139
C233  C     C_2   0.504827 0.718725 0.374482 0.641740
O57   O     O_2   0.482411 0.713080 0.397373 -0.467368
O58   O     O_R   0.556393 0.797971 0.363523 -0.704151
H91   H     H_    0.572106 0.845046 0.376656 0.343117
C234  C     C_2   0.572369 0.558590 0.137160 0.626578
O59   O     O_2   0.567877 0.527292 0.115584 -0.478111
O60   O     O_R   0.640698 0.577788 0.153425 -0.689004
H92   H     H_    0.682424 0.563975 0.144999 0.353783
O61   O     O_3   0.622721 0.444532 0.618692 -0.533965
C235  C     C_3   0.577577 0.359620 0.610978 -0.093595
H93   H     H_    0.510131 0.338762 0.607747 0.115371
H94   H     H_    0.584345 0.318452 0.625545 0.147056
H95   H     H_    0.603650 0.352649 0.592072 0.174631
O62   O     O_3   0.610139 0.649694 0.837502 -0.519251
C236  C     C_3   0.546174 0.661913 0.827080 -0.100330
H96   H     H_    0.486919 0.627024 0.838552 0.147761
H97   H     H_    0.534889 0.643578 0.806010 0.115851
H98   H     H_    0.566367 0.729674 0.828362 0.154131
C237  C     C_2   0.497953 0.510847 0.712690 0.573254
O63   O     O_2   0.474581 0.464187 0.731730 -0.517834
O64   O     O_R   0.501182 0.588431 0.714182 -0.647583
H99   H     H_    0.482368 0.598371 0.731910 0.333341
C238  C     C_2   0.516432 0.305131 0.835978 0.589603
O65   O     O_2   0.556344 0.285554 0.850595 -0.503609
O66   O     O_R   0.449828 0.243826 0.821345 -0.669830
H100  H     H_    0.440850 0.185443 0.824438 0.341785
O67   O     O_3   0.460602 0.550860 0.661304 -0.505867
C239  C     C_3   0.374939 0.494613 0.666792 -0.049091
H101  H     H_    0.360310 0.502430 0.687396 0.153684
H102  H     H_    0.354791 0.427230 0.663239 0.133412
H103  H     H_    0.336443 0.510640 0.653935 0.161654
O68   O     O_3   0.497459 0.383778 0.881616 -0.531872
C240  C     C_3   0.410780 0.324692 0.879967 -0.053211
H104  H     H_    0.401699 0.261440 0.875682 0.163758
H105  H     H_    0.376235 0.340403 0.865158 0.144783
H106  H     H_    0.381640 0.321418 0.899362 0.150367
O69   O     O_3   0.243519 0.620683 0.531300 -0.580624
C241  C     C_3   0.308398 0.616065 0.544716 -0.139235
H107  H     H_    0.291694 0.550644 0.549909 0.118551
H108  H     H_    0.326890 0.656183 0.562543 0.131598
H109  H     H_    0.364187 0.640854 0.531814 0.182352
O70   O     O_3   0.150388 0.372847 0.970740 -0.616784
C242  C     C_3   0.111500 0.287301 0.963410 -0.145743
H110  H     H_    0.136673 0.280294 0.944309 0.137969
H111  H     H_    0.041772 0.256686 0.962817 0.121902
H112  H     H_    0.127296 0.253440 0.978273 0.150751

loop_
_geom_bond_atom_site_label_1
_geom_bond_atom_site_label_2
_geom_bond_distance
_ccdc_geom_bond_type
C151  N9    1.382117 Am   
C236  H97   1.113167 S    
C131  C133  1.396594 A    
C100  C144  1.397193 A    
C156  H74   1.083176 S    
C128  H38   1.083255 S    
C107  C109  1.418337 A    
N3    C61   1.433095 S    
C97   C141  1.398886 A    
O10   Cr3   2.004203 S    
C9    O18   1.223040 D    
C215  C221  1.390193 A    
C233  O58   1.398067 S    
C58   C60   1.395602 A    
C125  C133  1.406726 A    
N2    C20   1.448762 S    
C152  O31   1.222106 D    
C108  C146  1.416712 A    
C7    C23   1.405413 A    
C35   C37   1.420840 A    
C36   C38   1.421649 A    
C169  H61   1.083627 S    
C57   H23   1.082881 S    
C147  H53   1.083581 S    
C165  C171  1.409061 A    
O8    Cr2   1.887979 S    
C71   C77   1.386219 A    
C136  C142  1.433344 A    
C139  C149  1.413677 A    
O3    Cr1   1.885723 S    
C126  C134  1.414764 A    
C221  H81   1.077471 S    
C212  C222  1.412885 A    
C77   H29   1.078578 S    
C73   C75   1.383997 A    
C178  C184  1.414585 A    
Cr3   O13   1.962069 S    
C106  C136  1.432211 A    
C47   C49   1.401854 A    
C87   C89   1.392571 A    
C154  C172  1.409091 A    
C39   O69   1.388843 S    
C24   C26   1.398415 A    
C196  O33   1.222121 D    
N3    C51   1.377665 Am   
C14   H16   1.082227 S    
C202  C204  1.416922 A    
C131  H55   1.083078 S    
C198  C206  1.406124 A    
C93   C137  1.418040 A    
C235  H94   1.112250 S    
C86   H44   1.081874 S    
C25   C69   1.389977 A    
C45   C47   1.411553 A    
C41   H11   1.082436 S    
C93   C99   1.411413 A    
C108  C140  1.423108 A    
C219  H79   1.083631 S    
C86   C102  1.402463 A    
C52   O17   1.222561 D    
C3    C29   1.473288 S    
C223  O42   1.285797 A    
C126  O52   1.380569 S    
C84   C92   1.402906 A    
C146  C148  1.389354 A    
N8    C134  1.451130 S    
O9    Cr3   1.999755 S    
C12   H18   1.082929 S    
C182  C190  1.425499 A    
C64   C66   1.421449 A    
C119  C147  1.400049 A    
C80   O23   1.221969 D    
C184  H68   1.078061 S    
C37   C45   1.420027 A    
C151  O30   1.222866 D    
C47   C75   1.396993 A    
C167  C169  1.399001 A    
C15   H1    1.082952 S    
C231  O53   1.223478 D    
C168  C170  1.402758 A    
C130  H52   1.082509 S    
C12   C20   1.401659 A    
C16   C30   1.401134 A    
N9    C153  1.382598 Am   
C72   C78   1.385765 A    
C161  C163  1.417480 A    
N10   C164  1.456976 S    
C111  H41   1.080157 S    
O2    Cr1   2.002896 S    
C141  C231  1.488638 S    
C65   C67   1.415661 A    
C155  H73   1.082826 S    
C232  O55   1.223348 D    
C33   C37   1.426967 A    
C27   C71   1.397564 A    
C197  O61   1.382892 S    
C34   C38   1.424355 A    
O38   C227  1.284921 A    
C186  C188  1.402599 A    
C179  C181  1.420404 A    
O61   C235  1.408783 S    
C180  C182  1.416982 A    
C3    O9    1.288710 A    
C188  C190  1.408540 A    
C89   H33   1.082917 S    
C94   C96   1.405578 A    
C181  C189  1.422546 A    
C89   C91   1.399164 A    
C110  C118  1.426341 A    
C158  H72   1.079486 S    
C130  C132  1.392548 A    
C166  C172  1.407320 A    
C54   H10   1.082735 S    
C41   C43   1.394039 A    
C144  C150  1.385690 A    
C220  H80   1.083726 S    
N8    C124  1.385240 Am   
C148  H54   1.083747 S    
C230  H87   1.113493 S    
C125  O51   1.382727 S    
C209  C211  1.419871 A    
O12   Cr3   1.882986 S    
N1    C9    1.377497 Am   
C56   H8    1.082302 S    
O43   Cr5   2.001301 S    
C238  O65   1.221932 D    
C234  O59   1.222874 D    
C109  C117  1.419564 A    
C189  C191  1.408311 A    
C240  H104  1.109514 S    
C83   H45   1.082844 S    
C48   C50   1.404523 A    
C9    C27   1.403808 A    
C10   C28   1.403457 A    
C185  C187  1.399288 A    
C50   N4    1.383424 Am   
C242  H111  1.114793 S    
N4    C52   1.383334 Am   
C117  C119  1.408503 A    
O58   H91   1.013888 S    
C88   H32   1.082680 S    
C171  C215  1.399509 A    
C149  H57   1.077833 S    
C120  C122  1.407386 A    
C121  N7    1.380995 Am   
C216  H76   1.082104 S    
C177  C207  1.419481 A    
C116  C118  1.408172 A    
C197  C199  1.394424 A    
C66   C68   1.417553 A    
C15   C29   1.407788 A    
N10   C154  1.386705 Am   
C237  O64   1.398538 S    
C104  C128  1.403350 A    
C1    C173  1.473997 S    
C107  C139  1.418450 A    
C2    C174  1.474365 S    
C51   O16   1.222902 D    
O39   C228  1.290023 A    
O7    C3    1.293117 A    
C17   H3    1.082964 S    
C108  C110  1.417934 A    
C63   C65   1.422607 A    
C191  C193  1.406770 A    
C222  H82   1.077894 S    
C32   C58   1.403392 A    
C11   H17   1.082808 S    
C53   C55   1.391054 A    
Cr5   O50   1.961888 S    
C201  C203  1.420581 A    
N12   C196  1.383924 Am   
C70   H14   1.074852 S    
C123  O24   1.222337 D    
O49   Cr6   1.879683 S    
O38   Cr4   2.003998 S    
C87   H31   1.083137 S    
C105  C135  1.421644 A    
C143  C149  1.388865 A    
O45   Cr5   1.885086 S    
C58   H24   1.083191 S    
C193  O36   1.222036 D    
C210  C212  1.418898 A    
C175  C199  1.396921 A    
C176  C200  1.405101 A    
C49   N3    1.379408 Am   
C80   C96   1.415287 A    
C64   C70   1.414504 A    
C98   C142  1.401629 A    
C31   C55   1.407243 A    
C21   C27   1.411527 A    
O12   C6    1.300263 A    
C22   C28   1.407373 A    
N6    C92   1.458014 S    
C23   C25   1.398305 A    
O62   C236  1.409379 S    
C229  H85   1.109100 S    
C32   C226  1.470532 S    
C239  H101  1.109090 S    
C28   C72   1.398066 A    
C138  C140  1.425504 A    
C203  C205  1.409003 A    
C113  H39   1.083525 S    
C43   C51   1.407519 A    
C156  C164  1.403356 A    
C106  C112  1.413579 A    
O42   Cr5   2.001684 S    
C215  H75   1.083716 S    
O68   C240  1.414808 S    
C231  O54   1.399046 S    
C53   H9    1.082955 S    
C240  H106  1.109441 S    
C106  C110  1.419116 A    
C55   H7    1.082972 S    
C188  C196  1.414193 A    
O40   Cr4   1.879185 S    
C8    N2    1.384511 Am   
C4    O10   1.283033 A    
C175  C227  1.463665 S    
C4    C30   1.466301 S    
C88   C102  1.402970 A    
C13   H15   1.082874 S    
C208  C214  1.413963 A    
C71   H19   1.083788 S    
C217  C219  1.390105 A    
C60   H28   1.082802 S    
C85   C101  1.404698 A    
C233  O57   1.222697 D    
C33   C39   1.432359 A    
N5    C91   1.434011 S    
C84   H46   1.081706 S    
C198  O62   1.380781 S    
C116  C124  1.412799 A    
C99   C143  1.398785 A    
C190  C192  1.409717 A    
C81   C99   1.406252 A    
C104  C130  1.398108 A    
C121  O28   1.223189 D    
C114  C116  1.400889 A    
C200  H64   1.083609 S    
C78   H30   1.077088 S    
C158  C174  1.396976 A    
C159  H59   1.084018 S    
C25   H5    1.083873 S    
C172  C216  1.400597 A    
C26   H6    1.083633 S    
C135  C137  1.421013 A    
C229  H83   1.110172 S    
C180  C218  1.411152 A    
C140  C150  1.414261 A    
C125  C127  1.406151 A    
C34   C64   1.430976 A    
C152  N10   1.387294 Am   
C191  C219  1.399629 A    
O48   Cr6   1.888139 S    
C104  C224  1.470084 S    
C93   C95   1.406558 A    
C21   C23   1.408306 A    
C162  C234  1.485217 S    
C226  O47   1.286398 A    
C241  H107  1.114520 S    
C85   H43   1.082949 S    
O51   C229  1.409432 S    
N4    C62   1.446327 S    
C79   O22   1.222891 D    
N11   C205  1.441151 S    
O66   H100  1.013340 S    
C132  C134  1.405031 A    
C10   O19   1.223109 D    
C22   C66   1.424764 A    
C238  O66   1.397118 S    
C175  C201  1.417336 A    
N5    C81   1.378267 Am   
C166  C210  1.425669 A    
Cr4   O50   1.965661 S    
C35   C73   1.412480 A    
C13   C29   1.406471 A    
C197  C205  1.403230 A    
C207  C209  1.419384 A    
O70   C242  1.413736 S    
C5    C101  1.470370 S    
C90   H34   1.081944 S    
C6    C102  1.476373 S    
C239  H103  1.109382 S    
C112  C114  1.394334 A    
C39   C41   1.404974 A    
C217  H77   1.077126 S    
C198  C200  1.406677 A    
C157  C173  1.400821 A    
C202  C238  1.477670 S    
C187  C195  1.406784 A    
C63   C69   1.413598 A    
C36   C74   1.413714 A    
C194  O37   1.222263 D    
O41   Cr4   1.886181 S    
C53   C61   1.397496 A    
C113  C115  1.401397 A    
C34   C40   1.428938 A    
C95   C97   1.399455 A    
N12   C206  1.450213 S    
C236  H98   1.109308 S    
C96   C98   1.397900 A    
C192  C194  1.408945 A    
C83   C85   1.393424 A    
C194  N12   1.382785 Am   
C84   C86   1.388240 A    
N11   C195  1.380315 Am   
C132  H56   1.082933 S    
O1    Cr1   1.997766 S    
C201  C237  1.488364 S    
C177  C181  1.418341 A    
C151  C167  1.405921 A    
C178  C182  1.420037 A    
C67   C77   1.413636 A    
C80   N6    1.386816 Am   
C1    O5    1.289962 A    
C2    O6    1.288612 A    
C94   C138  1.427231 A    
C242  H110  1.110246 S    
N7    C123  1.379200 Am   
C144  H48   1.083501 S    
O7    Cr2   1.879057 S    
C18   H4    1.082285 S    
C169  C213  1.388956 A    
C155  C163  1.404979 A    
C145  C147  1.388258 A    
C179  C211  1.422333 A    
C46   C48   1.409317 A    
C48   C76   1.397239 A    
Cr2   O13   1.963474 S    
C8    C24   1.410470 A    
O4    C2    1.299567 A    
C122  O29   1.222961 D    
C118  C120  1.406611 A    
C161  C233  1.487142 S    
N6    C82   1.388003 Am   
C120  C148  1.398113 A    
C129  H51   1.082876 S    
C229  H84   1.113120 S    
C230  H86   1.113387 S    
O11   C5    1.294848 A    
C79   N5    1.380643 Am   
C122  N8    1.384434 Am   
C97   H35   1.084570 S    
O1    C5    1.289306 A    
C35   C67   1.412872 A    
C8    O15   1.222188 D    
O3    C1    1.295041 A    
O56   H90   1.013800 S    
C74   H22   1.077154 S    
C79   C95   1.402869 A    
C211  C221  1.413696 A    
C69   H13   1.074291 S    
C54   C62   1.404979 A    
C16   C18   1.404660 A    
C40   O70   1.390514 S    
C17   C19   1.397014 A    
C18   C20   1.411288 A    
C165  C167  1.409228 A    
C21   C65   1.421807 A    
C224  O43   1.285012 A    
N2    C10   1.385559 Am   
C115  C123  1.408364 A    
C204  C206  1.408002 A    
C179  C217  1.414120 A    
C50   O21   1.222943 D    
C68   C78   1.412942 A    
O46   Cr6   1.997229 S    
C162  C164  1.428355 A    
O5    Cr2   2.005375 S    
C236  H96   1.113656 S    
C129  C131  1.389142 A    
C235  H93   1.113576 S    
C199  H63   1.084518 S    
C31   C57   1.404812 A    
O39   Cr4   1.995890 S    
C143  H47   1.083668 S    
O44   Cr5   1.883632 S    
C12   C14   1.385584 A    
C40   C42   1.408520 A    
C218  H78   1.075686 S    
O2    C6    1.285562 A    
C59   H27   1.082891 S    
O60   H92   1.013959 S    
C203  O67   1.385762 S    
O52   C230  1.409456 S    
O41   C224  1.297398 A    
O64   H99   1.013937 S    
O54   H89   1.013666 S    
C177  C183  1.413283 A    
C232  O56   1.398691 S    
O6    Cr2   1.995805 S    
C153  C171  1.407658 A    
C49   O20   1.223531 D    
C15   C17   1.391970 A    
C165  C209  1.422712 A    
O44   C225  1.292658 A    
C185  H65   1.083585 S    
C160  H60   1.083307 S    
C135  C141  1.426463 A    
C145  H49   1.078235 S    
C43   C45   1.405211 A    
C103  C129  1.405889 A    
C183  C185  1.389571 A    
C36   C68   1.417024 A    
O47   Cr6   2.005702 S    
N1    C19   1.432667 S    
O48   C227  1.293989 A    
C235  H95   1.109319 S    
C157  H71   1.083040 S    
C208  C210  1.419483 A    
C11   C13   1.394857 A    
C87   C101  1.406382 A    
C7    N1    1.380797 Am   
C82   O27   1.222786 D    
C127  H37   1.082999 S    
C187  C189  1.410075 A    
C230  H88   1.109241 S    
C83   C91   1.399534 A    
C7    O14   1.223080 D    
C153  O34   1.222725 D    
C94   C100  1.406894 A    
C204  O68   1.387345 S    
O4    Cr1   1.879992 S    
C31   C225  1.471062 S    
C42   H12   1.081559 S    
C75   H25   1.083293 S    
C176  C202  1.418919 A    
C76   H26   1.083808 S    
C234  O60   1.398637 S    
C74   C76   1.384847 A    
C57   C59   1.394169 A    
C124  O25   1.221859 D    
C14   C30   1.402511 A    
C107  C145  1.412531 A    
C240  H105  1.115887 S    
C241  H109  1.105522 S    
Cr1   O13   1.965806 S    
C225  O46   1.289507 A    
C103  C223  1.476233 S    
C242  H112  1.109269 S    
O67   C239  1.415095 S    
C159  C161  1.400784 A    
C160  C162  1.417410 A    
N9    C163  1.444206 S    
C195  O32   1.222759 D    
C192  C220  1.401257 A    
C156  C158  1.388604 A    
O49   C228  1.300873 A    
C105  C111  1.411709 A    
C32   C56   1.402814 A    
C115  C117  1.411534 A    
C207  C213  1.413355 A    
C237  O63   1.222759 D    
C105  C109  1.417071 A    
O40   C223  1.298616 A    
C44   C52   1.411102 A    
C180  C212  1.421071 A    
C193  N11   1.381599 Am   
Cr6   O50   1.963801 S    
O8    C4    1.297574 A    
C170  C214  1.395974 A    
C136  C138  1.425988 A    
C90   C92   1.414653 A    
C114  H40   1.083404 S    
N7    C133  1.435038 S    
C88   C90   1.408689 A    
C112  H42   1.078979 S    
C213  H69   1.077883 S    
C152  C168  1.414226 A    
C150  H58   1.075957 S    
C183  H67   1.078188 S    
C26   C70   1.391010 A    
C82   C100  1.406411 A    
C166  C168  1.408076 A    
C176  C228  1.488164 S    
C60   C62   1.405048 A    
C16   H2    1.082775 S    
C81   O26   1.222627 D    
C241  H108  1.110123 S    
C159  C173  1.405147 A    
C214  H70   1.078325 S    
C160  C174  1.400851 A    
C54   C56   1.395815 A    
C59   C61   1.400382 A    
C22   C24   1.407849 A    
C103  C127  1.405982 A    
C72   H20   1.083534 S    
C216  C222  1.390812 A    
C239  H102  1.115465 S    
C137  C139  1.420200 A    
C11   C19   1.399161 A    
C184  C186  1.396143 A    
C38   C46   1.421945 A    
O45   C226  1.294355 A    
C119  C121  1.401735 A    
C126  C128  1.409621 A    
C154  O35   1.222793 D    
O11   Cr3   1.886167 S    
C170  H62   1.083360 S    
O69   C241  1.416773 S    
C218  C220  1.391476 A    
C146  H50   1.075732 S    
C42   C44   1.397818 A    
C98   H36   1.084621 S    
C44   C46   1.404594 A    
C33   C63   1.431465 A    
C142  C232  1.484254 S    
C155  C157  1.396789 A    
C186  H66   1.083463 S    
C73   H21   1.078934 S    
C111  C113  1.391719 A    
C178  C208  1.427641 A    
