data_mof_unit_57270.cif
_audit_creation_date              2012-12-10T19:44:59-0500
_audit_creation_method            fapswitch 2.2
_symmetry_space_group_name_H-M    P1
_symmetry_Int_Tables_number       1
_space_group_crystal_system       triclinic
_cell_length_a                    14.970604
_cell_length_b                    11.293816
_cell_length_c                    14.087486
_cell_angle_alpha                 89.102642
_cell_angle_beta                  86.536778
_cell_angle_gamma                 89.979209
_cell_volume                      2377.2034087

loop_
_atom_site_label
_atom_site_type_symbol
_atom_type_description
_atom_site_fract_x
_atom_site_fract_y
_atom_site_fract_z
_atom_type_partial_charge
C1    C     C_R   0.502072 0.260642 0.499862 0.843965
C2    C     C_R   0.544614 0.884056 0.675579 -0.192557
C3    C     C_R   0.628393 0.140391 0.277047 0.346523
C4    C     C_R   0.487157 0.843390 0.752165 0.274987
C5    C     C_R   0.638927 0.156574 0.177791 0.299324
C6    C     C_R   0.514388 0.850954 0.845848 0.139481
C7    C     C_R   0.561009 0.165839 0.125264 0.220438
C8    C     C_R   0.602103 0.888360 0.861664 0.213789
C9    C     C_R   0.555308 0.932651 0.416795 0.406678
C10   C     C_R   0.486984 0.052072 0.580946 0.292655
C11   C     C_R   0.524229 0.867174 0.499129 -0.149500
C12   C     C_R   0.508748 0.735758 0.499123 0.932403
C13   C     C_R   0.509869 0.122763 0.498561 -0.155253
C14   C     C_R   0.508205 0.929755 0.584796 0.046374
C15   C     C_R   0.540974 0.058634 0.415529 0.032082
C16   C     C_R   0.329625 0.500867 0.502637 0.868682
C17   C     C_R   0.671013 0.498113 0.497088 0.892117
C18   C     C_R   0.578403 0.497013 0.792886 0.485429
C19   C     C_R   0.424576 0.540881 0.209885 0.409755
C20   C     C_R   0.419418 0.497529 0.802949 0.521986
C21   C     C_R   0.579494 0.499498 0.195444 0.464257
C22   C     C_R   0.418521 0.517486 0.903795 -0.076701
C23   C     C_R   0.052012 0.278986 0.509670 0.330402
C24   C     C_R   0.577538 0.525215 0.095340 -0.105048
C25   C     C_R   0.498028 0.520656 0.948739 0.029642
C26   C     C_R   0.497517 0.518055 0.051247 0.055715
C27   C     C_R   0.578195 0.528420 0.891649 -0.206318
C28   C     C_R   0.417564 0.519482 0.109641 -0.159986
C29   C     C_R   0.338770 0.532373 0.962145 -0.005628
C30   C     C_R   0.653308 0.562787 0.037980 -0.018654
C31   C     C_R   0.336013 0.525872 0.062145 0.392592
C32   C     C_R   0.655885 0.561633 0.938153 0.431510
C33   C     C_R   0.816472 0.591225 0.458269 -0.077076
C34   C     C_R   0.956272 0.701792 0.442519 0.333572
C35   C     C_R   0.189245 0.393689 0.509733 -0.130739
C36   C     C_R   0.768757 0.490995 0.488644 -0.102416
C37   C     C_R   0.233060 0.501557 0.508394 -0.098497
C38   C     C_R   0.813625 0.384534 0.506325 0.448559
C39   C     C_R   0.186129 0.608173 0.504762 0.416653
C40   C     C_R   0.908675 0.381011 0.497835 -0.100585
C41   C     C_R   0.094711 0.605937 0.484669 -0.110496
C42   C     C_R   0.955607 0.490392 0.484036 -0.058694
C43   C     C_R   0.048909 0.495002 0.491212 -0.041616
C44   C     C_R   0.909232 0.595243 0.461753 -0.020607
C45   C     C_R   0.474169 0.155630 0.171746 0.177100
C46   C     C_R   0.096619 0.388661 0.505400 -0.005701
C47   C     C_R   0.959007 0.274389 0.503428 0.356616
C48   C     C_R   0.048302 0.707993 0.454529 0.353218
C49   C     C_R   0.662182 0.920030 0.784697 0.292403
C50   C     C_R   0.465722 0.117838 0.268557 0.162646
C51   C     C_R   0.635881 0.905064 0.691396 0.231445
C52   C     C_R   0.543827 0.115081 0.320872 -0.186031
Cl1   Cl    Cl    0.747507 0.263161 0.547359 -0.389662
Cl2   Cl    Cl    0.385685 0.772107 0.728894 -0.405606
Cl3   Cl    Cl    0.242686 0.738044 0.537535 -0.348989
Cl4   Cl    Cl    0.912610 0.132325 0.488243 -0.298988
Cl5   Cl    Cl    0.103767 0.840942 0.416869 -0.291450
Cl6   Cl    Cl    0.112292 0.144683 0.522829 -0.320357
Cl7   Cl    Cl    0.901051 0.829962 0.402311 -0.368155
Cl8   Cl    Cl    0.571763 0.181511 0.000243 -0.346641
Cl9   Cl    Cl    0.638186 0.888122 0.978897 -0.317696
Cl10  Cl    Cl    0.721677 0.139483 0.349316 -0.290590
Cu1   Cu    Cu3+1 0.500010 0.499980 0.597420 1.166945
Cu2   Cu    Cu3+1 0.499990 0.500020 0.402580 1.112436
H1    H     H_    0.779973 0.666997 0.434353 0.253825
H2    H     H_    0.817763 0.431995 0.155556 0.414494
H3    H     H_    0.207098 0.348012 0.055278 0.404113
H4    H     H_    0.881752 0.541269 0.826778 0.398164
H5    H     H_    0.352073 0.322786 0.225990 0.325098
H6    H     H_    0.852286 0.120191 0.729621 0.382665
H7    H     H_    0.340081 0.225586 0.406610 0.319631
H8    H     H_    0.862131 0.909508 0.595768 0.424937
H9    H     H_    0.833395 0.007055 0.065868 0.406898
H10   H     H_    0.298864 0.878207 0.908902 0.417107
H11   H     H_    0.228857 0.314233 0.514820 0.219011
H12   H     H_    0.276064 0.549349 0.930306 0.226322
H13   H     H_    0.711313 0.596383 0.070864 0.226733
H14   H     H_    0.758652 0.876165 0.260573 0.419281
H15   H     H_    0.481326 0.140365 0.780477 0.367943
H16   H     H_    0.756073 0.291072 0.841893 0.421342
H17   H     H_    0.240946 0.704306 0.306244 0.412133
H18   H     H_    0.201000 0.346537 0.838323 0.399253
N1    N     N_R   0.499960 0.499900 0.743810 -0.299125
N2    N     N_R   0.500040 0.500100 0.256190 -0.315769
O1    O     O_R   0.500000 0.319630 0.582270 -0.475566
O2    O     O_2   0.588980 0.900306 0.224937 -0.242590
O3    O     O_3   0.729946 0.904924 0.321077 -0.386860
O4    O     O_2   0.336372 0.167021 0.601905 -0.225503
O5    O     O_2   0.350029 0.009031 0.715694 -0.174603
O6    O     O_3   0.446019 0.193359 0.740470 -0.423362
O7    O     O_2   0.619966 0.291403 0.707445 -0.209684
O8    O     O_2   0.739250 0.441251 0.706921 -0.253157
O9    O     O_3   0.697312 0.325646 0.861952 -0.424310
O10   O     O_2   0.444956 0.765547 0.269990 -0.163562
O11   O     O_2   0.333166 0.739489 0.159254 -0.183698
O12   O     O_R   0.500000 0.680370 0.417730 -0.497866
O13   O     O_3   0.295789 0.669857 0.331263 -0.476325
O14   O     O_2   0.255737 0.535670 0.737673 -0.256628
O15   O     O_2   0.327735 0.348801 0.692585 -0.179985
O16   O     O_3   0.261797 0.361623 0.859524 -0.506537
O17   O     O_2   0.734467 0.569306 0.268220 -0.268710
O18   O     O_2   0.686228 0.365743 0.302594 -0.266205
O19   O     O_3   0.755834 0.415025 0.138603 -0.491032
O20   O     O_2   0.228069 0.487625 0.224092 -0.250627
O21   O     O_2   0.180686 0.635294 0.108512 -0.167102
O22   O     O_3   0.166134 0.415689 0.066970 -0.431604
O23   O     O_R   0.499990 0.319660 0.417730 -0.631057
O24   O     O_2   0.735537 0.665140 0.781064 -0.269680
O25   O     O_2   0.794419 0.711577 0.934776 -0.202514
O26   O     O_3   0.830781 0.506317 0.865671 -0.455012
O27   O     O_2   0.398851 0.274669 0.025320 -0.260122
O28   O     O_2   0.323798 0.095019 0.083502 -0.092563
O29   O     O_3   0.310469 0.278219 0.187919 -0.442839
O30   O     O_2   0.752520 0.068101 0.892050 -0.184773
O31   O     O_2   0.837226 0.905595 0.819239 -0.152122
O32   O     O_3   0.794820 0.084889 0.713047 -0.443123
O33   O     O_2   0.305586 0.006197 0.252227 -0.064926
O34   O     O_R   0.500010 0.680340 0.582270 -0.567859
O35   O     O_2   0.368229 0.982874 0.404490 -0.231335
O36   O     O_3   0.299887 0.184635 0.364674 -0.429847
O37   O     O_2   0.691965 0.784459 0.538641 -0.340163
O38   O     O_2   0.721161 0.996863 0.535012 -0.146611
O39   O     O_3   0.820312 0.857206 0.633868 -0.407817
O40   O     O_2   0.755235 0.222072 0.030178 -0.150590
O41   O     O_2   0.820237 0.191717 0.181910 -0.168587
O42   O     O_3   0.771240 0.006917 0.094258 -0.420466
O43   O     O_2   0.468939 0.765230 0.020344 -0.217172
O44   O     O_2   0.432079 0.968216 0.983219 -0.159579
O45   O     O_R   0.370260 0.499960 0.582280 -0.505083
O46   O     O_3   0.331439 0.803714 0.921235 -0.444026
O47   O     O_R   0.629740 0.500040 0.417720 -0.506063
O48   O     O_R   0.370250 0.499990 0.417740 -0.565838
O49   O     O_R   0.629750 0.500010 0.582260 -0.534703
O50   O     O_2   0.627262 0.732612 0.322477 -0.233345
S1    S     S_3+6 0.622720 0.864223 0.319460 0.104548
S2    S     S_3+6 0.764241 0.994216 0.805052 0.157624
S3    S     S_3+6 0.359170 0.068279 0.323002 0.171988
S4    S     S_3+6 0.718009 0.887259 0.596450 0.127053
S5    S     S_3+6 0.748973 0.148926 0.120047 0.195738
S6    S     S_3+6 0.435528 0.845522 0.944763 0.136525
S7    S     S_3+6 0.401699 0.103817 0.661504 0.123067
S8    S     S_3+6 0.660313 0.387778 0.762751 0.125504
S9    S     S_3+6 0.374899 0.681265 0.242380 0.169014
S10   S     S_3+6 0.315273 0.436993 0.768854 0.091241
S11   S     S_3+6 0.689458 0.462798 0.230463 0.034003
S12   S     S_3+6 0.226732 0.518163 0.120055 0.112668
S13   S     S_3+6 0.755069 0.615866 0.877304 0.085996
S14   S     S_3+6 0.376627 0.199831 0.112411 0.122167

loop_
_geom_bond_atom_site_label_1
_geom_bond_atom_site_label_2
_ccdc_geom_bond_type
H14   O3    S    
C40   C47   A    
C30   C32   A    
O11   S9    D    
C22   C29   A    
C17   O47   A    
C45   S14   S    
C41   C43   A    
C20   S10   S    
O40   S5    D    
O46   S6    S    
C50   S3    S    
C33   H1    S    
C48   Cl5   S    
C39   C41   A    
C32   S13   S    
O41   S5    D    
O39   S4    S    
O17   S11   D    
H7    O36   S    
O10   S9    D    
C7    C45   A    
O29   S14   S    
C35   C37   A    
C24   C26   A    
O18   S11   D    
C11   C14   A    
O31   S2    D    
H9    O42   S    
C33   C36   A    
O13   S9    S    
H15   O6    S    
C31   S12   S    
H16   O9    S    
C39   Cl3   S    
Cu2   O48   S    
C49   C51   A    
C22   C25   A    
C50   C52   A    
Cu2   O47   S    
C17   C36   S    
O8    S8    D    
C8    Cl9   S    
O7    S8    D    
O14   S10   D    
C40   C42   A    
C23   C46   A    
Cu1   O1    S    
C30   H13   S    
O25   S13   D    
C42   C44   A    
C16   O48   A    
C5    S5    S    
C1    O1    A    
O42   S5    S    
C23   C47   A    
O35   S3    D    
O20   S12   D    
O15   S10   D    
C18   S8    S    
C34   C44   A    
O38   S4    D    
C4    C6    A    
O16   S10   S    
C5    C7    A    
Cu1   O34   S    
C6    C8    A    
H6    O32   S    
C25   C26   A    
O28   S14   D    
Cu1   N1    S    
C10   S7    S    
C21   S11   S    
O37   S4    D    
C2    C4    A    
C19   C28   A    
O3    S1    S    
C21   N2    A    
C3    C52   A    
C35   H11   S    
C18   N1    A    
H4    O26   S    
C15   C52   S    
C16   O45   A    
C9    C11   A    
Cu2   O12   S    
C1    O23   A    
C12   O34   A    
C9    S1    S    
C49   S2    S    
C20   C22   A    
C13   C15   A    
H8    O39   S    
C17   O49   A    
C34   Cl7   S    
C21   C24   A    
C1    C13   S    
C42   C43   A    
C29   H12   S    
C19   N2    A    
Cu1   O49   S    
C7    Cl8   S    
O19   S11   S    
Cu2   O23   S    
C3    Cl10  S    
C19   S9    S    
C4    Cl2   S    
C27   C32   A    
C33   C44   A    
H18   O16   S    
H2    O19   S    
C28   C31   A    
O33   S3    D    
C18   C27   A    
C3    C5    A    
C10   C13   A    
C11   C12   S    
H3    O22   S    
O50   S1    D    
O32   S2    S    
C25   C27   A    
C16   C37   S    
C26   C28   A    
O22   S12   S    
Cu2   N2    S    
O24   S13   D    
H10   O46   S    
C9    C15   A    
C37   C39   A    
O27   S14   D    
C38   C40   A    
C38   Cl1   S    
H17   O13   S    
C45   C50   A    
O5    S7    D    
O21   S12   D    
C36   C38   A    
C41   C48   A    
O44   S6    D    
C23   Cl6   S    
Cu1   O45   S    
C6    S6    S    
C2    C14   S    
C43   C46   A    
C24   C30   A    
O6    S7    S    
C2    C51   A    
Cu1   Cu2   S    
C51   S4    S    
O2    S1    D    
H5    O29   S    
C34   C48   A    
C29   C31   A    
O43   S6    D    
C20   N1    A    
O30   S2    D    
C12   O12   A    
O36   S3    S    
O4    S7    D    
C35   C46   A    
C8    C49   A    
O9    S8    S    
O26   S13   S    
C10   C14   A    
C47   Cl4   S    
