data_mof_unit_34665.cif
_audit_creation_date              2012-12-11T14:14:56-0500
_audit_creation_method            fapswitch 2.2
_symmetry_space_group_name_H-M    P1
_symmetry_Int_Tables_number       1
_space_group_crystal_system       triclinic
_cell_length_a                    24.430522
_cell_length_b                    17.222629
_cell_length_c                    15.593067
_cell_angle_alpha                 89.708621
_cell_angle_beta                  129.006689
_cell_angle_gamma                 90.231124
_cell_volume                      5098.22976786

loop_
_atom_site_label
_atom_site_type_symbol
_atom_type_description
_atom_site_fract_x
_atom_site_fract_y
_atom_site_fract_z
_atom_type_partial_charge
C1    C     C_R   0.348663 0.362013 0.241809 -0.148046
C2    C     C_R   0.632207 0.690016 0.496302 -0.064514
C3    C     C_3   0.338551 0.036660 0.904455 -0.235350
C4    C     C_3   0.367362 0.958439 0.903783 -1.045488
C5    C     C_3   0.741410 0.031404 0.158766 0.115304
C6    C     C_3   0.661504 0.032545 0.092220 -0.233601
C7    C     C_3   0.632874 0.952412 0.087556 -1.045705
C8    C     C_R   0.865622 0.188420 0.502061 -0.095056
C9    C     C_R   0.132207 0.190016 0.496303 -0.064511
C10   C     C_R   0.353308 0.626652 0.135120 0.036878
C11   C     C_R   0.646290 0.626964 0.864084 0.032499
C12   C     C_R   0.853304 0.126647 0.135117 0.036845
C13   C     C_R   0.146290 0.126964 0.864084 0.032502
C14   C     C_2   0.645038 0.796659 0.406893 -0.341405
C15   C     C_2   0.353279 0.794189 0.591102 -0.332392
C16   C     C_2   0.145039 0.296659 0.406896 -0.341409
C17   C     C_R   0.650861 0.361631 0.757700 -0.144540
C18   C     C_2   0.853278 0.294189 0.591102 -0.332392
C19   C     C_2   0.654987 0.768494 0.496239 0.731270
C20   C     C_2   0.340454 0.765389 0.500301 0.732115
C21   C     C_2   0.154987 0.268493 0.496241 0.731267
C22   C     C_2   0.840453 0.265389 0.500301 0.732119
C23   C     C_2   0.197142 0.348136 0.417786 -0.021968
C24   C     C_2   0.801424 0.343288 0.582712 -0.041825
C25   C     C_2   0.697141 0.848136 0.417781 -0.021996
C26   C     C_2   0.301425 0.843288 0.582713 -0.041820
C27   C     C_2   0.265897 0.336502 0.500749 -0.127406
C28   C     C_R   0.848662 0.862014 0.241806 -0.148069
C29   C     C_2   0.732539 0.329143 0.504033 -0.139729
C30   C     C_2   0.765896 0.836505 0.500748 -0.127399
C31   C     C_2   0.232539 0.829143 0.504033 -0.139733
C32   C     C_2   0.644032 0.242397 0.846755 -0.191590
C33   C     C_2   0.354169 0.244416 0.150085 -0.186876
C34   C     C_2   0.144034 0.742397 0.846757 -0.191587
C35   C     C_2   0.854168 0.744418 0.150081 -0.186879
C36   C     C_2   0.698173 0.206085 0.862642 -0.134842
C37   C     C_2   0.300674 0.207148 0.135490 -0.137532
C38   C     C_2   0.198176 0.706086 0.862642 -0.134858
C39   C     C_R   0.150861 0.861631 0.757701 -0.144538
C40   C     C_2   0.800673 0.707149 0.135488 -0.137528
C41   C     C_2   0.309656 0.657524 0.022240 -0.182178
C42   C     C_2   0.689604 0.658085 0.976418 -0.183192
C43   C     C_2   0.809651 0.157516 0.022235 -0.182185
C44   C     C_2   0.189604 0.158085 0.976418 -0.183191
C45   C     C_R   0.613082 0.392406 0.408927 0.547368
C46   C     C_R   0.388673 0.391486 0.593926 0.526174
C47   C     C_R   0.113082 0.892406 0.408927 0.547370
C48   C     C_R   0.888673 0.891487 0.593926 0.526168
C49   C     C_2   0.239450 0.650803 0.953097 -0.077205
C50   C     C_R   0.414321 0.643288 0.593285 -0.125737
C51   C     C_2   0.759764 0.651620 0.045891 -0.076989
C52   C     C_2   0.739445 0.150801 0.953096 -0.077221
C53   C     C_2   0.259765 0.151620 0.045891 -0.076985
C54   C     C_R   0.686084 0.390917 0.592077 -0.236200
C55   C     C_R   0.314243 0.390555 0.409578 -0.235090
C56   C     C_R   0.186084 0.890917 0.592077 -0.236200
C57   C     C_R   0.814243 0.890555 0.409578 -0.235042
C58   C     C_R   0.559279 0.357303 0.756096 -0.138912
C59   C     C_R   0.439454 0.358632 0.241192 -0.132067
C60   C     C_R   0.059280 0.857303 0.756097 -0.138913
C61   C     C_R   0.584106 0.644481 0.406054 -0.185615
C62   C     C_R   0.939454 0.858633 0.241190 -0.132066
C63   C     C_R   0.380191 0.318137 0.209688 0.130183
C64   C     C_R   0.618508 0.316805 0.788031 0.141907
C65   C     C_R   0.880189 0.818138 0.209684 0.130186
C66   C     C_R   0.118509 0.816805 0.788032 0.141905
C67   C     C_R   0.679440 0.368952 0.501244 -0.065885
C68   C     C_R   0.321311 0.369488 0.501745 -0.039315
C69   C     C_R   0.179440 0.868953 0.501244 -0.065886
C70   C     C_R   0.821310 0.869489 0.501744 -0.039326
C71   C     C_R   0.340888 0.645283 0.409593 -0.074120
C72   C     C_R   0.914321 0.143288 0.593285 -0.125740
C73   C     C_R   0.657861 0.646321 0.589347 -0.092328
C74   C     C_R   0.840888 0.145282 0.409593 -0.074063
C75   C     C_R   0.157861 0.146321 0.589347 -0.092330
C76   C     C_R   0.423712 0.607820 0.197952 -0.252875
C77   C     C_R   0.575936 0.608000 0.801349 -0.251666
C78   C     C_R   0.923709 0.107818 0.197949 -0.252864
C79   C     C_R   0.075936 0.108000 0.801349 -0.251668
C80   C     C_R   0.667327 0.605298 0.803293 0.520749
C81   C     C_R   0.332567 0.605161 0.196578 0.518375
C82   C     C_R   0.167327 0.105299 0.803294 0.520749
C83   C     C_R   0.084106 0.144481 0.406054 -0.185615
C84   C     C_R   0.832566 0.105158 0.196578 0.518376
C85   C     C_3   0.630659 0.432283 0.284194 0.180821
C86   C     C_3   0.634180 0.519904 0.303819 -0.351907
C87   C     C_3   0.673070 0.562314 0.270212 -0.972581
C88   C     C_3   0.408326 0.349559 0.753459 0.112850
C89   C     C_3   0.360673 0.366496 0.783268 -0.220162
C90   C     C_3   0.353195 0.295562 0.834384 -0.903271
C91   C     C_3   0.130661 0.932284 0.284195 0.180819
C92   C     C_3   0.134185 0.019904 0.303826 -0.351911
C93   C     C_3   0.173079 0.062312 0.270225 -0.972589
C94   C     C_R   0.365622 0.688421 0.502061 -0.095022
C95   C     C_3   0.908325 0.849559 0.753459 0.112850
C96   C     C_3   0.860674 0.866496 0.783269 -0.220161
C97   C     C_3   0.853195 0.795562 0.834384 -0.903280
C98   C     C_3   0.758745 0.534067 0.838588 0.113069
C99   C     C_3   0.838551 0.536664 0.904449 -0.235356
C100  C     C_3   0.867362 0.458444 0.903774 -1.045480
C101  C     C_3   0.241415 0.531424 0.158823 0.115373
C102  C     C_3   0.161501 0.532560 0.092206 -0.233446
C103  C     C_3   0.132897 0.452448 0.087715 -1.045456
C104  C     C_3   0.258744 0.034067 0.838585 0.113069
F1    F     F_    0.696917 0.806763 0.594103 -0.724438
F2    F     F_    0.293509 0.800844 0.400561 -0.720378
F3    F     F_    0.196918 0.306762 0.594105 -0.724440
F4    F     F_    0.793508 0.300844 0.400560 -0.720379
H1    H     H_    0.300139 0.350095 0.227320 0.099561
H2    H     H_    0.713780 0.286065 0.440337 0.181518
H3    H     H_    0.425721 0.961359 0.957662 0.275508
H4    H     H_    0.346772 0.944072 0.818920 0.258778
H5    H     H_    0.766181 0.012754 0.244275 0.125586
H6    H     H_    0.753986 0.989303 0.119262 0.107205
H7    H     H_    0.647724 0.074151 0.130249 0.208312
H8    H     H_    0.635929 0.052392 0.006654 0.192716
H9    H     H_    0.648163 0.909060 0.053527 0.269645
H10   H     H_    0.574492 0.954727 0.033522 0.275013
H11   H     H_    0.653259 0.933933 0.171180 0.259254
H12   H     H_    0.782107 0.794550 0.564599 0.158164
H13   H     H_    0.213780 0.786066 0.440337 0.181518
H14   H     H_    0.212082 0.614408 0.971870 0.173119
H15   H     H_    0.787342 0.615402 0.027749 0.174315
H16   H     H_    0.712077 0.114413 0.971873 0.173124
H17   H     H_    0.287342 0.115401 0.027749 0.174314
H18   H     H_    0.720056 0.226765 0.824017 0.134407
H19   H     H_    0.279091 0.226987 0.174680 0.134736
H20   H     H_    0.220058 0.726767 0.824016 0.134409
H21   H     H_    0.699587 0.349991 0.773002 0.098363
H22   H     H_    0.779092 0.726988 0.174679 0.134741
H23   H     H_    0.335575 0.693406 0.999635 0.131662
H24   H     H_    0.663479 0.693842 0.998318 0.132023
H25   H     H_    0.835571 0.193392 0.999625 0.131666
H26   H     H_    0.163479 0.193842 0.998318 0.132015
H27   H     H_    0.623384 0.221707 0.887421 0.136914
H28   H     H_    0.374359 0.224636 0.108609 0.140184
H29   H     H_    0.123387 0.721706 0.887424 0.136918
H30   H     H_    0.874357 0.724638 0.108604 0.140184
H31   H     H_    0.733727 0.389873 0.676702 0.126013
H32   H     H_    0.800137 0.850097 0.227316 0.099589
H33   H     H_    0.266149 0.390288 0.325401 0.120503
H34   H     H_    0.233727 0.889873 0.676702 0.126012
H35   H     H_    0.766149 0.890290 0.325402 0.120461
H36   H     H_    0.521937 0.338210 0.766341 0.102737
H37   H     H_    0.475145 0.340757 0.226764 0.166420
H38   H     H_    0.021938 0.838209 0.766341 0.102736
H39   H     H_    0.975144 0.840758 0.226762 0.166419
H40   H     H_    0.302389 0.664351 0.325674 0.194243
H41   H     H_    0.695855 0.665963 0.672905 0.189018
H42   H     H_    0.802388 0.164350 0.325674 0.194246
H43   H     H_    0.199588 0.849992 0.773002 0.098364
H44   H     H_    0.195856 0.165963 0.672905 0.189018
H45   H     H_    0.453464 0.605808 0.168196 0.129476
H46   H     H_    0.545982 0.606044 0.830778 0.139523
H47   H     H_    0.953462 0.105805 0.168193 0.129477
H48   H     H_    0.045982 0.106044 0.830778 0.139523
H49   H     H_    0.443884 0.658745 0.678751 0.103011
H50   H     H_    0.553663 0.660729 0.320570 0.112366
H51   H     H_    0.943884 0.158746 0.678751 0.103014
H52   H     H_    0.053662 0.160730 0.320570 0.112365
H53   H     H_    0.606991 0.770576 0.326372 0.100944
H54   H     H_    0.179992 0.385788 0.348972 0.115760
H55   H     H_    0.394934 0.771127 0.672419 0.101561
H56   H     H_    0.106992 0.270576 0.326375 0.100948
H57   H     H_    0.894934 0.271127 0.672418 0.101560
H58   H     H_    0.607707 0.423143 0.196849 0.147638
H59   H     H_    0.684157 0.407095 0.334078 0.162233
H60   H     H_    0.579805 0.543243 0.254940 0.209437
H61   H     H_    0.662519 0.530733 0.392837 0.205061
H62   H     H_    0.727757 0.540046 0.318424 0.280700
H63   H     H_    0.675273 0.625357 0.286839 0.263552
H64   H     H_    0.645196 0.554328 0.180749 0.265377
H65   H     H_    0.819630 0.384060 0.648664 0.118657
H66   H     H_    0.462747 0.343672 0.832428 0.119953
H67   H     H_    0.395265 0.292579 0.710868 0.066907
H68   H     H_    0.383386 0.415275 0.843071 0.186667
H69   H     H_    0.307910 0.384980 0.708613 0.262688
H70   H     H_    0.329075 0.246479 0.775104 0.273351
H71   H     H_    0.318770 0.310005 0.855665 0.284892
H72   H     H_    0.405555 0.277521 0.910850 0.237886
H73   H     H_    0.107707 0.923146 0.196849 0.147636
H74   H     H_    0.184156 0.907092 0.334076 0.162237
H75   H     H_    0.079812 0.043247 0.254947 0.209437
H76   H     H_    0.679991 0.885785 0.348964 0.115788
H77   H     H_    0.162523 0.030730 0.392844 0.205064
H78   H     H_    0.227765 0.040041 0.318437 0.280704
H79   H     H_    0.175285 0.125354 0.286856 0.263556
H80   H     H_    0.145207 0.054329 0.180762 0.265379
H81   H     H_    0.962747 0.843672 0.832427 0.119952
H82   H     H_    0.895264 0.792579 0.710867 0.066905
H83   H     H_    0.883388 0.915275 0.843073 0.186667
H84   H     H_    0.807911 0.884981 0.708615 0.262686
H85   H     H_    0.829074 0.746480 0.775103 0.273351
H86   H     H_    0.818771 0.810005 0.855666 0.284892
H87   H     H_    0.319631 0.884060 0.648665 0.118659
H88   H     H_    0.905555 0.777520 0.910850 0.237887
H89   H     H_    0.733789 0.517314 0.752518 0.125537
H90   H     H_    0.746747 0.489954 0.877299 0.107708
H91   H     H_    0.851827 0.581551 0.868626 0.203942
H92   H     H_    0.864348 0.552939 0.991219 0.195283
H93   H     H_    0.852361 0.411893 0.935086 0.269453
H94   H     H_    0.925721 0.461366 0.957653 0.275504
H95   H     H_    0.846772 0.444080 0.818910 0.258776
H96   H     H_    0.266163 0.512827 0.244349 0.125598
H97   H     H_    0.254022 0.489280 0.119397 0.107137
H98   H     H_    0.282109 0.294544 0.564597 0.158159
H99   H     H_    0.147676 0.574258 0.130096 0.208289
H100  H     H_    0.135944 0.552295 0.006587 0.192589
H101  H     H_    0.148247 0.409006 0.053852 0.269541
H102  H     H_    0.074508 0.454742 0.033600 0.274977
H103  H     H_    0.153250 0.434098 0.171379 0.259209
H104  H     H_    0.233792 0.017318 0.752516 0.125536
H105  H     H_    0.246741 0.989951 0.877288 0.107710
H106  H     H_    0.351832 0.081548 0.868638 0.203941
H107  H     H_    0.364345 0.052934 0.991225 0.195282
H108  H     H_    0.352360 0.911891 0.935096 0.269455
N1    N     N_R   0.389060 0.424180 0.294540 -0.060477
N2    N     N_R   0.374530 0.423490 0.443400 -0.068589
N3    N     N_R   0.125470 0.923490 0.556600 -0.069025
N4    N     N_R   0.874530 0.923490 0.443400 -0.068592
N5    N     N_R   0.555250 0.423100 0.705420 -0.039300
N6    N     N_R   0.444750 0.423100 0.294580 -0.039398
N7    N     N_R   0.055250 0.923100 0.705420 -0.039300
N8    N     N_R   0.944750 0.923100 0.294580 -0.039399
N9    N     N_R   0.375210 0.577180 0.443400 -0.058775
N10   N     N_R   0.624790 0.577180 0.556600 -0.058604
N11   N     N_R   0.875210 0.077180 0.443400 -0.058760
N12   N     N_R   0.610940 0.424180 0.705460 -0.060826
N13   N     N_R   0.124790 0.077180 0.556600 -0.058605
N14   N     N_R   0.445430 0.577570 0.294580 -0.056220
N15   N     N_R   0.554570 0.577570 0.705420 -0.058044
N16   N     N_R   0.945430 0.077570 0.294580 -0.056222
N17   N     N_R   0.054570 0.077570 0.705420 -0.058044
N18   N     N_R   0.611620 0.576500 0.705460 -0.107461
N19   N     N_R   0.388380 0.576500 0.294540 -0.107685
N20   N     N_R   0.111620 0.076500 0.705460 -0.107462
N21   N     N_R   0.888380 0.076500 0.294540 -0.107676
N22   N     N_R   0.421010 0.576890 0.556640 -0.020826
N23   N     N_R   0.889060 0.924180 0.294540 -0.060479
N24   N     N_R   0.578990 0.576890 0.443360 -0.035701
N25   N     N_R   0.921010 0.076890 0.556640 -0.020829
N26   N     N_R   0.078990 0.076890 0.443360 -0.035701
N27   N     N_R   0.110940 0.924180 0.705460 -0.060826
N28   N     N_R   0.579670 0.423790 0.443360 -0.084383
N29   N     N_R   0.420330 0.423790 0.556640 -0.079824
N30   N     N_R   0.079670 0.923790 0.443360 -0.084383
N31   N     N_R   0.920330 0.923790 0.556640 -0.079827
N32   N     N_R   0.625470 0.423490 0.556600 -0.069024
Ni1   Ni    Ni4+2 0.383200 0.500680 0.370150 0.202286
Ni2   Ni    Ni4+2 0.616800 0.500680 0.629850 0.193918
Ni3   Ni    Ni4+2 0.883200 0.000680 0.370150 0.202304
Ni4   Ni    Ni4+2 0.116800 0.000680 0.629850 0.193916
Ni5   Ni    Ni4+2 0.512440 0.500680 0.370150 0.223447
Ni6   Ni    Ni4+2 0.487560 0.500680 0.629850 0.256166
Ni7   Ni    Ni4+2 0.012440 0.000680 0.370150 0.223445
Ni8   Ni    Ni4+2 0.987560 0.000680 0.629850 0.256166
O1    O     O_3   0.585909 0.393884 0.299411 -0.702780
O2    O     O_3   0.406947 0.413442 0.694572 -0.663325
O3    O     O_3   0.085909 0.893885 0.299411 -0.702780
O4    O     O_3   0.906947 0.913442 0.694572 -0.663323
O5    O     O_3   0.735820 0.608440 0.840733 -0.696163
O6    O     O_3   0.264036 0.606888 0.159055 -0.693557
O7    O     O_3   0.235820 0.108439 0.840733 -0.696164
O8    O     O_3   0.764036 0.106877 0.159061 -0.693552

loop_
_geom_bond_atom_site_label_1
_geom_bond_atom_site_label_2
_ccdc_geom_bond_type
C3    C104  S    
C46   O2    S    
C13   C79   A    
C101  C102  S    
C55   H33   S    
C82   N20   A    
C5    H6    S    
C86   H61   S    
C51   H15   S    
C7    H9    S    
N9    N22   A    
C95   C96   S    
C28   H32   S    
N14   Ni5   S    
N18   Ni2   S    
C90   H70   S    
C55   C68   A    
C71   C94   A    
C85   C86   S    
C16   H56   S    
C3    H106  S    
C5    C6    S    
C83   N26   A    
N24   Ni5   S    
C16   C21   D    
C72   H51   S    
C60   H38   S    
N22   Ni6   S    
C4    H108  S    
C85   H58   S    
C32   C36   D    
C96   H83   S    
C15   H55   S    
C62   N8    A    
C104  H105  S    
C12   C43   S    
C17   C64   A    
C73   N10   A    
C17   N12   A    
C78   H47   S    
N30   Ni7   S    
C49   H14   S    
C3    H107  S    
C39   H43   S    
C76   H45   S    
N1    N6    A    
C88   H66   S    
C12   C84   A    
C11   C42   S    
C75   N13   A    
C97   H85   S    
C43   H25   S    
N15   Ni6   S    
C24   C29   D    
C47   C69   A    
C20   C94   S    
C27   C68   S    
C11   C77   A    
N17   Ni8   S    
C1    H1    S    
C79   H48   S    
C29   C67   S    
C100  H94   S    
C44   C53   D    
C58   N5    A    
C1    C63   A    
C83   H52   S    
C84   N21   A    
C47   O3    S    
C12   C78   A    
C99   H92   S    
C45   C67   A    
C5    O8    S    
C8    C22   S    
C81   N19   A    
N17   N20   A    
C104  O7    S    
C89   H69   S    
C57   C70   A    
C102  H99   S    
C39   N27   A    
C95   H82   S    
C2    C61   A    
C88   O2    S    
C42   C51   D    
C23   H54   S    
C37   C53   S    
C93   H78   S    
C71   H40   S    
C4    H4    S    
C60   C66   A    
C26   C31   D    
C34   C38   D    
C101  O6    S    
C10   C41   S    
C44   H26   S    
N26   Ni7   S    
C71   N9    A    
C7    H10   S    
C103  H101  S    
C95   O4    S    
N16   Ni7   S    
N1    Ni1   S    
N20   Ni4   S    
C26   H87   S    
N7    Ni8   S    
C103  H102  S    
C41   C49   D    
C34   C66   S    
C30   C70   S    
C18   H57   S    
N32   Ni2   S    
C55   N2    A    
C20   F2    S    
C98   H89   S    
C50   H49   S    
C58   C64   A    
C15   C20   D    
C90   H72   S    
C77   N15   A    
N10   N24   A    
C57   H35   S    
C17   H21   S    
C85   H59   S    
N2    N29   A    
C80   N18   A    
C29   H2    S    
C50   N22   A    
C86   H60   S    
C28   N23   A    
C32   C64   S    
N7    N27   A    
C91   C92   S    
C41   H23   S    
C35   C65   S    
C98   H90   S    
C86   C87   S    
C50   C94   A    
C15   C26   S    
C54   C67   A    
C87   H62   S    
N23   Ni3   S    
C13   C82   A    
C92   H75   S    
C33   C37   D    
N28   N32   A    
C97   H86   S    
C46   C68   A    
C74   N11   A    
C56   N3    A    
C59   N6    A    
C7    H11   S    
C77   H46   S    
C61   N24   A    
C100  H93   S    
C31   C69   S    
C38   H20   S    
C54   H31   S    
N5    N12   A    
C33   H28   S    
C75   H44   S    
C33   C63   S    
C87   H63   S    
C96   C97   S    
C34   H29   S    
C8    C74   A    
N3    N30   A    
N14   N19   A    
N25   Ni8   S    
C88   C89   S    
C88   H67   S    
C45   N28   A    
C6    H8    S    
C21   F3    S    
C2    C73   A    
C53   H17   S    
C9    C83   A    
C59   H37   S    
N4    N31   A    
C56   C69   A    
C16   C23   S    
C23   C27   D    
N3    Ni4   S    
C91   H73   S    
C76   N14   A    
N16   N21   A    
C39   C66   A    
C18   C24   S    
N4    Ni3   S    
N19   Ni1   S    
C79   N17   A    
C103  H103  S    
C3    C4    S    
C60   N7    A    
C93   H79   S    
C38   C49   S    
C97   H88   S    
N11   Ni3   S    
N6    Ni5   S    
C25   C30   D    
N10   Ni2   S    
C42   H24   S    
C40   H22   S    
C90   H71   S    
C48   O4    S    
N9    Ni1   S    
N27   Ni4   S    
C92   H77   S    
C62   C65   A    
C5    H5    S    
C2    C19   S    
C18   C22   D    
C8    C72   A    
C10   C76   A    
C72   N25   A    
C4    H3    S    
C36   H18   S    
C80   O5    S    
C46   N29   A    
C48   C70   A    
C101  H96   S    
C36   C52   S    
N11   N25   A    
C32   H27   S    
C101  H97   S    
C25   H76   S    
C102  H100  S    
C45   O1    S    
C6    C7    S    
C57   N4    A    
C48   N31   A    
C40   C51   S    
N29   Ni6   S    
C10   C81   A    
C59   C63   A    
N28   Ni5   S    
C99   C100  S    
C62   H39   S    
C27   H98   S    
C96   H84   S    
C14   H53   S    
C28   C65   A    
C74   H42   S    
C56   H34   S    
C35   H30   S    
C61   H50   S    
N31   Ni8   S    
N13   N26   A    
C52   H16   S    
C98   O5    S    
C9    C21   S    
N5    Ni6   S    
C30   H12   S    
C54   N32   A    
C22   F4    S    
C87   H64   S    
C14   C19   D    
C92   C93   S    
C100  H95   S    
C35   C40   D    
N15   N18   A    
C47   N30   A    
C14   C25   S    
C102  C103  S    
C43   C52   D    
N8    N23   A    
C6    H7    S    
N13   Ni4   S    
C91   O3    S    
C11   C80   A    
C95   H81   S    
N21   Ni3   S    
C93   H80   S    
C58   H36   S    
C81   O6    S    
N2    Ni1   S    
C19   F1    S    
C98   C99   S    
C73   H41   S    
C91   H74   S    
C99   H91   S    
C82   O7    S    
C104  H104  S    
C84   O8    S    
C1    N1    A    
C9    C75   A    
C89   H68   S    
C85   O1    S    
C89   C90   S    
C31   H13   S    
C78   N16   A    
C13   C44   S    
N8    Ni7   S    
C24   H65   S    
C37   H19   S    
N12   Ni2   S    
