data_mof_unit_23350.cif
_audit_creation_date              2013-03-05T16:11:10-0500
_audit_creation_method            fapswitch 2.2
_symmetry_space_group_name_H-M    P1
_symmetry_Int_Tables_number       1
_space_group_crystal_system       triclinic
_cell_length_a                    18.088616
_cell_length_b                    18.114352
_cell_length_c                    18.131335
_cell_angle_alpha                 120.154373
_cell_angle_beta                  90.080882
_cell_angle_gamma                 60.034881
_cell_volume                      4196.26718532

loop_
_atom_site_label
_atom_site_type_symbol
_atom_site_description
_atom_site_fract_x
_atom_site_fract_y
_atom_site_fract_z
_atom_type_partial_charge
Zn1   Zn    Zn3+2 0.618190 0.587870 0.793920 1.043613
Zn2   Zn    Zn3+2 0.381810 0.412130 0.206080 1.003911
Zn3   Zn    Zn3+2 0.793940 0.412090 0.793920 1.016431
Zn4   Zn    Zn3+2 0.206060 0.587910 0.206080 1.031805
Zn5   Zn    Zn3+2 0.793970 0.587840 0.793920 1.025893
Zn6   Zn    Zn3+2 0.206030 0.412160 0.206080 1.031919
Zn7   Zn    Zn3+2 0.793940 0.412130 0.618200 1.067336
Zn8   Zn    Zn3+2 0.206060 0.587870 0.381800 1.047655
O1    O     O_3   0.750010 0.499980 0.749990 -0.535616
O2    O     O_3   0.249990 0.500020 0.250010 -0.539249
O3    O     O_R   0.867280 0.265410 0.571220 -0.631458
O4    O     O_R   0.132720 0.734590 0.428780 -0.632510
O5    O     O_R   0.571230 0.734580 0.867270 -0.625694
O6    O     O_R   0.428770 0.265420 0.132730 -0.615235
O7    O     O_R   0.694200 0.438470 0.867270 -0.643178
O8    O     O_R   0.305800 0.561530 0.132730 -0.631166
O9    O     O_R   0.867340 0.561470 0.694210 -0.629758
O10   O     O_R   0.132660 0.438530 0.305790 -0.597855
O11   O     O_R   0.867310 0.438430 0.867270 -0.629514
O12   O     O_R   0.132690 0.561570 0.132730 -0.613308
O13   O     O_R   0.694200 0.438520 0.571220 -0.592674
O14   O     O_R   0.305800 0.561480 0.428780 -0.582270
O15   O     O_R   0.867340 0.561440 0.867270 -0.659660
O16   O     O_R   0.132660 0.438560 0.132730 -0.637655
O17   O     O_R   0.571190 0.561530 0.694210 -0.639806
O18   O     O_R   0.428810 0.438470 0.305790 -0.659139
O19   O     O_R   0.571190 0.561490 0.867270 -0.605982
O20   O     O_R   0.428810 0.438510 0.132730 -0.595606
O21   O     O_R   0.867310 0.438490 0.571220 -0.611863
O22   O     O_R   0.132690 0.561510 0.428780 -0.591383
O23   O     O_R   0.867280 0.265380 0.694210 -0.634291
O24   O     O_R   0.132720 0.734620 0.305790 -0.618403
O25   O     O_R   0.694250 0.734550 0.867270 -0.603567
O26   O     O_R   0.305750 0.265450 0.132730 -0.604477
C1    C     C_R   0.891730 0.217007 0.608386 0.882726
C2    C     C_R   0.109170 0.783028 0.391601 0.893571
C3    C     C_R   0.608610 0.782884 0.890673 0.912957
C4    C     C_R   0.391604 0.217013 0.109442 0.861331
C5    C     C_R   0.608244 0.500049 0.891529 0.847578
C6    C     C_R   0.391748 0.499774 0.108338 0.851572
C7    C     C_R   0.890288 0.501149 0.608779 1.011019
C8    C     C_R   0.109007 0.499672 0.391417 0.968955
C9    C     C_R   0.891756 0.499908 0.891287 0.871026
C10   C     C_R   0.108531 0.499837 0.108402 0.860036
C11   C     C_R   0.608559 0.499897 0.608526 0.932950
C12   C     C_R   0.391534 0.497777 0.391385 0.836857
C13   C     C_3   0.585174 0.411834 0.450293 0.482022
C14   C     C_3   0.416047 0.577411 0.550045 0.415376
C15   C     C_3   0.531527 0.496059 0.432145 -0.492975
C16   C     C_3   0.470549 0.492551 0.567201 -0.392701
H1    H     H_    0.555751 0.496400 0.376205 0.185214
H2    H     H_    0.446695 0.491030 0.622482 0.198103
C17   C     C_3   0.449170 0.492227 0.447776 -0.260609
C18   C     C_3   0.551684 0.497118 0.551545 -0.195101
C19   C     C_3   0.504619 0.407057 0.464528 0.436576
C20   C     C_3   0.496846 0.581276 0.534648 0.414946
C21   C     C_3   0.452796 0.966914 0.958217 0.300164
C22   C     C_3   0.548959 0.032674 0.042891 0.279103
C23   C     C_3   0.471862 0.036170 0.948657 -0.436216
C24   C     C_3   0.529914 0.962959 0.052070 -0.491025
H3    H     H_    0.447691 0.066730 0.907347 0.196120
H4    H     H_    0.554939 0.931300 0.092481 0.204620
C25   C     C_3   0.449279 0.103016 0.052997 -0.215791
C26   C     C_3   0.551860 0.896770 0.948088 -0.213624
C27   C     C_3   0.429989 0.033238 0.060919 0.441462
C28   C     C_3   0.571674 0.966154 0.940093 0.467760
C29   C     C_3   0.046363 0.411269 0.492411 0.081980
C30   C     C_3   0.952524 0.591177 0.508841 0.184821
C31   C     C_3   0.071240 0.490168 0.527505 0.075784
C32   C     C_3   0.927401 0.513436 0.474285 0.111670
C33   C     C_3   0.052060 0.500414 0.448756 -0.312644
C34   C     C_3   0.946169 0.502287 0.552376 -0.355853
C35   C     C_3   0.026502 0.421972 0.414429 0.335466
C36   C     C_3   0.971032 0.581847 0.587864 0.346028
C37   C     C_3   0.982542 0.034423 0.446422 -0.229916
C38   C     C_3   0.020721 0.965921 0.553500 -0.236966
C39   C     C_3   0.957609 0.964369 0.448200 -0.276021
C40   C     C_3   0.045418 0.036161 0.551804 -0.283103
H5    H     H_    0.921532 0.934178 0.406721 0.190164
H6    H     H_    0.081227 0.066652 0.593487 0.185341
H7    H     H_    0.967915 0.063129 0.403014 0.184567
H8    H     H_    0.035609 0.937148 0.596855 0.197633
C41   C     C_3   0.053201 0.897259 0.448944 -0.121385
C42   C     C_3   0.950031 0.102873 0.550819 -0.102813
C43   C     C_3   0.077013 0.966690 0.447836 0.382359
C44   C     C_3   0.926337 0.033703 0.552047 0.393114
C45   C     C_3   0.924221 0.524358 0.041231 0.379390
C46   C     C_3   0.076467 0.475260 0.958000 0.371635
C47   C     C_3   0.956419 0.596212 0.078662 -0.247832
C48   C     C_3   0.044235 0.403334 0.920540 -0.277309
H9    H     H_    0.920506 0.674218 0.144393 0.186279
H10   H     H_    0.079823 0.325328 0.854843 0.193712
C49   C     C_3   0.051203 0.499669 0.051480 -0.114187
C50   C     C_3   0.949472 0.499893 0.947779 -0.116372
C51   C     C_3   0.017872 0.428346 0.015982 -0.230819
C52   C     C_3   0.982828 0.571176 0.983208 -0.239841
H11   H     H_    0.031394 0.371360 0.031110 0.202898
H12   H     H_    0.969494 0.628036 0.967979 0.183066
C53   C     C_3   0.550812 0.403947 0.919674 -0.325285
C54   C     C_3   0.449283 0.595338 0.079879 -0.324278
C55   C     C_3   0.445681 0.475812 0.957028 -0.305569
C56   C     C_3   0.554450 0.523375 0.042561 -0.309056
H13   H     H_    0.399928 0.457348 0.923799 0.196109
H14   H     H_    0.600498 0.541282 0.075687 0.193733
H15   H     H_    0.593504 0.326160 0.853835 0.188407
H16   H     H_    0.406364 0.673291 0.145551 0.190345
C57   C     C_3   0.449196 0.499384 0.050975 -0.072082
C58   C     C_3   0.550855 0.500013 0.948622 -0.069232
C59   C     C_3   0.552729 0.428703 0.014007 0.570280
C60   C     C_3   0.447299 0.570552 0.985582 0.572695
N1    N     N_R   0.160215 0.932124 0.391308 0.200217
O27   O     O_R   0.170156 0.001071 0.397373 -0.365594
O28   O     O_R   0.225941 0.833403 0.337275 -0.433938
N2    N     N_R   0.841817 0.073776 0.610817 0.217062
O29   O     O_R   0.842382 0.057128 0.672775 -0.413372
O30   O     O_R   0.765221 0.129449 0.603573 -0.391062
N3    N     N_R   0.838600 0.552279 0.085936 0.216224
O31   O     O_R   0.837421 0.494470 0.107721 -0.373350
O32   O     O_R   0.762871 0.635140 0.103952 -0.400278
N4    N     N_R   0.161382 0.448945 0.913565 0.193171
O33   O     O_R   0.181832 0.516017 0.950014 -0.413405
O34   O     O_R   0.216115 0.359348 0.836332 -0.372358
O35   O     O_3   0.603084 0.355333 0.033742 -0.618470
C61   C     C_3   0.696003 0.295896 0.986538 0.090939
H17   H     H_    0.719409 0.347396 0.005102 0.167444
H18   H     H_    0.709631 0.249876 0.912186 0.161392
C62   C     C_3   0.749332 0.219970 0.011745 -0.308177
H19   H     H_    0.736860 0.264916 0.085803 0.236439
H20   H     H_    0.725738 0.169039 0.994852 0.242242
C63   C     C_3   0.850716 0.151625 0.961443 -0.950470
H21   H     H_    0.864828 0.105230 0.887183 0.281263
H22   H     H_    0.887321 0.096865 0.980616 0.262896
H23   H     H_    0.876253 0.200849 0.979342 0.283714
O36   O     O_3   0.396045 0.644539 0.966717 -0.626416
C64   C     C_3   0.302994 0.697862 0.009050 0.085966
H24   H     H_    0.285716 0.742494 0.083910 0.157362
H25   H     H_    0.283675 0.642161 0.985235 0.176801
C65   C     C_3   0.248620 0.774447 0.984819 -0.316017
H26   H     H_    0.267579 0.830195 0.007167 0.245700
H27   H     H_    0.265048 0.730338 0.910178 0.231303
C66   C     C_3   0.147024 0.835620 0.029414 -0.949624
H28   H     H_    0.126228 0.781482 0.006424 0.281399
H29   H     H_    0.109676 0.890405 0.010418 0.264028
H30   H     H_    0.128854 0.881432 0.104210 0.273283
O37   O     O_3   0.675711 0.322963 0.403549 -0.597946
C67   C     C_3   0.695693 0.275879 0.309709 0.124819
H31   H     H_    0.708127 0.321061 0.293261 0.153303
H32   H     H_    0.639873 0.272160 0.286167 0.159937
C68   C     C_3   0.780936 0.164256 0.259582 -0.293816
H33   H     H_    0.835181 0.164881 0.288109 0.225472
H34   H     H_    0.765997 0.116671 0.269456 0.251689
C69   C     C_3   0.814554 0.113988 0.158546 -0.931643
H35   H     H_    0.761772 0.111447 0.128284 0.315962
H36   H     H_    0.875971 0.032879 0.124235 0.271014
H37   H     H_    0.832253 0.158879 0.147269 0.257436
O38   O     O_3   0.324259 0.663038 0.597430 -0.611782
C70   C     C_3   0.311246 0.727711 0.689814 0.126443
H38   H     H_    0.349586 0.762435 0.698650 0.201738
H39   H     H_    0.333025 0.683159 0.720260 0.147296
C71   C     C_3   0.210480 0.816030 0.739566 -0.361031
H40   H     H_    0.185598 0.855717 0.705103 0.236927
H41   H     H_    0.172305 0.782675 0.737483 0.238787
C72   C     C_3   0.192422 0.896664 0.837901 -0.864479
H42   H     H_    0.219278 0.858732 0.873362 0.271810
H43   H     H_    0.118387 0.956655 0.873028 0.254431
H44   H     H_    0.224905 0.936020 0.841068 0.308636
O39   O     O_3   0.519286 0.310808 0.435891 -0.600661
C73   C     C_3   0.484592 0.276313 0.366111 0.059786
H45   H     H_    0.524871 0.189812 0.326923 0.215628
H46   H     H_    0.494019 0.292051 0.316520 0.161150
C74   C     C_3   0.386122 0.319875 0.405974 -0.345577
H47   H     H_    0.383584 0.288187 0.444123 0.279244
H48   H     H_    0.345722 0.406172 0.453901 0.262306
C75   C     C_3   0.344193 0.290722 0.332398 -0.785493
H49   H     H_    0.336107 0.332630 0.301410 0.213577
H50   H     H_    0.276415 0.314029 0.362435 0.283945
H51   H     H_    0.387232 0.205055 0.279452 0.259035
O40   O     O_3   0.495816 0.671925 0.575909 -0.612896
C76   C     C_3   0.446915 0.731873 0.543128 0.104316
H52   H     H_    0.399284 0.814434 0.602382 0.176969
H53   H     H_    0.404746 0.709197 0.505388 0.139512
C77   C     C_3   0.512289 0.726049 0.483571 -0.318662
H54   H     H_    0.548503 0.757093 0.524046 0.268693
H55   H     H_    0.563341 0.643369 0.426268 0.240213
C78   C     C_3   0.462292 0.789024 0.446052 -0.859130
H56   H     H_    0.427466 0.757503 0.403434 0.269125
H57   H     H_    0.511414 0.783853 0.403758 0.288253
H58   H     H_    0.411610 0.872471 0.502200 0.275685
N5    N     N_R   0.401627 0.928838 0.910049 0.228851
O41   O     O_R   0.327834 0.952778 0.954357 -0.416283
O42   O     O_R   0.427847 0.873997 0.822187 -0.384891
N6    N     N_R   0.601294 0.069166 0.090734 0.209654
O43   O     O_R   0.637984 0.039003 0.140646 -0.414727
O44   O     O_R   0.610517 0.133133 0.085234 -0.441940
O45   O     O_3   0.351134 0.073514 0.123709 -0.592591
C79   C     C_3   0.366639 0.998832 0.139346 0.130154
H59   H     H_    0.404168 0.001651 0.188290 0.150222
H60   H     H_    0.405997 0.917882 0.075775 0.155105
C80   C     C_3   0.275885 0.024894 0.179329 -0.329373
H61   H     H_    0.234021 0.106525 0.240900 0.270524
H62   H     H_    0.239933 0.018041 0.129076 0.240343
C81   C     C_3   0.288250 0.951223 0.203901 -0.845635
H63   H     H_    0.332470 0.868710 0.143785 0.253576
H64   H     H_    0.221365 0.969033 0.228405 0.285379
H65   H     H_    0.319018 0.961360 0.258263 0.301135
O46   O     O_3   0.649070 0.921214 0.872386 -0.601515
C82   C     C_3   0.654241 0.999409 0.878867 0.094866
H66   H     H_    0.699697 0.009803 0.917985 0.192297
H67   H     H_    0.587286 0.076412 0.911920 0.148337
C83   C     C_3   0.695458 0.962995 0.783872 -0.308030
H68   H     H_    0.763453 0.887827 0.750892 0.286889
H69   H     H_    0.651704 0.950034 0.743178 0.257804
C84   C     C_3   0.704781 0.043236 0.786139 -0.829379
H70   H     H_    0.637992 0.120014 0.820726 0.255303
H71   H     H_    0.731434 0.015877 0.715833 0.328419
H72   H     H_    0.752554 0.052732 0.821959 0.257733
N7    N     N_R   0.152407 0.473620 0.552170 0.198541
O47   O     O_R   0.199231 0.400036 0.563724 -0.337101
O48   O     O_R   0.179669 0.530903 0.560950 -0.417009
N8    N     N_R   0.849238 0.528971 0.444306 0.236651
O49   O     O_R   0.845244 0.533390 0.374893 -0.321634
O50   O     O_R   0.781832 0.542537 0.488314 -0.376623
N9    N     N_R   0.099072 0.311984 0.482144 0.246175
O51   O     O_R   0.181741 0.240752 0.426257 -0.345860
O52   O     O_R   0.064515 0.294066 0.528758 -0.385657
N10   N     N_R   0.899483 0.689873 0.518242 0.261017
O53   O     O_R   0.814447 0.757121 0.567798 -0.338510
O54   O     O_R   0.935474 0.709960 0.475152 -0.380316
O55   O     O_3   0.057054 0.341783 0.321623 -0.580875
C85   C     C_3   0.028447 0.277796 0.308558 0.140662
H73   H     H_    0.957507 0.323423 0.352058 0.164001
H74   H     H_    0.073679 0.221349 0.323582 0.177503
C86   C     C_3   0.033981 0.217635 0.209798 -0.303961
H75   H     H_    0.983848 0.273580 0.196438 0.254912
H76   H     H_    0.102475 0.177108 0.164685 0.247409
C87   C     C_3   0.014754 0.137237 0.187904 -0.982179
H77   H     H_    0.065897 0.078559 0.198066 0.272404
H78   H     H_    0.017603 0.096361 0.116295 0.274332
H79   H     H_    0.946333 0.176643 0.232137 0.278797
O56   O     O_3   0.924867 0.672987 0.678040 -0.594005
C88   C     C_3   0.983869 0.681162 0.727295 0.125136
H80   H     H_    0.946423 0.763813 0.787118 0.155625
H81   H     H_    0.042616 0.666817 0.689082 0.186808
C89   C     C_3   0.011130 0.612668 0.762102 -0.338593
H82   H     H_    0.949802 0.640162 0.809380 0.246614
H83   H     H_    0.041903 0.530102 0.705175 0.257979
C90   C     C_3   0.078571 0.617818 0.811520 -0.846886
H84   H     H_    0.140970 0.589617 0.765285 0.297222
H85   H     H_    0.097157 0.567317 0.835492 0.298596
H86   H     H_    0.048223 0.699275 0.870896 0.242103

loop_
_geom_bond_atom_site_label_1
_geom_bond_atom_site_label_2
_geom_bond_distance
_ccdc_geom_bond_type
C55   C57   1.544013 S    
C64   C65   1.527418 S    
C74   H47   1.111463 S    
C46   C52   1.536622 S    
C54   C60   1.539729 S    
C70   H38   1.111970 S    
Zn7   O21   1.939021 S    
C38   C44   1.536691 S    
O35   C61   1.409715 S    
C17   C19   1.550037 S    
N1    O27   1.300224 A    
C19   O39   1.417234 S    
C90   H86   1.110926 S    
C66   H29   1.110351 S    
C25   C27   1.537264 S    
N2    O29   1.300103 A    
C48   C51   1.557579 S    
C13   C15   1.549872 S    
C20   O40   1.411267 S    
C84   H70   1.111102 S    
C87   H77   1.110658 S    
Zn7   O3    1.937970 S    
C53   C58   1.545124 S    
C74   H48   1.108457 S    
Zn5   O1    1.946415 S    
C16   C18   1.545113 S    
C81   H64   1.110344 S    
C31   N7    1.462412 S    
N9    O52   1.300069 A    
O24   C2    1.276380 A    
C13   C19   1.531925 S    
O38   C70   1.409884 S    
C72   H43   1.110536 S    
C42   C44   1.522690 S    
C39   C44   1.536262 S    
C67   H31   1.112942 S    
O14   C12   1.274972 A    
N3    O32   1.300327 A    
C23   C28   1.551739 S    
O37   C67   1.410261 S    
C28   O46   1.411401 S    
C40   H6    1.110166 S    
C37   C42   1.543690 S    
C78   H57   1.110381 S    
Zn5   O9    1.940058 S    
C39   C41   1.544180 S    
C2    C41   1.461684 S    
C22   C24   1.544997 S    
C53   C59   1.540293 S    
C45   C50   1.523680 S    
C9    C50   1.461529 S    
O15   C9    1.273729 A    
C89   H82   1.111464 S    
C85   C86   1.528090 S    
C24   H4    1.110200 S    
C88   H80   1.111014 S    
N5    O42   1.300451 A    
C75   H49   1.109379 S    
N8    O49   1.300281 A    
C10   C49   1.462019 S    
C77   H54   1.111693 S    
C66   H28   1.111008 S    
O3    C1    1.274299 A    
C37   C43   1.537291 S    
C73   C74   1.531108 S    
N9    O51   1.300400 A    
O11   C9    1.276524 A    
C15   H1    1.109534 S    
C81   H65   1.110716 S    
C52   H12   1.110232 S    
C82   C83   1.525956 S    
C16   H2    1.110152 S    
Zn3   O11   1.935925 S    
C29   C35   1.539550 S    
O4    C2    1.275073 A    
C86   H75   1.111764 S    
C29   C34   1.550738 S    
O5    C3    1.272809 A    
C14   C20   1.530333 S    
Zn8   O4    1.937970 S    
C50   C52   1.545278 S    
C76   C77   1.529739 S    
Zn1   O19   1.940969 S    
C30   C32   1.527824 S    
C26   C28   1.536979 S    
C90   H85   1.109353 S    
C14   O38   1.411830 S    
C80   H61   1.109778 S    
C49   C51   1.545491 S    
C64   H25   1.113886 S    
C76   H53   1.117100 S    
Zn1   O17   1.937292 S    
C57   C59   1.530321 S    
C68   H34   1.111723 S    
C46   N4    1.456662 S    
C14   C17   1.543801 S    
C79   C80   1.525978 S    
Zn6   O10   1.940062 S    
C38   C41   1.546056 S    
N8    O50   1.300071 A    
C13   O37   1.411191 S    
O12   C10   1.275965 A    
C22   C28   1.531661 S    
C24   C26   1.550888 S    
C48   C50   1.543052 S    
C67   H32   1.115386 S    
C84   H71   1.109671 S    
C5    C58   1.467512 S    
C53   H15   1.110197 S    
C74   C75   1.524224 S    
C18   C20   1.536094 S    
C56   C58   1.545126 S    
C23   H3    1.110170 S    
O9    C7    1.270383 A    
C31   C33   1.547273 S    
C81   H63   1.110548 S    
C87   H78   1.110361 S    
C82   H66   1.110582 S    
C71   C72   1.525678 S    
O40   C76   1.415056 S    
C64   H24   1.113532 S    
C72   H44   1.110845 S    
Zn1   O1    1.947776 S    
C21   C23   1.540676 S    
C34   C36   1.551865 S    
C65   H26   1.111770 S    
C66   H30   1.110833 S    
O19   C5    1.275620 A    
O39   C73   1.407202 S    
C33   C35   1.545014 S    
O46   C82   1.412090 S    
C59   O35   1.411255 S    
C78   H58   1.110883 S    
C55   C60   1.539981 S    
Zn7   O13   1.937085 S    
Zn8   O14   1.937086 S    
C47   C49   1.543389 S    
O25   C3    1.272829 A    
Zn6   O26   1.937084 S    
Zn5   O25   1.937083 S    
O13   C11   1.272932 A    
C88   H81   1.105516 S    
C77   C78   1.526194 S    
N6    O44   1.299862 A    
Zn4   O8    1.938848 S    
C63   H22   1.110362 S    
C62   H20   1.111826 S    
C21   N5    1.457869 S    
O55   C85   1.410784 S    
Zn3   O1    1.951667 S    
C80   C81   1.525882 S    
C67   C68   1.528144 S    
C37   C39   1.558086 S    
C48   H10   1.110152 S    
Zn5   O15   1.938751 S    
C69   H37   1.110322 S    
C85   H74   1.110239 S    
Zn6   O16   1.938750 S    
C32   C35   1.538963 S    
C54   C56   1.554440 S    
C89   H83   1.109587 S    
C39   H5    1.110161 S    
C31   C36   1.553652 S    
N1    O28   1.300191 A    
C29   N9    1.459264 S    
C14   C16   1.548316 S    
C86   H76   1.110859 S    
C75   H51   1.111022 S    
O7    C5    1.277377 A    
Zn4   O24   1.936215 S    
C65   H27   1.111681 S    
O8    C6    1.277336 A    
C6    C57   1.466285 S    
N5    O41   1.299988 A    
C40   C43   1.537879 S    
C79   H60   1.116704 S    
C73   H45   1.110598 S    
C53   C55   1.553900 S    
C46   C48   1.538642 S    
C24   C27   1.552568 S    
N10   O53   1.299897 A    
C70   C71   1.528822 S    
N10   O54   1.300113 A    
C13   C18   1.530630 S    
C22   N6    1.460260 S    
O16   C10   1.274577 A    
O23   C1    1.276642 A    
C68   C69   1.526100 S    
C63   H23   1.110879 S    
C47   H9    1.110109 S    
C38   H8    1.110355 S    
O6    C4    1.270928 A    
Zn2   O2    1.947774 S    
O17   C11   1.274148 A    
C3    C26   1.457143 S    
Zn3   O7    1.938848 S    
N4    O33   1.300495 A    
N4    O34   1.300258 A    
C21   C26   1.533380 S    
C61   H18   1.113419 S    
C4    C25   1.458668 S    
C69   H36   1.110411 S    
C84   H72   1.110316 S    
C22   C25   1.542572 S    
Zn7   O1    1.948212 S    
N2    O30   1.300268 A    
C46   C49   1.524639 S    
C54   C57   1.543814 S    
C77   H55   1.110468 S    
O21   C7    1.272293 A    
O26   C4    1.276071 A    
C23   C25   1.555215 S    
C7    C34   1.453583 S    
Zn8   O2    1.948214 S    
C37   H7    1.110388 S    
C89   C90   1.525225 S    
C38   C40   1.557753 S    
C79   H59   1.112812 S    
C43   N1    1.458020 S    
C65   C66   1.526012 S    
Zn2   O18   1.937295 S    
C11   C18   1.457665 S    
C45   C51   1.537277 S    
C32   C34   1.542156 S    
C1    C42   1.460508 S    
C51   H11   1.110257 S    
C45   N3    1.456233 S    
O36   C64   1.410641 S    
C76   H52   1.111045 S    
N7    O48   1.300065 A    
C83   C84   1.525660 S    
C30   C36   1.542387 S    
C54   H16   1.110287 S    
C16   C19   1.548258 S    
C55   H13   1.110161 S    
C56   H14   1.110183 S    
C41   C43   1.527825 S    
C44   N2    1.455562 S    
C88   C89   1.534737 S    
Zn8   O22   1.939020 S    
C71   H40   1.112264 S    
C83   H69   1.111700 S    
C47   C52   1.557761 S    
O10   C8    1.273211 A    
C63   H21   1.110926 S    
N7    O47   1.300070 A    
C62   C63   1.526443 S    
C82   H67   1.116361 S    
C15   C20   1.544069 S    
N3    O31   1.300378 A    
N6    O43   1.300307 A    
Zn3   O23   1.936213 S    
O56   C88   1.407431 S    
C78   H56   1.111150 S    
C30   C33   1.542934 S    
C15   C17   1.558401 S    
C12   C17   1.462196 S    
C73   H46   1.106943 S    
C8    C33   1.455063 S    
C75   H50   1.109859 S    
C58   C60   1.530655 S    
C30   N10   1.458308 S    
C36   O56   1.418088 S    
C85   H73   1.113677 S    
Zn2   O6    1.936531 S    
C86   C87   1.524568 S    
C32   N8    1.458665 S    
C72   H42   1.109524 S    
C60   O36   1.411094 S    
Zn6   O2    1.946415 S    
O18   C12   1.273432 A    
O45   C79   1.412537 S    
Zn4   O12   1.935926 S    
C40   C42   1.541557 S    
C27   O45   1.411912 S    
Zn1   O5    1.936531 S    
C69   H35   1.109849 S    
C70   H39   1.113827 S    
C83   H68   1.111511 S    
C61   C62   1.528382 S    
C80   H62   1.110795 S    
C45   C47   1.537099 S    
O20   C6    1.275008 A    
O22   C8    1.270190 A    
C56   C59   1.539885 S    
Zn2   O20   1.940969 S    
C29   C31   1.542064 S    
C68   H33   1.110949 S    
Zn4   O2    1.951669 S    
C87   H79   1.108900 S    
C35   O55   1.411346 S    
C62   H19   1.111688 S    
C90   H84   1.110927 S    
C71   H41   1.112266 S    
C61   H17   1.114220 S    
C21   C27   1.529879 S    
