data_mof_unit_26210.cif
_audit_creation_date              2012-12-11T15:29:45-0500
_audit_creation_method            fapswitch 2.2
_symmetry_space_group_name_H-M    P1
_symmetry_Int_Tables_number       1
_space_group_crystal_system       triclinic
_cell_length_a                    13.480964
_cell_length_b                    13.496162
_cell_length_c                    27.596132
_cell_angle_alpha                 90.496119
_cell_angle_beta                  90.128086
_cell_angle_gamma                 60.168312
_cell_volume                      4355.38584064

loop_
_atom_site_label
_atom_site_type_symbol
_atom_type_description
_atom_site_fract_x
_atom_site_fract_y
_atom_site_fract_z
_atom_type_partial_charge
C1    C     C_R   0.620680 0.101225 0.569745 0.547414
C2    C     C_1   0.642025 0.714904 0.659864 -0.039474
C3    C     C_3   0.154141 0.070978 0.741211 0.245095
C4    C     C_R   0.599088 0.780330 0.568888 0.541761
C5    C     C_3   0.241203 0.060431 0.780327 -0.164670
C6    C     C_1   0.094794 0.201566 0.899873 0.008227
C7    C     C_1   0.232796 0.134829 0.617156 0.005595
C8    C     C_3   0.055068 0.176108 0.766922 -0.171588
C9    C     C_3   0.143307 0.167153 0.805523 -0.026176
C10   C     C_3   0.086225 0.252825 0.736551 0.291827
C11   C     C_3   0.182746 0.148499 0.711018 0.025816
C12   C     C_1   0.627332 0.737701 0.617365 -0.001512
C13   C     C_3   0.171218 0.245469 0.775401 0.436090
C14   C     C_3   0.269197 0.140222 0.749861 -0.147038
C15   C     C_1   0.120955 0.182302 0.857723 -0.010401
C16   C     C_R   0.278285 0.121161 0.569353 0.539991
C17   C     C_1   0.206504 0.141163 0.659110 0.006794
C18   C     C_3   0.765732 0.141123 0.739147 -0.162883
C19   C     C_3   0.696897 0.253033 0.769024 -0.136159
C20   C     C_1   0.692901 0.207814 0.900852 -0.006068
C21   C     C_1   0.637620 0.134176 0.617205 0.004213
C22   C     C_3   0.736186 0.075391 0.777039 -0.080565
C23   C     C_3   0.757417 0.588600 0.770389 -0.109708
C24   C     C_3   0.666883 0.187120 0.806099 0.004389
C25   C     C_3   0.626655 0.104993 0.748601 0.409233
C26   C     C_3   0.655962 0.169591 0.711198 0.055046
C27   C     C_3   0.556889 0.215658 0.778312 -0.070733
C28   C     C_R   0.621787 0.100188 0.431495 0.540901
C29   C     C_3   0.586848 0.281130 0.740337 -0.148675
C30   C     C_1   0.677220 0.197391 0.858551 -0.046969
C31   C     C_1   0.647608 0.153848 0.659049 -0.014843
C32   C     C_R   0.638485 0.724757 0.382654 0.026745
C33   C     C_R   0.719257 0.741547 0.357471 -0.126496
C34   C     C_3   0.668258 0.670921 0.806948 0.029968
C35   C     C_R   0.730724 0.725219 0.307878 -0.122886
C36   C     C_R   0.664835 0.687694 0.282904 0.038092
C37   C     C_R   0.592118 0.660236 0.308696 -0.102103
C38   C     C_R   0.578177 0.679698 0.358388 -0.090794
C39   C     C_R   0.574207 0.705116 0.202466 -0.144966
C40   C     C_R   0.601666 0.777206 0.430400 0.546736
C41   C     C_R   0.584500 0.680928 0.153142 -0.188956
C42   C     C_R   0.787895 0.615864 0.157656 0.369758
C43   C     C_R   0.777665 0.637471 0.206989 -0.083984
C44   C     C_R   0.671919 0.677775 0.230043 -0.024684
C45   C     C_3   0.659755 0.594379 0.738689 -0.129926
C46   C     C_R   0.692377 0.630569 0.130921 0.027593
C47   C     C_R   0.225258 0.137050 0.383333 0.028126
C48   C     C_R   0.245249 0.041783 0.354742 0.369598
C49   C     C_R   0.220294 0.054983 0.305730 -0.082195
C50   C     C_R   0.172556 0.163065 0.284647 -0.023801
C51   C     C_R   0.144165 0.259268 0.313802 -0.142595
C52   C     C_R   0.279352 0.119743 0.430848 0.559446
C53   C     C_R   0.171030 0.246239 0.362835 -0.186776
C54   C     C_R   0.174633 0.251408 0.206033 -0.106740
C55   C     C_R   0.148240 0.268378 0.156980 -0.098060
C56   C     C_3   0.652619 0.697535 0.712427 0.051861
C57   C     C_R   0.090480 0.124416 0.158996 -0.126681
C58   C     C_R   0.114656 0.109167 0.208011 -0.122074
C59   C     C_R   0.154113 0.174559 0.232176 0.036422
C60   C     C_R   0.102458 0.207544 0.133579 0.023008
C61   C     C_R   0.640568 0.139302 0.384883 0.022353
C62   C     C_R   0.547796 0.230517 0.361487 -0.123878
C63   C     C_R   0.555103 0.250430 0.312746 -0.120608
C64   C     C_3   0.749983 0.692228 0.743444 -0.071980
C65   C     C_R   0.655903 0.180793 0.286864 0.034977
C66   C     C_R   0.751925 0.096032 0.311246 -0.119017
C67   C     C_3   0.570801 0.676482 0.776003 -0.115690
C68   C     C_R   0.744175 0.075000 0.359945 -0.126351
C69   C     C_R   0.717092 0.096920 0.204242 -0.117689
C70   C     C_R   0.729363 0.109271 0.155035 -0.124863
C71   C     C_R   0.617639 0.315270 0.164456 -0.124616
C72   C     C_R   0.606992 0.302973 0.213756 -0.120874
C73   C     C_R   0.659578 0.193813 0.234246 0.033836
C74   C     C_R   0.682793 0.218622 0.135187 0.023462
C75   C     C_R   0.049225 0.235261 0.947839 0.539523
C76   C     C_3   0.660815 0.774412 0.780929 -0.063207
C77   C     C_R   0.711379 0.563034 0.946783 0.541518
C78   C     C_3   0.563063 0.780338 0.749046 -0.067438
C79   C     C_R   0.722822 0.224365 0.948948 0.546135
C80   C     C_R   0.047829 0.243723 0.086314 0.545633
C81   C     C_R   0.709536 0.572166 0.084323 0.557077
C82   C     C_R   0.719983 0.233351 0.087487 0.542361
C83   C     C_1   0.693468 0.614496 0.900109 -0.005971
C84   C     C_3   0.911324 0.363485 0.697277 -0.003335
C85   C     C_3   0.924826 0.284201 0.654546 -0.277573
C86   C     C_3   0.808402 0.311168 0.634611 -0.482991
C87   C     C_3   0.125507 0.917324 0.754927 0.012342
C88   C     C_3   0.232145 0.799631 0.759538 -0.263578
C89   C     C_1   0.680537 0.646136 0.858773 -0.050555
C90   C     C_3   0.215186 0.726574 0.796839 -0.469180
Cr1   Cr    Cr6+3 0.417550 0.169090 0.500530 1.029162
Cr2   Cr    Cr6+3 0.669180 0.913420 0.499920 1.031269
Cr3   Cr    Cr6+3 0.413260 0.917540 0.499520 1.085686
Cr4   Cr    Cr6+3 0.909770 0.175810 0.018240 1.023791
Cr5   Cr    Cr6+3 0.913300 0.427650 0.016090 1.092040
Cr6   Cr    Cr6+3 0.657770 0.431010 0.016900 1.027280
F1    F     F_    0.178538 0.337361 0.793634 -0.610672
F2    F     F_    0.590411 0.028180 0.737143 -0.672298
F3    F     F_    0.893635 0.570439 0.137515 -0.627418
F4    F     F_    0.297364 0.934312 0.372857 -0.628012
H1    H     H_    0.661212 0.847936 0.799071 0.158535
H2    H     H_    0.490785 0.740757 0.219328 0.126881
H3    H     H_    0.509484 0.694898 0.133107 0.140281
H4    H     H_    0.786902 0.747711 0.288933 0.102801
H5    H     H_    0.854324 0.615959 0.227432 0.127019
H6    H     H_    0.543525 0.627128 0.290284 0.105905
H7    H     H_    0.516055 0.665442 0.377253 0.150061
H8    H     H_    0.208364 0.300290 0.223744 0.110734
H9    H     H_    0.158664 0.332546 0.138004 0.156040
H10   H     H_    0.482726 0.859329 0.739551 0.141768
H11   H     H_    0.243533 0.979427 0.283911 0.126665
H12   H     H_    0.969583 0.186935 0.774971 0.091766
H13   H     H_    0.097297 0.049947 0.227358 0.105436
H14   H     H_    0.054747 0.076551 0.141966 0.138018
H15   H     H_    0.103924 0.344071 0.298469 0.125772
H16   H     H_    0.154097 0.320777 0.384200 0.138160
H17   H     H_    0.466684 0.281705 0.379803 0.134637
H18   H     H_    0.755180 0.011699 0.219045 0.110367
H19   H     H_    0.779558 0.033689 0.132967 0.132702
H20   H     H_    0.479834 0.316258 0.294802 0.104758
H21   H     H_    0.562524 0.379027 0.236134 0.104414
H22   H     H_    0.498028 0.669017 0.790365 0.106796
H23   H     H_    0.725862 0.314863 0.778181 0.111516
H24   H     H_    0.582109 0.400707 0.150080 0.136329
H25   H     H_    0.831845 0.043646 0.292275 0.107615
H26   H     H_    0.817206 0.004847 0.377288 0.131793
H27   H     H_    0.658294 0.520885 0.721031 0.095331
H28   H     H_    0.837744 0.510651 0.780745 0.152265
H29   H     H_    0.304194 0.981371 0.798988 0.115849
H30   H     H_    0.355802 0.127293 0.742575 0.181025
H31   H     H_    0.855479 0.452488 0.685023 0.168641
H32   H     H_    0.866709 0.349919 0.728134 0.106862
H33   H     H_    0.974766 0.295084 0.625184 0.180479
H34   H     H_    0.851081 0.111437 0.722617 0.122639
H35   H     H_    0.970578 0.193897 0.666452 0.180021
H36   H     H_    0.755182 0.304844 0.663712 0.152669
H37   H     H_    0.820051 0.249363 0.605309 0.158279
H38   H     H_    0.763113 0.398815 0.619526 0.151034
H39   H     H_    0.053262 0.906198 0.742354 0.148686
H40   H     H_    0.100469 0.959639 0.791302 0.122480
H41   H     H_    0.252518 0.755145 0.723798 0.184531
H42   H     H_    0.305573 0.810065 0.770621 0.153646
H43   H     H_    0.197516 0.768267 0.833124 0.152330
H44   H     H_    0.294040 0.641827 0.799092 0.159459
H45   H     H_    0.526485 0.365664 0.724741 0.119800
H46   H     H_    0.142860 0.713735 0.786129 0.169152
H47   H     H_    0.471494 0.244591 0.794632 0.150061
H48   H     H_    0.796292 0.990481 0.792402 0.107462
H49   H     H_    0.766879 0.776665 0.375211 0.136759
H50   H     H_    0.824016 0.698058 0.729426 0.138550
O1    O     O_R   0.301780 0.195490 0.553940 -0.503040
O2    O     O_R   0.636050 0.541380 0.962520 -0.509091
O3    O     O_R   0.666480 0.323610 0.968170 -0.491460
O4    O     O_R   0.522450 0.158840 0.550250 -0.493148
O5    O     O_R   0.817280 0.156800 0.072180 -0.517215
O6    O     O_R   0.005110 0.187160 0.067410 -0.512048
O7    O     O_R   0.026450 0.340060 0.069950 -0.473925
O8    O     O_R   0.808300 0.527240 0.065170 -0.424991
O9    O     O_R   0.634070 0.548770 0.069460 -0.538471
O10   O     O_R   0.664650 0.330470 0.067300 -0.503123
O11   O     O_3   0.826940 0.344820 0.017080 -0.259391
O12   O     O_R   0.658840 0.818280 0.449970 -0.514912
O13   O     O_R   0.694460 0.003360 0.553820 -0.500822
O14   O     O_R   0.657750 0.819520 0.549120 -0.491449
O15   O     O_R   0.501990 0.803120 0.552700 -0.508921
O16   O     O_R   0.318230 0.023430 0.549370 -0.496446
O17   O     O_R   0.302950 0.194150 0.446980 -0.536413
O18   O     O_R   0.523540 0.157600 0.451100 -0.506020
O19   O     O_R   0.695630 0.002030 0.446860 -0.520961
O20   O     O_3   0.015843 0.355407 0.711574 -0.542460
O21   O     O_3   0.145023 0.980846 0.719505 -0.563903
O22   O     O_R   0.503160 0.801780 0.445740 -0.470864
O23   O     O_R   0.319320 0.022190 0.450230 -0.427139
O24   O     O_3   0.499990 0.000010 0.499990 -0.256828
O25   O     O_R   0.819250 0.149410 0.965240 -0.507150
O26   O     O_R   0.006940 0.180310 0.968270 -0.502959
O27   O     O_R   0.028420 0.332670 0.963010 -0.496256
O28   O     O_R   0.810130 0.520390 0.966030 -0.494599

loop_
_geom_bond_atom_site_label_1
_geom_bond_atom_site_label_2
_ccdc_geom_bond_type
C66   C68   A    
C87   C88   S    
C63   C65   A    
Cr3   O22   S    
C1    C21   S    
C23   C45   S    
C72   H21   S    
C27   C29   S    
Cr5   O8    S    
C69   H18   S    
C35   C36   A    
C18   C26   S    
C24   C27   S    
C87   H40   S    
C2    C12   T    
C80   O7    A    
C56   C78   S    
C6    C75   S    
C39   C41   A    
C20   C30   T    
C85   C86   S    
C4    O15   A    
C40   O12   A    
C21   C31   T    
C19   H23   S    
C62   C63   A    
C81   O9    A    
C50   C59   S    
Cr1   O17   S    
C36   C37   A    
C76   C78   S    
C84   O20   S    
Cr5   O11   S    
C52   O17   A    
C29   H45   S    
C11   C14   S    
C77   C83   S    
Cr6   O2    S    
Cr3   O24   S    
C65   C73   S    
Cr6   O11   S    
Cr4   O26   S    
C18   C19   S    
C42   C46   A    
C38   H7    S    
C49   C50   A    
C9    C13   S    
C62   H17   S    
C86   H37   S    
C6    C15   T    
Cr5   O27   S    
C60   C80   S    
Cr6   O3    S    
C45   C56   S    
C16   O16   A    
C8    C9    S    
C7    C17   T    
C22   C25   S    
C70   C74   A    
C58   H13   S    
C41   C46   A    
C56   C64   S    
C69   C73   A    
C32   C38   A    
C4    C12   S    
Cr2   O19   S    
C90   H43   S    
C53   H16   S    
Cr4   O25   S    
C49   H11   S    
C28   C61   S    
Cr2   O14   S    
C5    H29   S    
Cr3   O15   S    
C26   C31   S    
C18   C22   S    
C55   C60   A    
C55   H9    S    
C69   C70   A    
C67   C78   S    
C74   C82   S    
C83   C89   T    
C77   O2    A    
C88   H42   S    
C80   O6    A    
C54   C59   A    
C48   F4    S    
C79   O25   A    
C71   H24   S    
C84   C85   S    
Cr1   O4    S    
C3    C8    S    
C87   H39   S    
C28   O18   A    
Cr4   O5    S    
C57   C60   A    
Cr2   O24   S    
C25   C26   S    
C84   H32   S    
C51   H15   S    
C41   H3    S    
Cr1   O24   S    
C64   H50   S    
C51   C53   A    
C47   C52   S    
C43   C44   A    
C5    C9    S    
C37   C38   A    
C79   O3    A    
C46   C81   S    
C82   O10   A    
Cr1   O18   S    
Cr5   O28   S    
C47   C48   A    
C43   H5    S    
C70   H19   S    
C23   C34   S    
C87   O21   S    
C4    O14   A    
C50   C51   A    
C64   C76   S    
C78   H10   S    
Cr4   O11   S    
C5    C14   S    
C57   H14   S    
C85   H35   S    
C82   O5    A    
Cr2   O13   S    
C86   H36   S    
C23   C64   S    
Cr6   O10   S    
C22   H48   S    
Cr3   O16   S    
C35   H4    S    
C22   C24   S    
C36   C44   S    
C10   O20   S    
C42   C43   A    
C39   C44   A    
C19   C29   S    
C67   H22   S    
C68   H26   S    
C88   H41   S    
C40   O22   A    
C39   H2    S    
C14   H30   S    
Cr2   O12   S    
C76   H1    S    
C54   C55   A    
C11   C17   S    
C81   O8    A    
C20   C79   S    
C75   O26   A    
Cr5   O7    S    
C58   C59   A    
C8    C10   S    
C7    C16   S    
C88   C90   S    
C72   C73   A    
C3    C5    S    
C10   C13   S    
C34   C67   S    
C71   C74   A    
C1    O4    A    
C45   C67   S    
C25   C27   S    
C84   H31   S    
C77   O28   A    
C66   H25   S    
C54   H8    S    
C32   C33   A    
C8    H12   S    
C19   C24   S    
C9    C15   S    
C34   C89   S    
C71   C72   A    
C90   H46   S    
C27   H47   S    
C33   H49   S    
C42   F3    S    
Cr1   O1    S    
C63   H20   S    
C61   C68   A    
C3    O21   S    
C57   C58   A    
C45   H27   S    
C48   C49   A    
C47   C53   A    
Cr3   O23   S    
C33   C35   A    
C18   H34   S    
C16   O1    A    
C32   C40   S    
C13   F1    S    
C61   C62   A    
C75   O27   A    
C24   C30   S    
C3    C11   S    
C10   C11   S    
C86   H38   S    
C28   O19   A    
C37   H6    S    
Cr6   O9    S    
C1    O13   A    
C26   C29   S    
Cr4   O6    S    
C65   C66   A    
C25   F2    S    
C34   C76   S    
C2    C56   S    
C13   C14   S    
C52   O23   A    
C90   H44   S    
C85   H33   S    
C23   H28   S    
