data_mof_unit_8155.cif
_audit_creation_date              2012-12-10T17:36:46-0500
_audit_creation_method            fapswitch 2.2
_symmetry_space_group_name_H-M    P1
_symmetry_Int_Tables_number       1
_space_group_crystal_system       triclinic
_cell_length_a                    12.161472
_cell_length_b                    12.788966
_cell_length_c                    15.729295
_cell_angle_alpha                 92.751568
_cell_angle_beta                  86.442715
_cell_angle_gamma                 96.082998
_cell_volume                      2425.84066577

loop_
_atom_site_label
_atom_site_type_symbol
_atom_type_description
_atom_site_fract_x
_atom_site_fract_y
_atom_site_fract_z
_atom_type_partial_charge
C1    C     C_R   0.524334 0.700402 0.492862 0.886485
C2    C     C_R   0.551302 0.029697 0.508130 0.042387
C3    C     C_R   0.950042 0.431214 0.399345 -0.120593
C4    C     C_R   0.049957 0.568780 0.600656 -0.120596
C5    C     C_R   0.835082 0.425802 0.416606 0.040913
C6    C     C_R   0.164916 0.574196 0.583395 0.040913
C7    C     C_R   0.859832 0.533412 0.543053 0.266126
C8    C     C_R   0.140168 0.466586 0.456947 0.266125
C9    C     C_R   0.976833 0.525258 0.537159 -0.015083
C10   C     C_R   0.023167 0.474739 0.462841 -0.015085
C11   C     C_R   0.500255 0.500305 0.661559 0.899904
C12   C     C_R   0.475667 0.299598 0.507139 0.886486
C13   C     C_R   0.499745 0.499695 0.338441 0.899909
C14   C     C_3   0.497274 0.598736 0.031882 -0.049929
C15   C     C_3   0.502725 0.401256 0.968118 -0.049928
C16   C     C_3   0.589505 0.560320 0.970245 -0.050684
C17   C     C_3   0.410494 0.439673 0.029755 -0.050683
C18   C     C_1   0.500632 0.500111 0.750242 -0.152809
C19   C     C_1   0.499367 0.499886 0.249758 -0.152806
C20   C     C_3   0.407998 0.538376 0.977470 0.127810
C21   C     C_3   0.592000 0.461617 0.022530 0.127810
C22   C     C_3   0.500471 0.499863 0.916234 0.037068
C23   C     C_R   0.652109 0.982657 0.494205 0.146267
C24   C     C_3   0.499528 0.500130 0.083766 0.037068
C25   C     C_1   0.500731 0.499935 0.825391 -0.015840
C26   C     C_1   0.499268 0.500059 0.174609 -0.015840
C27   C     C_R   0.457310 0.186454 0.519872 -0.207749
C28   C     C_R   0.542693 0.813546 0.480125 -0.207743
C29   C     C_1   0.687152 0.625894 0.935997 0.197609
C30   C     C_1   0.312847 0.374099 0.064003 0.197609
C31   C     C_1   0.494187 0.706346 0.068364 0.200033
C32   C     C_1   0.505813 0.293647 0.931635 0.200031
C33   C     C_3   0.695748 0.418421 0.049676 -0.836051
C34   C     C_R   0.347894 0.017344 0.505770 0.146287
C35   C     C_3   0.304252 0.581572 0.950324 -0.836050
C36   C     C_1   0.633399 0.186002 0.589958 0.231716
C37   C     C_1   0.366629 0.813993 0.410006 0.231709
C38   C     C_1   0.251081 0.177403 0.520469 0.224411
C39   C     C_1   0.748925 0.822601 0.479545 0.224412
C40   C     C_3   0.763437 0.047691 0.480740 -0.857181
C41   C     C_3   0.236567 0.952305 0.519211 -0.857177
C42   C     C_3   0.189891 0.394465 0.390038 -0.765368
C43   C     C_3   0.810109 0.605531 0.609964 -0.765365
C44   C     C_1   0.238582 0.637739 0.638552 0.267141
C45   C     C_R   0.646921 0.872496 0.486844 -0.037311
C46   C     C_1   0.761416 0.362258 0.361450 0.267143
C47   C     C_1   0.987642 0.401739 0.312887 0.165708
C48   C     C_1   0.012356 0.598239 0.687117 0.165713
C49   C     C_R   0.353082 0.127505 0.513151 -0.037299
C50   C     C_R   0.450458 0.865175 0.464566 -0.063555
C51   C     C_R   0.549547 0.134822 0.535418 -0.063566
C52   C     C_R   0.448702 0.970304 0.491844 0.042374
H1    H     H_    0.747723 0.396815 0.992348 0.247758
H2    H     H_    0.185533 0.987977 0.571602 0.242333
H3    H     H_    0.191127 0.947682 0.459855 0.248832
H4    H     H_    0.245557 0.872131 0.540008 0.242893
H5    H     H_    0.267619 0.369273 0.407541 0.276026
H6    H     H_    0.136359 0.319129 0.382992 0.214474
H7    H     H_    0.204895 0.434049 0.328520 0.237158
H8    H     H_    0.732385 0.630731 0.592458 0.276023
H9    H     H_    0.795096 0.565941 0.671480 0.237162
H10   H     H_    0.863645 0.680863 0.617018 0.214475
H11   H     H_    0.743715 0.479094 0.089200 0.248193
H12   H     H_    0.672030 0.347613 0.087467 0.250863
H13   H     H_    0.252277 0.603179 0.007652 0.247758
H14   H     H_    0.327970 0.652380 0.912532 0.250863
H15   H     H_    0.256284 0.520900 0.910800 0.248194
H16   H     H_    0.814416 0.012031 0.428309 0.242343
H17   H     H_    0.754449 0.127884 0.459987 0.242897
H18   H     H_    0.808918 0.052266 0.540074 0.248836
N1    N     N_R   0.207800 0.519340 0.515560 -0.127527
N2    N     N_1   0.830988 0.783875 0.472697 -0.204572
N3    N     N_1   0.296546 0.689529 0.682916 -0.207110
N4    N     N_1   0.703451 0.310466 0.317088 -0.207109
N5    N     N_1   0.016287 0.378331 0.243654 -0.177332
N6    N     N_1   0.983709 0.621634 0.756353 -0.177332
N7    N     N_R   0.792200 0.480660 0.484440 -0.127527
N8    N     N_1   0.764070 0.677514 0.908942 -0.173663
N9    N     N_1   0.235929 0.322479 0.091058 -0.173662
N10   N     N_1   0.491732 0.791093 0.097153 -0.180023
N11   N     N_1   0.508268 0.208900 0.902847 -0.180025
N12   N     N_1   0.699758 0.226969 0.633531 -0.187757
N13   N     N_1   0.300298 0.773024 0.366413 -0.187762
N14   N     N_1   0.169021 0.216133 0.527332 -0.204563
O1    O     O_R   0.421700 0.658830 0.504150 -0.605766
O2    O     O_R   0.578300 0.341170 0.495850 -0.605770
O3    O     O_R   0.609310 0.646410 0.494170 -0.634127
O4    O     O_R   0.390690 0.353590 0.505830 -0.634126
O5    O     O_R   0.406210 0.506220 0.628210 -0.608966
O6    O     O_R   0.593790 0.493780 0.371790 -0.608968
O7    O     O_R   0.593830 0.493800 0.618230 -0.624208
O8    O     O_R   0.406170 0.506200 0.381770 -0.624207
Zn1   Zn    Zn3+2 0.374730 0.508290 0.506660 0.961070
Zn2   Zn    Zn3+2 0.625270 0.491710 0.493340 0.961068

loop_
_geom_bond_atom_site_label_1
_geom_bond_atom_site_label_2
_ccdc_geom_bond_type
C1    O3    A    
C11   C18   S    
C16   C21   S    
C23   C45   A    
C13   O6    A    
C48   N6    T    
C14   C31   S    
C42   H6    S    
C31   N10   T    
C38   C49   S    
C32   N11   T    
C18   C25   T    
C40   H18   S    
C8    C42   S    
C21   C33   S    
C35   H13   S    
C23   C40   S    
O3    Zn2   S    
N7    Zn2   S    
C17   C20   S    
C7    C9    A    
C14   C24   S    
C19   C26   T    
C41   H3    S    
O2    Zn2   S    
C20   C35   S    
O1    Zn1   S    
C15   C22   S    
C29   N8    T    
C36   N12   T    
C34   C49   A    
C22   C25   S    
C1    C28   S    
C50   C52   A    
C39   N2    T    
C7    C43   S    
C9    C10   A    
C39   C45   S    
C6    C44   S    
C33   H1    S    
C17   C30   S    
C34   C41   S    
C28   C50   A    
C42   H5    S    
C27   C51   A    
O6    Zn2   S    
C1    O1    A    
C6    N1    A    
C28   C45   A    
C17   C24   S    
C40   H17   S    
C12   O4    A    
C12   C27   S    
C14   C20   S    
C15   C32   S    
C4    C6    A    
C13   C19   S    
C35   H14   S    
C16   C29   S    
C41   H4    S    
C11   O5    A    
C35   H15   S    
C33   H11   S    
C36   C51   S    
C2    C52   A    
C43   H8    S    
C30   N9    T    
C20   C22   S    
C13   O8    A    
C7    N7    A    
C14   C16   S    
C5    N7    A    
C46   N4    T    
C43   H9    S    
C4    C48   S    
C15   C17   S    
O4    Zn1   S    
C8    N1    A    
C16   C22   S    
C38   N14   T    
C24   C26   S    
C3    C5    A    
C42   H7    S    
N1    Zn1   S    
C5    C46   S    
C34   C52   A    
C12   O2    A    
C47   N5    T    
C3    C10   A    
O7    Zn2   S    
C37   C50   S    
C33   H12   S    
C3    C47   S    
O8    Zn1   S    
O5    Zn1   S    
C44   N3    T    
C41   H2    S    
C2    C51   A    
C11   O7    A    
C15   C21   S    
C8    C10   A    
C40   H16   S    
C21   C24   S    
C2    C23   A    
C37   N13   T    
C4    C9    A    
C27   C49   A    
C43   H10   S    
