data_mof_unit_54626.cif
_audit_creation_date              2012-12-10T17:31:19-0500
_audit_creation_method            fapswitch 2.2
_symmetry_space_group_name_H-M    P1
_symmetry_Int_Tables_number       1
_space_group_crystal_system       triclinic
_cell_length_a                    19.055192
_cell_length_b                    18.431726
_cell_length_c                    12.348441
_cell_angle_alpha                 90.009894
_cell_angle_beta                  129.113552
_cell_angle_gamma                 90.015092
_cell_volume                      3365.08161254

loop_
_atom_site_label
_atom_site_type_symbol
_atom_type_description
_atom_site_fract_x
_atom_site_fract_y
_atom_site_fract_z
_atom_type_partial_charge
C1    C     C_R   0.612210 0.898190 0.652908 0.781833
C2    C     C_R   0.611571 0.102326 0.652067 0.781725
C3    C     C_R   0.112222 0.398199 0.652923 0.781813
C4    C     C_R   0.111565 0.602331 0.652059 0.781720
C5    C     C_R   0.239317 0.781665 0.029713 0.073499
C6    C     C_R   0.241654 0.220206 0.032852 0.073295
C7    C     C_R   0.739333 0.281656 0.029729 0.073519
C8    C     C_R   0.741638 0.720199 0.032841 0.073281
C9    C     C_R   0.659381 0.278506 0.015435 0.167734
C10   C     C_R   0.660087 0.720785 0.014267 0.166679
C11   C     C_R   0.159389 0.778479 0.015479 0.167751
C12   C     C_R   0.160064 0.220728 0.014171 0.166660
C13   C     C_R   0.582728 0.244115 0.900343 -0.242549
C14   C     C_R   0.583266 0.753950 0.897401 -0.241721
C15   C     C_R   0.082739 0.744075 0.900410 -0.242560
C16   C     C_R   0.083243 0.253871 0.897266 -0.241702
C17   C     C_R   0.585867 0.209160 0.804079 -0.200803
C18   C     C_R   0.587377 0.789877 0.802979 -0.199854
C19   C     C_R   0.085862 0.709139 0.804115 -0.200817
C20   C     C_R   0.087384 0.289838 0.802909 -0.199833
C21   C     C_R   0.314958 0.816718 0.146886 -0.253977
C22   C     C_R   0.317005 0.185425 0.150924 -0.254388
C23   C     C_R   0.814974 0.316700 0.146920 -0.253961
C24   C     C_R   0.816989 0.685399 0.150877 -0.254407
C25   C     C_R   0.231540 0.848471 0.227553 -0.195316
C26   C     C_R   0.230543 0.149585 0.224383 -0.193616
C27   C     C_R   0.731515 0.348510 0.227492 -0.195298
C28   C     C_R   0.730594 0.649662 0.224506 -0.193640
C29   C     C_R   0.675020 0.161880 0.736483 -0.105939
C30   C     C_R   0.677726 0.840434 0.740236 -0.104752
C31   C     C_R   0.174992 0.661902 0.736446 -0.105944
C32   C     C_R   0.177772 0.340474 0.740301 -0.104726
C33   C     C_R   0.684141 0.001235 0.285987 -0.298885
C34   C     C_R   0.184142 0.501239 0.285989 -0.298883
C35   C     C_R   0.343837 0.997624 0.627268 0.040720
C36   C     C_R   0.843836 0.497615 0.627270 0.040675
C37   C     C_R   0.308848 0.994867 0.698518 0.222354
C38   C     C_R   0.808852 0.494874 0.698525 0.222290
C39   C     C_R   0.384216 0.098673 0.342411 0.793473
C40   C     C_R   0.384100 0.901364 0.342237 0.794557
C41   C     C_R   0.884220 0.598676 0.342415 0.793489
C42   C     C_R   0.884100 0.401365 0.342236 0.794570
C43   C     C_R   0.368223 0.996908 0.844818 -0.275432
C44   C     C_R   0.868224 0.496924 0.844822 -0.275402
C45   C     C_R   0.462560 0.999308 0.921112 -0.041777
C46   C     C_R   0.962561 0.499320 0.921114 -0.041784
C47   C     C_R   0.494570 0.000228 0.842713 0.263305
C48   C     C_R   0.994571 0.500235 0.842714 0.263321
C49   C     C_R   0.526291 0.999950 0.071888 -0.017978
C50   C     C_R   0.026292 0.499958 0.071889 -0.017982
C51   C     C_R   0.620085 0.000882 0.139843 0.173421
C52   C     C_R   0.120086 0.500889 0.139844 0.173423
C53   C     C_R   0.649773 0.001245 0.061896 -0.272890
C54   C     C_R   0.149773 0.501253 0.061897 -0.272889
C55   C     C_R   0.588654 0.000863 0.917211 -0.150920
C56   C     C_R   0.088655 0.500868 0.917212 -0.150932
C57   C     C_R   0.501808 0.999630 0.159588 0.014572
C58   C     C_R   0.001809 0.499635 0.159588 0.014562
C59   C     C_R   0.655690 0.000744 0.365550 0.067195
C60   C     C_R   0.155690 0.500744 0.365551 0.067208
C61   C     C_R   0.656490 0.311123 0.115248 -0.193614
C62   C     C_R   0.655691 0.686598 0.111362 -0.192450
C63   C     C_R   0.156517 0.811074 0.115328 -0.193616
C64   C     C_R   0.155634 0.186498 0.111200 -0.192457
C65   C     C_R   0.310293 0.852494 0.241590 -0.048223
C66   C     C_R   0.310666 0.147668 0.242154 -0.049512
C67   C     C_R   0.810289 0.352499 0.241584 -0.048234
C68   C     C_R   0.810680 0.647683 0.242174 -0.049522
C69   C     C_R   0.749751 0.170719 0.740361 -0.189146
C70   C     C_R   0.754673 0.834959 0.749152 -0.183454
C71   C     C_R   0.249694 0.670782 0.740261 -0.189170
C72   C     C_R   0.254764 0.335065 0.749327 -0.183443
C73   C     C_R   0.317665 0.719650 0.832041 -0.156582
C74   C     C_R   0.324882 0.288849 0.845370 -0.148552
C75   C     C_R   0.817746 0.219560 0.832185 -0.156583
C76   C     C_R   0.824763 0.788706 0.845135 -0.148562
C77   C     C_R   0.314966 0.757337 0.926768 -0.186332
C78   C     C_R   0.321488 0.250058 0.938407 -0.185080
C79   C     C_R   0.815035 0.257264 0.926886 -0.186385
C80   C     C_R   0.821393 0.749948 0.938225 -0.185110
C81   C     C_R   0.741530 0.248664 0.927960 0.081950
C82   C     C_R   0.745316 0.754880 0.933762 0.081591
C83   C     C_R   0.241494 0.748695 0.927909 0.081969
C84   C     C_R   0.245364 0.254924 0.933835 0.081598
C85   C     C_R   0.666794 0.205915 0.822158 0.079010
C86   C     C_R   0.669478 0.795641 0.824987 0.080610
C87   C     C_R   0.166770 0.705925 0.822141 0.079039
C88   C     C_R   0.169512 0.295656 0.825010 0.080608
Cu1   Cu    Cu3+1 0.526340 1.000000 0.421010 0.932335
Cu2   Cu    Cu3+1 0.026340 0.500000 0.421010 0.932337
Cu3   Cu    Cu3+1 0.473640 0.000000 0.578990 0.914295
Cu4   Cu    Cu3+1 0.973640 0.500000 0.578990 0.914300
H1    H     H_    0.226858 0.876334 0.300031 0.143079
H2    H     H_    0.224669 0.120174 0.294282 0.151871
H3    H     H_    0.726818 0.376392 0.299939 0.143076
H4    H     H_    0.724744 0.620286 0.294461 0.151903
H5    H     H_    0.721523 0.001719 0.113489 0.151989
H6    H     H_    0.221524 0.501725 0.113490 0.151989
H7    H     H_    0.755986 0.001883 0.338487 0.137804
H8    H     H_    0.255987 0.501886 0.338489 0.137803
H9    H     H_    0.432086 0.999300 0.116928 0.127620
H10   H     H_    0.932086 0.499304 0.116929 0.127616
H11   H     H_    0.298383 0.997682 0.514380 0.133927
H12   H     H_    0.798376 0.497652 0.514381 0.133956
H13   H     H_    0.338930 0.995251 0.896213 0.136137
H14   H     H_    0.838930 0.495273 0.896213 0.136165
H15   H     H_    0.618692 0.000643 0.868086 0.206923
H16   H     H_    0.118693 0.500644 0.868087 0.206921
H17   H     H_    0.520109 0.243828 0.884923 0.136737
H18   H     H_    0.519615 0.752218 0.878825 0.135786
H19   H     H_    0.020135 0.743760 0.885034 0.136720
H20   H     H_    0.019568 0.252092 0.878610 0.135779
H21   H     H_    0.595496 0.309210 0.104507 0.131067
H22   H     H_    0.593554 0.686692 0.097473 0.134358
H23   H     H_    0.095541 0.809133 0.104632 0.131090
H24   H     H_    0.093468 0.186541 0.097226 0.134346
H25   H     H_    0.378800 0.817443 0.167046 0.149055
H26   H     H_    0.381792 0.185929 0.174196 0.146907
H27   H     H_    0.878830 0.317403 0.167124 0.149045
H28   H     H_    0.881753 0.685860 0.174070 0.146938
H29   H     H_    0.756712 0.138733 0.674007 0.151717
H30   H     H_    0.761842 0.867899 0.683985 0.149872
H31   H     H_    0.256649 0.638811 0.673887 0.151735
H32   H     H_    0.261947 0.368034 0.684204 0.149839
H33   H     H_    0.374328 0.726731 0.832753 0.132323
H34   H     H_    0.383642 0.284762 0.850701 0.129782
H35   H     H_    0.874436 0.226607 0.832951 0.132314
H36   H     H_    0.883485 0.784565 0.850377 0.129803
H37   H     H_    0.523091 0.186571 0.713633 0.177471
H38   H     H_    0.524544 0.811388 0.710912 0.175132
H39   H     H_    0.023085 0.686541 0.713686 0.177488
H40   H     H_    0.024555 0.311340 0.710816 0.175096
H41   H     H_    0.704993 0.001067 0.478287 0.117373
H42   H     H_    0.204993 0.501065 0.478288 0.117370
N1    N     N_R   0.566260 1.000000 0.302220 -0.179162
N2    N     N_R   0.066260 0.500000 0.302220 -0.179161
N3    N     N_R   0.434410 1.000000 0.697680 -0.232206
N4    N     N_R   0.934410 0.500000 0.697680 -0.232195
O1    O     O_R   0.608610 0.924520 0.551740 -0.578052
O2    O     O_R   0.608610 0.075480 0.551740 -0.579944
O3    O     O_R   0.108610 0.424520 0.551740 -0.578039
O4    O     O_R   0.108610 0.575480 0.551740 -0.579953
O5    O     O_R   0.564110 0.924510 0.685150 -0.599570
O6    O     O_R   0.564110 0.075490 0.685150 -0.600540
O7    O     O_R   0.064110 0.424510 0.685150 -0.599545
O8    O     O_R   0.064110 0.575490 0.685150 -0.600561
O9    O     O_R   0.435880 0.075470 0.314850 -0.584067
O10   O     O_R   0.435880 0.924530 0.314850 -0.584148
O11   O     O_R   0.935880 0.575470 0.314850 -0.584091
O12   O     O_R   0.935880 0.424530 0.314850 -0.584132
O13   O     O_R   0.391380 0.075460 0.448260 -0.592948
O14   O     O_R   0.391380 0.924540 0.448260 -0.594718
O15   O     O_R   0.891380 0.575460 0.448260 -0.592957
O16   O     O_R   0.891380 0.424540 0.448260 -0.594709
N5    N     N_2   0.213671 0.991328 0.622914 -0.433418
H43   H     H_    0.193304 0.004923 0.680395 0.257410
C89   C     C_3   0.170877 0.925605 0.542531 -0.700530
H44   H     H_    0.096978 0.928394 0.486104 0.229358
H45   H     H_    0.198854 0.877629 0.612849 0.237741
H46   H     H_    0.181091 0.919137 0.463920 0.219201
N6    N     N_2   0.713679 0.491320 0.622916 -0.433494
H47   H     H_    0.693298 0.505056 0.680324 0.257412
C90   C     C_3   0.670975 0.425478 0.542941 -0.700455
H48   H     H_    0.597056 0.428275 0.486353 0.229354
H49   H     H_    0.698937 0.377630 0.613579 0.237766
H50   H     H_    0.681304 0.418778 0.464498 0.219277
H51   H     H_    0.370307 0.794134 0.995189 0.130284
H52   H     H_    0.378748 0.215622 0.010315 0.127929
H53   H     H_    0.870397 0.294037 0.995344 0.130309
H54   H     H_    0.878630 0.715481 0.010082 0.127924

loop_
_geom_bond_atom_site_label_1
_geom_bond_atom_site_label_2
_ccdc_geom_bond_type
C26   H2    S    
Cu1   O10   S    
C83   C87   A    
C25   H1    S    
C89   H44   S    
C64   H24   S    
N5    C89   S    
C2    O6    A    
C14   C18   A    
C27   H3    S    
C90   H48   S    
C3    O3    A    
C80   H54   S    
Cu2   O12   S    
Cu4   N4    S    
Cu1   O1    S    
N6    H47   S    
C32   C72   A    
C15   C19   A    
C18   C86   A    
C2    C29   S    
C9    C61   A    
C71   H31   S    
C90   H49   S    
C5    C11   A    
C35   H11   S    
C4    O4    A    
Cu3   O14   S    
C5    C83   A    
C73   H33   S    
C41   O11   A    
C77   C83   A    
C21   H25   S    
C6    C22   A    
C39   O13   A    
C71   C73   A    
C49   C57   A    
C40   O14   A    
C14   H18   S    
C43   H13   S    
C45   C47   A    
C23   C67   A    
C9    C13   A    
C56   H16   S    
C13   H17   S    
C27   C61   A    
C30   C70   A    
Cu3   N3    S    
C11   C15   A    
C38   N6    S    
C22   C66   A    
C12   C16   A    
C44   C46   A    
C49   C51   A    
C50   C52   A    
C76   C80   A    
Cu4   O15   S    
C58   H10   S    
C69   H29   S    
C30   C86   A    
C60   N2    A    
C29   C85   A    
C1    O1    A    
C63   H23   S    
C31   C71   A    
C42   O16   A    
C33   C59   A    
C72   H32   S    
C34   C60   A    
C10   C62   A    
C37   N5    S    
C20   H40   S    
Cu2   O11   S    
C6    C12   A    
C21   C65   A    
N6    C90   S    
C52   C54   A    
C41   C68   S    
C29   C69   A    
C53   C55   A    
C19   H39   S    
Cu2   Cu4   S    
C46   C48   A    
C24   H28   S    
C6    C84   A    
C40   O10   A    
C17   H37   S    
C26   C66   A    
C15   H19   S    
C90   H50   S    
C31   C87   A    
C72   C74   A    
C10   C14   A    
C79   C81   A    
Cu3   O5    S    
C53   H5    S    
C82   C86   A    
Cu4   O8    S    
C59   H41   S    
C33   C51   A    
C55   H15   S    
C33   H7    S    
C50   C58   A    
C37   C43   A    
C38   C44   A    
C1    O5    A    
C78   C84   A    
Cu2   N2    S    
C70   H30   S    
C34   H8    S    
C45   C49   A    
C16   C20   A    
Cu1   O2    S    
C4    O8    A    
C47   N3    A    
C25   C65   A    
C43   C45   A    
Cu2   O4    S    
Cu1   N1    S    
C80   C82   A    
C7    C81   A    
C3    O7    A    
C89   H46   S    
C44   H14   S    
C40   C65   S    
C61   H21   S    
C42   C67   S    
C76   H36   S    
C39   C66   S    
C17   C85   A    
C18   H38   S    
Cu1   Cu3   S    
C70   C76   A    
C60   H42   S    
C16   H20   S    
C47   C55   A    
Cu3   O6    S    
C35   C37   A    
Cu1   O9    S    
C12   C64   A    
C22   H26   S    
C41   O15   A    
C28   C68   A    
Cu4   O7    S    
C34   C52   A    
C8    C10   A    
C57   N1    A    
C84   C88   A    
C54   C56   A    
C62   H22   S    
C26   C64   A    
C77   H51   S    
C57   H9    S    
C46   C50   A    
C78   H52   S    
C48   N4    A    
C28   H4    S    
C58   N2    A    
C79   H53   S    
C36   C38   A    
C19   C87   A    
C2    O2    A    
C35   N3    A    
Cu3   O13   S    
C25   C63   A    
C36   H12   S    
C74   H34   S    
C75   C79   A    
C7    C23   A    
Cu2   O3    S    
C20   C88   A    
C59   N1    A    
C1    C30   S    
C8    C24   A    
C69   C75   A    
C75   H35   S    
C3    C32   S    
C42   O12   A    
C4    C31   S    
C27   C67   A    
C24   C68   A    
C13   C17   A    
C7    C9    A    
C8    C82   A    
C5    C21   A    
C48   C56   A    
C89   H45   S    
C74   C78   A    
C39   O9    A    
N5    H43   S    
C73   C77   A    
C54   H6    S    
C23   H27   S    
Cu4   O16   S    
C51   C53   A    
C11   C63   A    
C36   N4    A    
C81   C85   A    
C28   C62   A    
C32   C88   A    
