data_mof_unit_62408.cif
_audit_creation_date              2012-10-26T19:02:13-0400
_audit_creation_method            fapswitch 2.2
_symmetry_space_group_name_H-M    P1
_symmetry_Int_Tables_number       1
_space_group_crystal_system       triclinic
_cell_length_a                    23.49668
_cell_length_b                    10.862013
_cell_length_c                    22.2255
_cell_angle_alpha                 91.517836
_cell_angle_beta                  90.010826
_cell_angle_gamma                 91.291535
_cell_volume                      5668.98713109

loop_
_atom_site_label
_atom_site_type_symbol
_atom_type_description
_atom_site_fract_x
_atom_site_fract_y
_atom_site_fract_z
_atom_type_partial_charge
C1    C     C_R   0.501592 0.261872 0.498957 0.576190
C2    C     C_R   0.700196 0.619872 0.484728 0.030101
C3    C     C_R   0.241383 0.597454 0.544963 -0.085311
C4    C     C_R   0.759501 0.624706 0.486863 -0.073180
C5    C     C_R   0.209911 0.551094 0.495659 0.215147
C6    C     C_R   0.790538 0.518281 0.497386 0.197717
C7    C     C_R   0.350111 0.160741 0.356489 0.262654
C8    C     C_R   0.609273 0.805177 0.675022 0.261506
C9    C     C_R   0.384151 0.143720 0.408031 -0.145886
C10   C     C_R   0.590467 0.831453 0.617008 -0.089771
C11   C     C_R   0.441666 0.115412 0.402357 0.000334
C12   C     C_R   0.498246 0.738039 0.501080 0.586431
C13   C     C_R   0.539960 0.894743 0.608483 -0.004557
C14   C     C_R   0.467978 0.114609 0.345480 0.126239
C15   C     C_R   0.507493 0.931821 0.659200 0.091442
C16   C     C_R   0.390865 0.506620 0.500099 0.571664
C17   C     C_R   0.608970 0.503160 0.499834 0.573093
C18   C     C_R   0.435101 0.133085 0.293646 0.078200
C19   C     C_R   0.527373 0.909652 0.717838 0.062990
C20   C     C_R   0.376253 0.154526 0.299411 0.118283
C21   C     C_R   0.578496 0.846302 0.725448 0.120193
C22   C     C_R   0.466418 0.930409 0.457391 0.080500
C23   C     C_R   0.238286 0.498315 0.445884 0.295540
C24   C     C_R   0.534592 0.067838 0.540101 0.081820
C25   C     C_R   0.495878 0.871663 0.503282 0.016203
C26   C     C_R   0.503142 0.127932 0.496481 0.012899
C27   C     C_R   0.525717 0.942077 0.548159 0.007664
C28   C     C_R   0.470315 0.058764 0.453716 -0.008189
C29   C     C_R   0.546323 0.473125 0.872180 0.426564
C30   C     C_R   0.452228 0.545536 0.128668 0.423861
C31   C     C_R   0.450153 0.538153 0.872584 0.436073
C32   C     C_R   0.545686 0.464843 0.128019 0.433308
C33   C     C_R   0.449236 0.543366 0.936760 0.036613
C34   C     C_R   0.760814 0.405571 0.506070 0.312299
C35   C     C_R   0.547835 0.466748 0.063931 0.037319
C36   C     C_R   0.498330 0.506758 0.968258 -0.050819
C37   C     C_R   0.499183 0.505974 0.032481 -0.051114
C38   C     C_R   0.546779 0.470970 0.935631 0.017392
C39   C     C_R   0.451227 0.544633 0.065155 0.013444
C40   C     C_R   0.880479 0.577143 0.450488 0.382914
C41   C     C_R   0.120659 0.488205 0.541364 0.404195
C42   C     C_R   0.401436 0.582730 0.970970 0.110761
C43   C     C_R   0.596264 0.430986 0.029757 0.110277
C44   C     C_R   0.403191 0.583002 0.033920 -0.084231
C45   C     C_R   0.297323 0.482387 0.448902 -0.166482
C46   C     C_R   0.595102 0.434220 0.966867 -0.081942
C47   C     C_R   0.541443 0.568448 0.258260 -0.061004
C48   C     C_R   0.483592 0.606904 0.743764 -0.074264
C49   C     C_R   0.541297 0.564691 0.321353 0.067858
C50   C     C_R   0.484467 0.603427 0.680567 0.025816
C51   C     C_R   0.457397 0.440279 0.319525 0.041369
C52   C     C_R   0.513622 0.397149 0.679623 0.033454
C53   C     C_R   0.455836 0.442148 0.256413 -0.067325
C54   C     C_R   0.513213 0.396653 0.742755 -0.076566
C55   C     C_R   0.498592 0.505625 0.224725 0.223809
C56   C     C_R   0.701458 0.403844 0.509361 -0.157003
C57   C     C_R   0.498525 0.502958 0.775929 0.213224
C58   C     C_R   0.881319 0.481262 0.545999 0.441169
C59   C     C_R   0.119439 0.619392 0.456862 0.429854
C60   C     C_R   0.941031 0.481755 0.545911 0.020820
C61   C     C_R   0.059816 0.610940 0.454380 0.031829
C62   C     C_R   0.970448 0.539162 0.498787 -0.030693
C63   C     C_R   0.030479 0.545483 0.499036 -0.027865
C64   C     C_R   0.940006 0.590479 0.451473 0.030551
C65   C     C_R   0.061018 0.486881 0.544140 0.027513
C66   C     C_R   0.971910 0.427044 0.591879 -0.117093
C67   C     C_R   0.328738 0.523633 0.499663 -0.028386
C68   C     C_R   0.028960 0.665785 0.408471 -0.127086
C69   C     C_R   0.031297 0.427530 0.590380 -0.114482
C70   C     C_R   0.969715 0.653371 0.406306 -0.119324
C71   C     C_3   0.220620 0.520690 0.344730 0.030616
C72   C     C_3   0.236838 0.434282 0.292540 -0.250832
C73   C     C_3   0.188547 0.342954 0.276058 -0.347818
C74   C     C_3   0.801236 0.240668 0.457743 0.008420
C75   C     C_3   0.754343 0.145394 0.440930 -0.268588
C76   C     C_3   0.770060 0.069780 0.384790 -0.435524
C77   C     C_3   0.263057 0.155805 0.412046 0.016427
C78   C     C_R   0.670992 0.510057 0.498873 -0.039238
C79   C     C_3   0.256347 0.016435 0.421031 -0.268531
C80   C     C_3   0.222970 0.988974 0.478178 -0.440542
C81   C     C_3   0.654110 0.621939 0.669381 0.016962
C82   C     C_3   0.704892 0.554288 0.694314 -0.240408
C83   C     C_3   0.697910 0.415241 0.684289 -0.417229
C84   C     C_R   0.300278 0.585587 0.547268 0.068104
Cu1   Cu    Cu3+1 0.500000 0.499970 0.559570 0.988007
Cu2   Cu    Cu3+1 0.500000 0.500030 0.440430 1.015015
H1    H     H_    0.950309 0.381749 0.628523 0.175964
H2    H     H_    0.524236 0.313829 0.655673 0.181830
H3    H     H_    0.421822 0.393446 0.232370 0.159182
H4    H     H_    0.523817 0.313352 0.765574 0.167185
H5    H     H_    0.053798 0.382502 0.625875 0.178498
H6    H     H_    0.947264 0.694692 0.369659 0.171420
H7    H     H_    0.318422 0.436124 0.411620 0.144601
H8    H     H_    0.679097 0.318221 0.518026 0.157837
H9    H     H_    0.219550 0.642413 0.582101 0.168559
H10   H     H_    0.781606 0.711319 0.479005 0.176443
H11   H     H_    0.366473 0.142812 0.452830 0.118268
H12   H     H_    0.050543 0.716030 0.373389 0.162827
H13   H     H_    0.616404 0.806134 0.578883 0.165221
H14   H     H_    0.255479 0.591611 0.350974 0.132314
H15   H     H_    0.182186 0.570687 0.331192 0.195228
H16   H     H_    0.247144 0.490003 0.252584 0.147879
H17   H     H_    0.275588 0.384217 0.304695 0.216256
H18   H     H_    0.179490 0.280825 0.313903 0.204561
H19   H     H_    0.200827 0.286082 0.236149 0.180769
H20   H     H_    0.149334 0.392850 0.264890 0.145482
H21   H     H_    0.842132 0.192287 0.462104 0.166966
H22   H     H_    0.807470 0.307365 0.420755 0.142433
H23   H     H_    0.366175 0.613818 0.058606 0.188763
H24   H     H_    0.747352 0.082267 0.478930 0.214376
H25   H     H_    0.713932 0.192896 0.432154 0.180840
H26   H     H_    0.776870 0.130981 0.346062 0.172059
H27   H     H_    0.734952 0.003007 0.373464 0.205490
H28   H     H_    0.809399 0.017793 0.392837 0.163108
H29   H     H_    0.219611 0.193044 0.408351 0.190042
H30   H     H_    0.281995 0.206290 0.451507 0.130556
H31   H     H_    0.233623 0.973385 0.381682 0.204133
H32   H     H_    0.298563 0.973756 0.424305 0.192892
H33   H     H_    0.245392 0.030023 0.518158 0.174894
H34   H     H_    0.632726 0.406909 0.942215 0.190225
H35   H     H_    0.219132 0.887735 0.483523 0.191785
H36   H     H_    0.179556 0.026902 0.475558 0.168623
H37   H     H_    0.653025 0.607151 0.619835 0.158020
H38   H     H_    0.614513 0.582475 0.689765 0.152593
H39   H     H_    0.744506 0.586761 0.671784 0.200564
H40   H     H_    0.708865 0.575057 0.743404 0.218225
H41   H     H_    0.659304 0.380395 0.707822 0.185075
H42   H     H_    0.735656 0.368823 0.702337 0.195677
H43   H     H_    0.694166 0.392019 0.635542 0.183447
H44   H     H_    0.574609 0.620351 0.235696 0.150744
H45   H     H_    0.471401 0.690289 0.767520 0.173832
H46   H     H_    0.574192 0.614250 0.346689 0.163616
H47   H     H_    0.472135 0.683934 0.656950 0.162477
H48   H     H_    0.424285 0.391345 0.343452 0.115852
I1    I     I_    0.556984 0.077975 0.339355 -0.241876
I2    I     I_    0.658113 0.778999 0.456046 -0.389865
I3    I     I_    0.323990 0.171424 0.221758 -0.283409
I4    I     I_    0.610878 0.806978 0.812298 -0.204390
I5    I     I_    0.428572 0.022644 0.646235 -0.273630
I6    I     I_    0.473717 0.120883 0.206522 -0.182952
I7    I     I_    0.481587 0.975448 0.794904 -0.210144
I8    I     I_    0.408771 0.828309 0.397366 -0.331006
I9    I     I_    0.601803 0.159859 0.590144 -0.403183
I10   I     I_    0.323885 0.649449 0.935582 -0.145578
I11   I     I_    0.675432 0.373078 0.065163 -0.172934
I12   I     I_    0.341195 0.672271 0.622902 -0.239074
N1    N     N_R   0.852015 0.524883 0.497802 -0.391645
N2    N     N_R   0.148725 0.553079 0.497816 -0.374750
N3    N     N_R   0.498350 0.504987 0.841599 -0.387325
N4    N     N_R   0.498815 0.505530 0.159095 -0.390185
N5    N     N_R   0.500010 0.500010 0.350920 -0.224324
N6    N     N_R   0.499990 0.499990 0.649080 -0.239994
O1    O     O_R   0.500000 0.319610 0.550310 -0.484791
O2    O     O_2   0.150363 0.424476 0.581629 -0.482162
O3    O     O_2   0.852881 0.438969 0.594274 -0.459359
O4    O     O_2   0.147800 0.694652 0.419414 -0.537038
O5    O     O_2   0.593924 0.444524 0.841356 -0.494885
O6    O     O_2   0.406962 0.587514 0.159718 -0.477640
O7    O     O_2   0.403083 0.563136 0.841118 -0.420931
O8    O     O_2   0.589426 0.420698 0.159308 -0.430265
O9    O     O_3   0.207473 0.452430 0.396787 -0.555166
O10   O     O_3   0.789524 0.297565 0.514280 -0.519029
O11   O     O_3   0.291589 0.182094 0.357610 -0.564758
O12   O     O_R   0.500000 0.680390 0.449690 -0.457695
O13   O     O_3   0.660807 0.748991 0.683155 -0.530063
O14   O     O_R   0.499990 0.319670 0.449690 -0.496424
O15   O     O_R   0.500010 0.680330 0.550310 -0.522941
O16   O     O_R   0.417880 0.499930 0.550320 -0.454031
O17   O     O_R   0.582120 0.500070 0.449680 -0.478021
O18   O     O_R   0.417880 0.499990 0.449700 -0.511258
O19   O     O_R   0.582120 0.500010 0.550300 -0.517315
O20   O     O_2   0.851406 0.615231 0.402295 -0.498964

loop_
_geom_bond_atom_site_label_1
_geom_bond_atom_site_label_2
_ccdc_geom_bond_type
C77   O11   S    
C63   C65   A    
C34   C56   A    
C23   C45   A    
Cu2   O17   S    
C14   C18   A    
C53   C55   A    
Cu2   O14   S    
C24   C27   A    
C83   H42   S    
C45   H7    S    
C12   O15   A    
C81   C82   S    
C48   C57   A    
C47   C49   A    
C80   H36   S    
Cu1   Cu2   S    
C15   C19   A    
Cu1   O19   S    
C81   H37   S    
C43   I11   S    
C33   C42   A    
C1    O14   A    
C36   C37   A    
C19   C21   A    
C24   C26   A    
C54   H4    S    
C31   N3    A    
C51   H48   S    
C17   O17   A    
C30   N4    A    
C66   C69   A    
C14   I1    S    
C24   I9    S    
C58   C60   A    
C79   H32   S    
C33   C36   A    
C56   C78   A    
C60   C62   A    
C61   C63   A    
C82   H40   S    
C62   C64   A    
C74   H21   S    
C4    H10   S    
C73   H18   S    
C22   C25   A    
C57   N3    S    
C29   C38   A    
C45   C67   A    
C76   H28   S    
C31   C33   A    
C48   H45   S    
C64   C70   A    
C77   H30   S    
C35   C43   A    
C76   H26   S    
C59   N2    A    
C48   C50   A    
C71   H15   S    
C80   H33   S    
C51   N5    A    
C67   C84   A    
C19   I7    S    
C5    N2    S    
C22   C28   A    
C74   H22   S    
C56   H8    S    
C42   C44   A    
C21   I4    S    
C52   C54   A    
C8    C21   A    
C15   I5    S    
C80   H35   S    
C77   C79   S    
C49   H46   S    
C59   C61   A    
C38   C46   A    
C74   C75   S    
C49   N5    A    
C47   H44   S    
Cu1   O15   S    
C32   C35   A    
C52   H2    S    
C4    C6    A    
C58   O3    S    
C66   H1    S    
C74   O10   S    
C58   N1    A    
C41   C65   A    
C81   H38   S    
C3    C5    A    
C7    O11   S    
C50   H47   S    
C2    I2    S    
C6    C34   A    
C51   C53   A    
C20   I3    S    
C2    C4    A    
C75   C76   S    
C82   H39   S    
C62   C63   A    
C2    C78   A    
C16   O18   A    
C12   O12   A    
C73   H19   S    
C5    C23   A    
C30   O6    S    
C52   N6    A    
C22   I8    S    
C76   H27   S    
C46   H34   S    
C16   C67   S    
Cu1   O1    S    
C18   I6    S    
C9    C11   A    
C60   C66   A    
C8    C10   A    
C82   C83   S    
C13   C15   A    
C42   I10   S    
C1    C26   S    
Cu2   O12   S    
C40   O20   S    
C55   N4    S    
C47   C55   A    
C41   O2    S    
C7    C9    A    
C75   H24   S    
C9    H11   S    
C71   O9    S    
C40   N1    A    
C35   C37   A    
Cu2   O18   S    
Cu1   O16   S    
C75   H25   S    
C70   H6    S    
C83   H41   S    
C72   C73   S    
C34   O10   S    
C10   C13   A    
C29   O5    S    
C59   O4    S    
C17   O19   A    
C83   H43   S    
C39   C44   A    
C72   H17   S    
C84   I12   S    
C25   C27   A    
C71   H14   S    
C26   C28   A    
C40   C64   A    
C12   C25   S    
C36   C38   A    
Cu1   N6    S    
C71   C72   S    
C37   C39   A    
C77   H29   S    
Cu2   N5    S    
C44   H23   S    
C53   H3    S    
C6    N1    S    
C61   C68   A    
C73   H20   S    
C41   N2    A    
C72   H16   S    
C11   C28   S    
C16   O16   A    
C65   C69   A    
C79   H31   S    
C17   C78   S    
C11   C14   A    
C30   C39   A    
C18   C20   A    
C10   H13   S    
C43   C46   A    
C68   H12   S    
C1    O1    A    
C8    O13   S    
C29   N3    A    
C79   C80   S    
C50   N6    A    
C32   N4    A    
C68   C70   A    
C7    C20   A    
C3    C84   A    
C81   O13   S    
C13   C27   S    
C3    H9    S    
C32   O8    S    
C69   H5    S    
C31   O7    S    
C23   O9    S    
C54   C57   A    
