data_mof_unit_56973.cif
_audit_creation_date              2012-12-10T18:12:34-0500
_audit_creation_method            fapswitch 2.2
_symmetry_space_group_name_H-M    P1
_symmetry_Int_Tables_number       1
_space_group_crystal_system       triclinic
_cell_length_a                    12.703723
_cell_length_b                    12.8458
_cell_length_c                    15.706621
_cell_angle_alpha                 92.402915
_cell_angle_beta                  103.146217
_cell_angle_gamma                 81.442602
_cell_volume                      2468.10831757

loop_
_atom_site_label
_atom_site_type_symbol
_atom_type_description
_atom_site_fract_x
_atom_site_fract_y
_atom_site_fract_z
_atom_type_partial_charge
C1    C     C_R   0.438651 0.692248 0.492775 0.847061
C2    C     C_3   0.503087 0.501797 0.917489 -0.105242
C3    C     C_3   0.496752 0.400360 0.021185 0.411295
C4    C     C_3   0.499105 0.496335 0.083046 -0.116432
C5    C     C_3   0.589815 0.435744 0.987304 0.411571
C6    C     C_3   0.591314 0.532946 0.047915 0.363960
C7    C     C_1   0.505296 0.502581 0.826927 0.047637
C8    C     C_1   0.496352 0.495475 0.173457 0.121119
C9    C     C_R   0.685413 0.074917 0.655001 -0.152602
C10   C     C_R   0.594251 0.198886 0.540316 -0.089245
C11   C     C_R   0.303005 0.842099 0.429433 -0.241842
C12   C     C_R   0.501536 0.500884 0.661844 0.863793
C13   C     C_R   0.262752 0.950207 0.423167 0.131158
C14   C     C_R   0.324923 0.021227 0.477013 0.062011
C15   C     C_R   0.430732 0.981768 0.527407 0.022699
C16   C     C_R   0.455770 0.874689 0.547149 -0.001105
C17   C     C_R   0.515800 0.042722 0.555110 0.015578
C18   C     C_R   0.604240 0.009605 0.625904 0.067283
C19   C     C_R   0.609497 0.911820 0.664715 0.486365
C20   C     C_R   0.539961 0.841526 0.620394 -0.323011
C21   C     C_R   0.520068 0.129996 0.507502 -0.228919
C22   C     C_R   0.678655 0.170860 0.613632 -0.231996
C23   C     C_R   0.560793 0.307856 0.512837 0.885916
C24   C     C_R   0.397247 0.804340 0.491973 -0.110599
C25   C     C_R   0.080730 0.387006 0.345233 0.361117
C26   C     C_R   0.800634 0.627572 0.608049 -0.017682
C27   C     C_R   0.903375 0.660856 0.629123 0.049664
C28   C     C_R   0.982095 0.617987 0.583301 -0.205509
C29   C     C_R   0.959235 0.542056 0.516949 -0.014264
C30   C     C_R   0.853445 0.510448 0.497595 0.095047
C31   C     C_R   0.038395 0.495140 0.469886 -0.056179
C32   C     C_R   0.005082 0.435277 0.393281 -0.102425
C33   C     C_R   0.899194 0.413103 0.371248 -0.291991
C34   C     C_R   0.498547 0.499028 0.338209 0.913172
C35   C     C_R   0.831706 0.433953 0.429804 0.525250
C36   C     C_R   0.150396 0.500880 0.497803 -0.174667
C37   C     C_R   0.192194 0.388174 0.381209 0.547513
C38   C     C_3   0.412740 0.561452 0.013485 0.509940
C39   C     C_3   0.504470 0.599555 0.978793 -0.065946
C40   C     C_1   0.504879 0.502225 0.751471 -0.194541
C41   C     C_1   0.495930 0.496606 0.248745 -0.185058
C42   C     C_3   0.408632 0.464891 0.950978 -0.416567
H1    H     H_    0.459867 0.149403 0.447211 0.176836
H2    H     H_    0.261226 0.785673 0.386791 0.156137
H3    H     H_    0.551273 0.761714 0.643477 0.161932
H4    H     H_    0.873276 0.363074 0.315542 0.209082
H5    H     H_    0.183441 0.546037 0.554330 0.163633
H6    H     H_    0.738125 0.661222 0.641843 0.147871
H7    H     H_    0.059496 0.647467 0.598670 0.132019
H8    H     H_    0.335090 0.438096 0.908324 0.164212
H9    H     H_    0.735842 0.224690 0.640963 0.156161
H10   H     H_    0.752316 0.053359 0.710538 0.176325
N1    N     N_R   0.222180 0.444680 0.455580 -0.160537
N2    N     N_R   0.776980 0.554790 0.543960 -0.127885
O1    O     O_R   0.366730 0.627160 0.478790 -0.619272
O2    O     O_R   0.544830 0.662520 0.507160 -0.610176
O3    O     O_R   0.410960 0.482330 0.609040 -0.613733
O4    O     O_R   0.589060 0.517690 0.637410 -0.630608
O5    O     O_R   0.455170 0.337480 0.492840 -0.574098
O6    O     O_R   0.633270 0.372840 0.521210 -0.553449
O7    O     O_R   0.410940 0.482310 0.362590 -0.601082
O8    O     O_R   0.589040 0.517670 0.390960 -0.547955
Zn1   Zn    Zn3+2 0.381080 0.476390 0.481050 0.960711
Zn2   Zn    Zn3+2 0.618920 0.523610 0.518950 0.978384
C43   C     C_3   0.505813 0.711071 0.948861 -0.396505
C44   C     C_3   0.498392 0.791807 0.022717 -0.275151
C45   C     C_3   0.512598 0.900696 0.995923 -0.956259
H11   H     H_    0.595042 0.899182 0.982700 0.260984
H12   H     H_    0.449522 0.927338 0.936548 0.261264
H13   H     H_    0.503892 0.957708 0.049848 0.261559
H14   H     H_    0.417451 0.796893 0.039517 0.254968
H15   H     H_    0.562398 0.767352 0.082122 0.248752
H16   H     H_    0.581925 0.712278 0.925870 0.187437
H17   H     H_    0.435990 0.731609 0.892496 0.191313
C46   C     C_3   0.269401 0.131040 0.495314 -0.414504
C47   C     C_3   0.197625 0.125510 0.561194 -0.368710
C48   C     C_3   0.128299 0.231382 0.570091 -0.879280
H18   H     H_    0.181214 0.293516 0.590889 0.274079
H19   H     H_    0.070975 0.253372 0.506771 0.261361
H20   H     H_    0.079850 0.225763 0.619885 0.244035
H21   H     H_    0.142441 0.065170 0.541188 0.221463
H22   H     H_    0.250870 0.102600 0.626137 0.225842
H23   H     H_    0.328184 0.185112 0.524346 0.235021
H24   H     H_    0.220174 0.168031 0.433677 0.231749
C49   C     C_3   0.157649 0.992327 0.357788 -0.408457
C50   C     C_3   0.099852 0.909968 0.298467 -0.374121
C51   C     C_3   0.996789 0.961880 0.236017 -0.848445
H25   H     H_    0.938367 0.003571 0.273332 0.261518
H26   H     H_    0.017626 0.018964 0.193442 0.266997
H27   H     H_    0.956811 0.900754 0.193972 0.245241
H28   H     H_    0.155464 0.867664 0.258967 0.228815
H29   H     H_    0.076126 0.852456 0.339057 0.225766
H30   H     H_    0.098461 0.035158 0.393732 0.210011
H31   H     H_    0.177958 0.049703 0.315056 0.221815
O9    O     O_3   0.273598 0.323477 0.350428 -0.608375
C52   C     C_3   0.269348 0.341853 0.261665 -0.199049
H32   H     H_    0.352769 0.319835 0.250069 0.183267
H33   H     H_    0.243305 0.426074 0.243240 0.139723
H34   H     H_    0.217440 0.289821 0.218648 0.195655
O10   O     O_3   0.048112 0.326440 0.271513 -0.613773
C53   C     C_3   0.001838 0.393856 0.199501 -0.387592
H35   H     H_    0.920668 0.436331 0.204142 0.196251
H36   H     H_    0.990118 0.345275 0.138944 0.192500
H37   H     H_    0.055508 0.452257 0.192136 0.150644
O11   O     O_3   0.324224 0.626737 0.037261 -0.604668
C54   C     C_3   0.239054 0.649490 0.962902 -0.324805
H38   H     H_    0.198013 0.579167 0.941698 0.169479
H39   H     H_    0.267802 0.679494 0.908056 0.159146
H40   H     H_    0.177464 0.711925 0.980745 0.193485
C55   C     C_3   0.927745 0.744784 0.697904 -0.405956
C56   C     C_3   0.933398 0.704178 0.789463 -0.307156
C57   C     C_3   0.960573 0.788692 0.858921 -0.891865
H41   H     H_    0.041630 0.811379 0.859065 0.247636
H42   H     H_    0.897921 0.859684 0.846103 0.297001
H43   H     H_    0.962684 0.757813 0.924362 0.236416
H44   H     H_    0.853928 0.680178 0.792717 0.226583
H45   H     H_    0.997540 0.634295 0.803983 0.208030
H46   H     H_    0.006880 0.771571 0.697201 0.189111
H47   H     H_    0.863644 0.814297 0.682248 0.243697
O12   O     O_3   0.749356 0.373462 0.420886 -0.559952
C58   C     C_3   0.794957 0.266810 0.439969 -0.310406
H48   H     H_    0.839905 0.258407 0.509512 0.160772
H49   H     H_    0.848971 0.232446 0.396336 0.149819
H50   H     H_    0.727920 0.218296 0.428809 0.184761
O13   O     O_3   0.683476 0.564364 0.106303 -0.602134
C59   C     C_3   0.755120 0.597222 0.059581 -0.326657
H51   H     H_    0.731512 0.681880 0.043484 0.172933
H52   H     H_    0.760437 0.550161 0.999204 0.190099
H53   H     H_    0.838319 0.588458 0.102355 0.177022
O14   O     O_3   0.680501 0.372208 0.965170 -0.614572
C60   C     C_3   0.742485 0.315049 0.038919 -0.289965
H54   H     H_    0.699874 0.250954 0.053719 0.204463
H55   H     H_    0.762647 0.366164 0.097471 0.190299
H56   H     H_    0.820803 0.277728 0.023952 0.175103
O15   O     O_3   0.494189 0.299027 0.051253 -0.604955
C61   C     C_3   0.469699 0.230999 0.979043 -0.302978
H57   H     H_    0.524842 0.232627 0.933389 0.190617
H58   H     H_    0.382947 0.250294 0.943828 0.164715
H59   H     H_    0.481343 0.149391 0.003365 0.187302
O16   O     O_3   0.691259 0.882430 0.738271 -0.634557
C62   C     C_3   0.650222 0.833752 0.800399 -0.379134
H60   H     H_    0.647973 0.748941 0.784418 0.165187
H61   H     H_    0.568280 0.873791 0.806896 0.174087
H62   H     H_    0.706764 0.838317 0.865187 0.196349

loop_
_geom_bond_atom_site_label_1
_geom_bond_atom_site_label_2
_ccdc_geom_bond_type
C51   H25   S    
C3    C42   S    
C53   H35   S    
N1    Zn1   S    
O9    C52   S    
C4    C8    S    
C60   H56   S    
C55   H46   S    
C57   H42   S    
O15   C61   S    
C48   H18   S    
C10   C22   A    
C23   O5    A    
C30   N2    A    
C26   C27   A    
C59   H51   S    
N2    Zn2   S    
C30   C35   A    
C28   C29   A    
C1    O2    A    
C38   C42   S    
C47   H21   S    
C50   H28   S    
C62   H61   S    
C5    C6    S    
C9    C22   A    
C54   H38   S    
C15   C16   A    
C52   H34   S    
C11   C24   A    
C34   O8    A    
C43   H16   S    
C37   O9    S    
C36   H5    S    
C18   C19   A    
C49   H31   S    
O7    Zn1   S    
C55   C56   S    
C58   H50   S    
O8    Zn2   S    
C36   N1    A    
C2    C7    S    
C25   C37   A    
C21   H1    S    
C49   H30   S    
C2    C39   S    
C44   H15   S    
C19   C20   A    
C27   C55   S    
C19   O16   S    
O1    Zn1   S    
C7    C40   T    
O2    Zn2   S    
C56   H44   S    
C20   H3    S    
C26   H6    S    
C12   O4    A    
C25   C32   A    
C44   C45   S    
C16   C24   A    
C13   C14   A    
C33   H4    S    
C39   C43   S    
C35   O12   S    
C9    H10   S    
C61   H59   S    
C26   N2    A    
C57   H41   S    
O3    Zn1   S    
C48   H19   S    
C10   C21   A    
O4    Zn2   S    
C23   O6    A    
C45   H11   S    
C8    C41   T    
C4    C6    S    
C62   H62   S    
C47   H22   S    
C50   C51   S    
C59   H53   S    
C3    C5    S    
C49   C50   S    
C34   O7    A    
C17   C21   A    
C43   H17   S    
C52   H33   S    
C45   H12   S    
C12   C40   S    
C46   C47   S    
C34   C41   S    
C29   C30   A    
C28   H7    S    
C25   O10   S    
C44   H14   S    
C14   C15   A    
C16   C20   A    
C52   H32   S    
C17   C18   A    
C11   H2    S    
C47   C48   S    
C58   H48   S    
C42   H8    S    
C12   O3    A    
C61   H58   S    
C5    O14   S    
C4    C38   S    
C53   H37   S    
C51   H26   S    
O13   C59   S    
C2    C5    S    
C3    C4    S    
O12   C58   S    
C48   H20   S    
C15   C17   A    
C59   H52   S    
C56   C57   S    
C31   C36   A    
C31   C32   A    
C6    O13   S    
C61   H57   S    
C60   H55   S    
C55   H47   S    
C10   C23   S    
O11   C54   S    
O5    Zn1   S    
C56   H45   S    
O6    Zn2   S    
C45   H13   S    
C14   C46   S    
C38   O11   S    
O14   C60   S    
C1    O1    A    
C37   N1    A    
C29   C31   A    
C50   H29   S    
C62   H60   S    
C32   C33   A    
C11   C13   A    
C46   H23   S    
C38   C39   S    
C54   H39   S    
C2    C42   S    
O16   C62   S    
O10   C53   S    
C33   C35   A    
C3    O15   S    
C46   H24   S    
C58   H49   S    
C9    C18   A    
C1    C24   S    
C53   H36   S    
C43   C44   S    
C51   H27   S    
C13   C49   S    
C27   C28   A    
C6    C39   S    
C57   H43   S    
C60   H54   S    
C22   H9    S    
C54   H40   S    
