data_mof_unit_37194.cif
_audit_creation_date              2013-03-05T16:35:51-0500
_audit_creation_method            fapswitch 2.2
_symmetry_space_group_name_H-M    P1
_symmetry_Int_Tables_number       1
_space_group_crystal_system       triclinic
_cell_length_a                    23.60691
_cell_length_b                    9.082821
_cell_length_c                    7.774108
_cell_angle_alpha                 90.552386
_cell_angle_beta                  90.146421
_cell_angle_gamma                 89.412824
_cell_volume                      1666.7335158

loop_
_atom_site_label
_atom_site_type_symbol
_atom_site_description
_atom_site_fract_x
_atom_site_fract_y
_atom_site_fract_z
_atom_type_partial_charge
O1    O     O_R   0.500000 0.288390 0.642760 -0.569866
O2    O     O_R   0.500000 0.711610 0.357240 -0.568287
O3    O     O_R   0.500000 0.711610 0.642760 -0.571538
O4    O     O_R   0.500000 0.288390 0.357240 -0.570154
C1    C     C_R   0.500014 0.219988 0.499492 0.856580
C2    C     C_R   0.499972 0.780013 0.500509 0.857170
O5    O     O_R   0.417880 0.500000 0.642820 -0.562553
O6    O     O_R   0.582120 0.500000 0.357180 -0.558572
O7    O     O_R   0.582120 0.500000 0.642820 -0.558839
O8    O     O_R   0.417880 0.500000 0.357180 -0.562461
C3    C     C_R   0.209604 0.517864 0.490309 0.329816
C4    C     C_R   0.792043 0.490920 0.488241 0.299422
C5    C     C_R   0.390778 0.501983 0.499743 0.871312
C6    C     C_R   0.609473 0.497795 0.500128 0.864024
Cu1   Cu    Cu3+1 0.500000 0.500000 0.669080 1.079483
Cu2   Cu    Cu3+1 0.500000 0.500000 0.330920 1.080253
C7    C     C_R   0.299973 0.609091 0.389601 0.055971
C8    C     C_R   0.701302 0.417805 0.364283 0.067775
C9    C     C_R   0.297137 0.414180 0.605243 0.059777
C10   C     C_R   0.703754 0.562227 0.631950 0.069637
C11   C     C_R   0.328521 0.508484 0.498515 -0.169733
C12   C     C_R   0.672199 0.492353 0.499392 -0.180517
C13   C     C_R   0.879917 0.629023 0.497449 0.589840
C14   C     C_R   0.122510 0.400184 0.407254 0.592752
C15   C     C_R   0.884458 0.369932 0.454446 0.625819
C16   C     C_R   0.119075 0.635091 0.547691 0.591006
N1    N     N_R   0.853351 0.496393 0.479421 -0.431540
N2    N     N_R   0.148727 0.518114 0.481195 -0.416417
C17   C     C_R   0.943344 0.377034 0.427335 -0.062879
C18   C     C_R   0.059209 0.638431 0.540384 -0.106864
C19   C     C_R   0.939230 0.634454 0.519015 -0.105041
C20   C     C_R   0.062828 0.391231 0.406124 -0.073408
C21   C     C_R   0.971365 0.508319 0.472635 -0.090821
C22   C     C_R   0.031220 0.512796 0.472817 -0.064048
C23   C     C_R   0.974398 0.258117 0.355830 0.186458
C24   C     C_R   0.026252 0.760618 0.601005 0.167384
C25   C     C_R   0.967084 0.759375 0.587772 0.159928
C26   C     C_R   0.033531 0.266112 0.340689 0.101093
C27   C     C_1   0.499972 0.065377 0.499295 -0.114717
C28   C     C_1   0.499958 0.934625 0.500698 -0.114710
C29   C     C_R   0.240445 0.611064 0.383618 0.112888
C30   C     C_R   0.760766 0.423637 0.355122 0.112712
C31   C     C_R   0.237606 0.421377 0.602740 0.109222
C32   C     C_R   0.763370 0.555720 0.629092 0.118081
N3    N     N_1   0.500000 0.500000 0.076820 -0.008385
N4    N     N_1   0.500000 0.500000 0.923180 -0.009127
O9    O     O_2   0.848903 0.754322 0.492075 -0.531883
O10   O     O_2   0.154852 0.292461 0.336779 -0.553148
O11   O     O_2   0.858711 0.238132 0.459131 -0.493847
O12   O     O_2   0.148104 0.746354 0.620928 -0.554955
N5    N     N_3   0.945453 0.132927 0.285190 -0.504097
H1    H     H_    0.952381 0.130084 0.152312 0.242244
H2    H     H_    0.963304 0.037349 0.337126 0.243037
N6    N     N_3   0.051047 0.889004 0.678223 -0.535471
H3    H     H_    0.077892 0.938884 0.590111 0.254976
H4    H     H_    0.073025 0.859053 0.789605 0.266486
N7    N     N_3   0.936422 0.881643 0.662331 -0.530432
H5    H     H_    0.907624 0.842502 0.752623 0.252841
H6    H     H_    0.914956 0.939312 0.566392 0.289754
N8    N     N_3   0.061979 0.144372 0.257766 -0.588932
H7    H     H_    0.089536 0.093437 0.344576 0.267662
H8    H     H_    0.083755 0.181862 0.150063 0.272493
N9    N     N_3   0.210253 0.706426 0.268646 -0.550834
H9    H     H_    0.223391 0.683123 0.142895 0.252648
H10   H     H_    0.220223 0.815477 0.299091 0.270194
N10   N     N_3   0.790124 0.362788 0.209199 -0.538656
H11   H     H_    0.773294 0.409712 0.098179 0.232008
H12   H     H_    0.783013 0.249440 0.203860 0.283668
N11   N     N_3   0.204477 0.330363 0.712713 -0.555861
H13   H     H_    0.215958 0.351921 0.840387 0.253792
H14   H     H_    0.213507 0.220000 0.683733 0.269819
N12   N     N_3   0.795841 0.616412 0.768491 -0.556743
H15   H     H_    0.783418 0.566727 0.882364 0.233773
H16   H     H_    0.787193 0.729273 0.778172 0.276600
I1    I     I_    0.344985 0.766156 0.239354 -0.292890
I2    I     I_    0.658287 0.285033 0.175179 -0.286157
I3    I     I_    0.337836 0.252148 0.763102 -0.288612
I4    I     I_    0.664384 0.688692 0.834937 -0.287401

loop_
_geom_bond_atom_site_label_1
_geom_bond_atom_site_label_2
_geom_bond_distance
_ccdc_geom_bond_type
N10   H12   1.045227 S    
N9    H10   1.045215 S    
O3    C2    1.273657 A    
N3    N4    1.194415 T    
O1    C1    1.270103 A    
C24   C25   1.400443 A    
C9    C11   1.414513 A    
C16   O12   1.347649 S    
N7    H6    1.042879 S    
Cu1   Cu2   2.628893 S    
C17   C21   1.410809 A    
N8    H8    1.045255 S    
N11   H14   1.045234 S    
C4    C30   1.408103 A    
C32   N12   1.434832 S    
C8    I2    2.151739 S    
C19   C21   1.411963 A    
C3    C31   1.403181 A    
O1    Cu1   1.930915 S    
C20   C26   1.425394 A    
O2    Cu2   1.930914 S    
O5    Cu1   1.948802 S    
N10   H11   1.042243 S    
O6    Cu2   1.948800 S    
O2    C2    1.270106 A    
C10   C32   1.408208 A    
C9    C31   1.406289 A    
C7    C29   1.405861 A    
C15   C17   1.408764 A    
N6    H4    1.045133 S    
C13   O9    1.347839 S    
C18   C22   1.420126 A    
C4    N1    1.450482 S    
N5    H1    1.046322 S    
C14   O10   1.347920 S    
C23   C26   1.403897 A    
N12   H16   1.045212 S    
C27   C28   1.187754 T    
O4    C1    1.273658 A    
C7    C11   1.416159 A    
C19   C25   1.416778 A    
N8    H7    1.044172 S    
N5    H2    1.045290 S    
C13   C19   1.411089 A    
O4    Cu2   1.934838 S    
O7    C6    1.284860 A    
C14   C20   1.412091 A    
C9    I3    2.143579 S    
C21   C22   1.413995 A    
C5    C11   1.470273 S    
C26   N8    1.436133 S    
C10   C12   1.418730 A    
C16   C18   1.414260 A    
C13   N1    1.369644 A    
C1    C27   1.404296 S    
C23   N5    1.436448 S    
C2    C28   1.404305 S    
C29   N9    1.433920 S    
O3    Cu1   1.934837 S    
C7    I1    2.144320 S    
N6    H3    1.044099 S    
O6    C6    1.284065 A    
C8    C12   1.419213 A    
C14   N2    1.364076 A    
N12   H15   1.041682 S    
O8    C5    1.281014 A    
Cu2   N3    1.975400 S    
C10   I4    2.150375 S    
C15   N1    1.369461 A    
C17   C23   1.409727 A    
C16   N2    1.364599 A    
C18   C24   1.425898 A    
C6    C12   1.481123 S    
C8    C30   1.407306 A    
O7    Cu1   1.949838 S    
C4    C32   1.409525 A    
O8    Cu2   1.949840 S    
N7    H5    1.045701 S    
C3    N2    1.438643 S    
C3    C29   1.401390 A    
N11   H13   1.045422 S    
C15   O11   1.348969 S    
C24   N6    1.435794 S    
N9    H9    1.045426 S    
O5    C5    1.281949 A    
C31   N11   1.433952 S    
C30   N10   1.434148 S    
Cu1   N4    1.975400 S    
C25   N7    1.437513 S    
C20   C22   1.420848 A    
