data_mof_unit_51845.cif
_audit_creation_date              2013-03-05T16:06:16-0500
_audit_creation_method            fapswitch 2.2
_symmetry_space_group_name_H-M    P1
_symmetry_Int_Tables_number       1
_space_group_crystal_system       triclinic
_cell_length_a                    10.814898
_cell_length_b                    9.478616
_cell_length_c                    27.789642
_cell_angle_alpha                 90.00084
_cell_angle_beta                  89.812708
_cell_angle_gamma                 89.999789
_cell_volume                      2848.70835155

loop_
_atom_site_label
_atom_site_type_symbol
_atom_site_description
_atom_site_fract_x
_atom_site_fract_y
_atom_site_fract_z
_atom_type_partial_charge
O1    O     O_R   0.319640 0.618740 0.500000 -0.589535
O2    O     O_R   0.680360 0.381260 0.500000 -0.591453
O3    O     O_R   0.680360 0.618740 0.500000 -0.589535
O4    O     O_R   0.319640 0.381260 0.500000 -0.591453
C1    C     C_R   0.261962 0.499987 0.499921 0.788164
C2    C     C_R   0.738038 0.499987 0.500079 0.788166
O5    O     O_R   0.500020 0.618770 0.430260 -0.580717
O6    O     O_R   0.499980 0.381230 0.569740 -0.583505
O7    O     O_R   0.499980 0.618770 0.569740 -0.580718
O8    O     O_R   0.500020 0.381230 0.430260 -0.583506
C3    C     C_R   0.500076 0.500002 0.407224 0.835363
C4    C     C_R   0.499924 0.500004 0.592777 0.835366
Cu1   Cu    Cu3+1 0.500000 0.640660 0.500000 0.940714
Cu2   Cu    Cu3+1 0.500000 0.359340 0.500000 0.932475
C5    C     C_R   0.397333 0.560921 0.178661 0.596186
C6    C     C_R   0.602689 0.560902 0.821340 0.596209
O9    O     O_2   0.290877 0.557438 0.204143 -0.525927
O10   O     O_2   0.709145 0.557384 0.795858 -0.525891
N1    N     N_R   0.507953 0.550243 0.201872 -0.450541
N2    N     N_R   0.492066 0.550268 0.798129 -0.450542
C7    C     C_R   0.617664 0.558534 0.177460 0.524224
C8    C     C_R   0.382358 0.558598 0.822541 0.524264
C9    C     C_R   0.548131 0.642435 0.282334 -0.185443
C10   C     C_R   0.451887 0.642456 0.717667 -0.185424
C11   C     C_R   0.546386 0.628463 0.332031 -0.260086
C12   C     C_R   0.453627 0.628478 0.667970 -0.260090
C13   C     C_R   0.465059 0.389685 0.324336 0.125885
C14   C     C_R   0.534939 0.389693 0.675664 0.125876
C15   C     C_R   0.469998 0.403726 0.273921 0.464007
C16   C     C_R   0.530005 0.403742 0.726079 0.464004
C17   C     C_R   0.509028 0.531639 0.253119 0.216887
C18   C     C_R   0.490986 0.531660 0.746881 0.216870
C19   C     C_R   0.505374 0.580741 0.102128 -0.110314
C20   C     C_R   0.494654 0.580751 0.897874 -0.110323
C21   C     C_R   0.393925 0.574956 0.128497 -0.016990
C22   C     C_R   0.606101 0.574928 0.871505 -0.016977
C23   C     C_R   0.281230 0.582049 0.104417 -0.152341
C24   C     C_R   0.718798 0.581978 0.895585 -0.152365
C25   C     C_R   0.619074 0.576972 0.127037 -0.138371
C26   C     C_R   0.380953 0.577030 0.872965 -0.138388
C27   C     C_R   0.504437 0.503466 0.353968 -0.159485
C28   C     C_R   0.495565 0.503473 0.646032 -0.159483
H1    H     H_    0.194403 0.579609 0.123986 0.192893
H2    H     H_    0.805624 0.579507 0.876015 0.192900
C29   C     C_R   0.384636 0.591041 0.975354 -0.030502
C30   C     C_R   0.615395 0.590997 0.024648 -0.030506
C31   C     C_R   0.612867 0.590564 0.973411 0.089378
C32   C     C_R   0.387164 0.590601 0.026591 0.089361
C33   C     C_R   0.497330 0.588423 0.949067 0.069276
C34   C     C_R   0.502700 0.588418 0.050935 0.069275
C35   C     C_R   0.272566 0.592028 0.949291 -0.288525
C36   C     C_R   0.727465 0.591935 0.050711 -0.288544
C37   C     C_R   0.269813 0.589890 0.899222 0.487531
C38   C     C_R   0.730218 0.589790 0.100780 0.487543
O11   O     O_2   0.275538 0.545873 0.797996 -0.516869
O12   O     O_2   0.724480 0.545764 0.202005 -0.516879
C39   C     C_R   0.277598 0.589888 0.054650 -0.207128
C40   C     C_R   0.722433 0.589817 0.945352 -0.207189
H3    H     H_    0.422505 0.717097 0.646576 0.182706
H4    H     H_    0.577511 0.717082 0.353424 0.182706
H5    H     H_    0.421171 0.740603 0.733619 0.163858
H6    H     H_    0.578856 0.740576 0.266381 0.163863
H7    H     H_    0.183351 0.594545 0.966393 0.151530
H8    H     H_    0.816681 0.594416 0.033608 0.151553
H9    H     H_    0.186260 0.593338 0.039598 0.131490
H10   H     H_    0.813772 0.593243 0.960403 0.131518
C41   C     C_R   0.063901 0.371671 0.499913 -0.186701
C42   C     C_R   0.936106 0.628207 0.500060 -0.180844
C43   C     C_R   0.936100 0.371671 0.500086 -0.186702
C44   C     C_R   0.063893 0.628207 0.499941 -0.180846
H11   H     H_    0.112050 0.271444 0.499830 0.147099
H12   H     H_    0.887975 0.728444 0.500099 0.146746
H13   H     H_    0.887951 0.271444 0.500169 0.147099
H14   H     H_    0.112024 0.728444 0.499903 0.146746
C45   C     C_R   0.871800 0.499948 0.500111 -0.018302
C46   C     C_R   0.128200 0.499949 0.499889 -0.018303
C47   C     C_R   0.417147 0.074544 0.472739 -0.035704
C48   C     C_R   0.582662 0.925456 0.527368 -0.024774
C49   C     C_R   0.582853 0.074546 0.527261 -0.035701
C50   C     C_R   0.417338 0.925454 0.472632 -0.024770
H15   H     H_    0.350723 0.130984 0.451066 0.122065
H16   H     H_    0.648679 0.869035 0.549300 0.121792
H17   H     H_    0.649277 0.130987 0.548933 0.122066
H18   H     H_    0.351321 0.869032 0.450700 0.121793
N3    N     N_R   0.500000 0.852070 0.500000 -0.157242
N4    N     N_R   0.500000 0.147930 0.500000 -0.154898
N5    N     N_2   0.417159 0.261867 0.343671 -0.415152
H19   H     H_    0.472451 0.211849 0.368461 0.262296
C51   C     C_3   0.287363 0.266196 0.356212 -0.608291
H20   H     H_    0.256066 0.159108 0.366897 0.202553
H21   H     H_    0.231735 0.300633 0.324775 0.259086
H22   H     H_    0.271446 0.339703 0.386754 0.206578
N6    N     N_2   0.582831 0.261869 0.656329 -0.415167
H23   H     H_    0.527536 0.211854 0.631539 0.262297
C52   C     C_3   0.712628 0.266183 0.643789 -0.608287
H24   H     H_    0.743917 0.159091 0.633104 0.202550
H25   H     H_    0.768256 0.300615 0.675227 0.259091
H26   H     H_    0.728552 0.339687 0.613248 0.206580
O13   O     O_3   0.428122 0.295170 0.244959 -0.578188
C53   C     C_3   0.529296 0.207921 0.232702 0.053648
H27   H     H_    0.573713 0.164207 0.265655 0.143397
H28   H     H_    0.599243 0.268158 0.211547 0.162895
C54   C     C_3   0.482925 0.085033 0.202020 -0.290272
H29   H     H_    0.415986 0.021337 0.223321 0.231213
H30   H     H_    0.434536 0.126994 0.169810 0.230960
C55   C     C_3   0.589094 0.990173 0.185587 -0.949062
H31   H     H_    0.654013 0.050076 0.162214 0.263131
H32   H     H_    0.551758 0.899759 0.164756 0.255681
H33   H     H_    0.640249 0.948479 0.217112 0.253426
O14   O     O_3   0.571880 0.295189 0.755042 -0.578180
C56   C     C_3   0.470709 0.207936 0.767295 0.053609
H34   H     H_    0.426353 0.164148 0.734340 0.143434
H35   H     H_    0.400714 0.268188 0.788422 0.162860
C57   C     C_3   0.517064 0.085120 0.798013 -0.290235
H36   H     H_    0.584057 0.021409 0.776741 0.231214
H37   H     H_    0.565388 0.127158 0.830227 0.230945
C58   C     C_3   0.410896 0.990250 0.814438 -0.949077
H38   H     H_    0.345924 0.050171 0.837785 0.263109
H39   H     H_    0.448223 0.899885 0.835295 0.255681
H40   H     H_    0.359801 0.948485 0.782909 0.253429
O15   O     O_3   0.155585 0.590749 0.876856 -0.572855
C59   C     C_3   0.124406 0.730423 0.863331 0.128539
H41   H     H_    0.062983 0.723070 0.831454 0.199596
H42   H     H_    0.206013 0.794402 0.851835 0.127127
C60   C     C_3   0.054034 0.805774 0.903848 -0.436439
H43   H     H_    0.977708 0.737301 0.916951 0.228106
H44   H     H_    0.117561 0.827119 0.934313 0.215059
C61   C     C_3   0.000162 0.945647 0.886632 -0.857862
H45   H     H_    0.075069 0.016104 0.873449 0.259581
H46   H     H_    0.951663 0.998545 0.916941 0.260456
H47   H     H_    0.932668 0.927339 0.857227 0.261273
O16   O     O_3   0.844448 0.590573 0.123144 -0.572859
C62   C     C_3   0.875691 0.730222 0.136677 0.128561
H48   H     H_    0.937215 0.722808 0.168523 0.199610
H49   H     H_    0.794126 0.794192 0.148225 0.127172
C63   C     C_3   0.945942 0.805626 0.096140 -0.436584
H50   H     H_    0.022145 0.737108 0.082955 0.228093
H51   H     H_    0.882287 0.827143 0.065728 0.215067
C64   C     C_3   0.000020 0.945379 0.113371 -0.857834
H52   H     H_    0.925243 0.015864 0.126650 0.259605
H53   H     H_    0.048386 0.998342 0.083044 0.260454
H54   H     H_    0.067671 0.926890 0.142709 0.261266

loop_
_geom_bond_atom_site_label_1
_geom_bond_atom_site_label_2
_geom_bond_distance
_ccdc_geom_bond_type
O5    Cu1   1.949121 S    
C16   C18   1.407383 A    
N5    H19   1.029386 S    
N6    H23   1.029385 S    
C13   C15   1.408180 A    
C64   H53   1.110417 S    
C52   H24   1.110136 S    
C50   H18   1.081701 S    
O3    C2    1.286906 A    
N1    C17   1.435116 S    
C61   H45   1.111109 S    
C57   H36   1.111860 S    
C52   H26   1.111079 S    
C32   C39   1.416379 A    
C31   C33   1.422982 A    
C42   C45   1.400586 A    
C5    N1    1.364764 A    
C19   C25   1.413529 A    
C16   O14   1.383472 S    
O1    C1    1.286907 A    
N1    C7    1.367099 A    
C10   C12   1.387467 A    
C58   H39   1.110906 S    
C64   H54   1.111123 S    
C42   H12   1.083352 S    
C25   C38   1.409353 A    
C55   H31   1.110963 S    
C29   C35   1.413997 A    
C30   C36   1.413995 A    
O7    Cu1   1.949127 S    
O14   C56   1.412338 S    
C4    C28   1.480913 S    
C24   C40   1.385687 A    
C40   H10   1.074478 S    
C9    H6    1.082288 S    
C56   H34   1.115314 S    
C13   C27   1.422971 A    
C44   H14   1.083351 S    
C62   C63   1.533478 S    
C43   H13   1.083366 S    
C11   H4    1.083348 S    
C47   H15   1.080653 S    
C51   H21   1.111364 S    
C12   H3    1.083348 S    
C41   H11   1.083366 S    
O3    Cu1   1.961609 S    
C6    N2    1.364767 A    
C32   C34   1.422983 A    
N6    C52   1.445814 S    
Cu1   Cu2   2.666524 S    
C56   C57   1.529062 S    
O2    C2    1.286688 A    
C63   C64   1.525747 S    
C5    C21   1.400980 A    
C36   C38   1.391978 A    
C15   O13   1.383472 S    
C2    C45   1.446630 S    
C35   H7    1.074423 S    
Cu2   N4    2.003875 S    
C63   H51   1.110654 S    
C36   H8    1.074425 S    
C58   H40   1.110375 S    
C11   C27   1.406930 A    
C48   C49   1.413169 A    
O16   C62   1.417234 S    
C19   C34   1.424895 A    
C53   C54   1.529068 S    
C14   N6    1.422362 S    
C35   C37   1.391977 A    
C9    C17   1.393940 A    
C23   H1    1.083840 S    
O5    C3    1.295042 A    
C10   C18   1.393942 A    
C24   H2    1.083839 S    
C50   N3    1.365990 A    
C60   C61   1.525747 S    
C48   H16   1.081701 S    
O13   C53   1.412348 S    
C7    C25   1.412132 A    
C29   C33   1.419101 A    
O6    C4    1.295087 A    
C8    C26   1.412135 A    
C53   H28   1.113983 S    
C56   H35   1.113997 S    
C51   H22   1.111081 S    
C13   N5    1.422362 S    
O15   C59   1.417238 S    
C10   H5    1.082289 S    
C48   N3    1.365987 A    
C6    O10   1.350090 S    
N2    C8    1.367100 A    
C47   N4    1.365691 A    
N5    C51   1.445813 S    
C44   C46   1.400584 A    
C62   H48   1.111166 S    
C54   H30   1.111908 S    
C20   C26   1.413526 A    
O1    Cu1   1.961610 S    
C59   H42   1.116654 S    
C22   C24   1.393940 A    
C61   H47   1.111106 S    
C12   C28   1.406934 A    
C62   H49   1.116650 S    
N2    C18   1.435124 S    
C29   C32   1.424219 A    
C5    O9    1.350091 S    
C30   C31   1.424218 A    
C20   C33   1.424894 A    
O6    Cu2   1.949121 S    
C21   C23   1.393941 A    
C39   H9    1.074474 S    
C63   H50   1.110520 S    
C61   H46   1.110422 S    
C7    O12   1.348909 S    
C57   H37   1.111925 S    
C64   H52   1.111119 S    
C52   H25   1.111362 S    
C8    O11   1.348906 S    
C38   O16   1.384735 S    
C30   C34   1.419102 A    
C59   C60   1.533462 S    
C14   C16   1.408178 A    
C59   H41   1.111165 S    
C15   C17   1.407384 A    
C37   O15   1.384736 S    
C58   H38   1.110971 S    
C6    C22   1.400980 A    
C31   C40   1.416381 A    
C49   H17   1.080653 S    
C47   C50   1.413170 A    
C60   H43   1.110518 S    
C55   H32   1.110906 S    
C1    C46   1.446630 S    
C14   C28   1.422970 A    
C53   H27   1.115309 S    
C19   C21   1.409597 A    
C43   C45   1.400694 A    
C54   C55   1.527074 S    
C20   C22   1.409596 A    
C9    C11   1.387466 A    
O4    Cu2   1.961609 S    
O2    Cu2   1.961610 S    
O7    C4    1.295042 A    
C57   C58   1.527065 S    
O8    C3    1.295087 A    
O4    C1    1.286687 A    
C42   C44   1.381990 A    
C26   C37   1.409351 A    
C3    C27   1.480910 S    
Cu1   N3    2.003874 S    
C54   H29   1.111848 S    
C60   H44   1.110636 S    
C41   C46   1.400696 A    
C41   C43   1.382151 A    
C51   H20   1.110133 S    
C49   N4    1.365688 A    
C23   C39   1.385685 A    
O8    Cu2   1.949127 S    
C55   H33   1.110367 S    
