data_mof_unit_33418.cif
_audit_creation_date              2013-03-05T16:09:36-0500
_audit_creation_method            fapswitch 2.2
_symmetry_space_group_name_H-M    P1
_symmetry_Int_Tables_number       1
_space_group_crystal_system       triclinic
_cell_length_a                    10.512121
_cell_length_b                    10.700779
_cell_length_c                    9.886048
_cell_angle_alpha                 91.358385
_cell_angle_beta                  103.463116
_cell_angle_gamma                 90.482517
_cell_volume                      1081.0861073

loop_
_atom_site_label
_atom_site_type_symbol
_atom_site_description
_atom_site_fract_x
_atom_site_fract_y
_atom_site_fract_z
_atom_type_partial_charge
O1    O     O_R   0.499990 0.316750 0.614620 -0.592550
O2    O     O_R   0.500010 0.683250 0.385380 -0.582741
O3    O     O_R   0.499990 0.316780 0.385290 -0.611359
O4    O     O_R   0.500010 0.683220 0.614710 -0.600962
C1    C     C_R   0.504910 0.260224 0.500013 0.944258
C2    C     C_R   0.494781 0.739664 0.499874 1.022649
O5    O     O_R   0.317810 0.500000 0.571850 -0.619985
O6    O     O_R   0.682190 0.500000 0.428150 -0.617750
O7    O     O_R   0.317810 0.500030 0.342520 -0.562080
O8    O     O_R   0.682190 0.499970 0.657480 -0.566953
C3    C     C_R   0.257006 0.506852 0.443328 0.925858
C4    C     C_R   0.743031 0.504676 0.557348 0.957676
Zn1   Zn    Zn3+2 0.500000 0.499980 0.653120 1.066849
Zn2   Zn    Zn3+2 0.500000 0.500020 0.346880 1.064585
C5    C     C_R   0.586354 0.572954 0.096444 -0.078257
C6    C     C_R   0.413710 0.427063 0.903497 -0.069535
C7    C     C_R   0.587337 0.572940 0.953720 0.239977
C8    C     C_R   0.413536 0.426345 0.046320 0.242771
H1    H     H_    0.655212 0.631027 0.170367 0.201706
H2    H     H_    0.345073 0.368668 0.829559 0.173441
C9    C     C_2   0.116938 0.532305 0.417810 -0.093680
C10   C     C_2   0.884007 0.525092 0.586481 -0.104183
C11   C     C_2   0.072433 0.605786 0.510487 0.224799
C12   C     C_2   0.933615 0.607085 0.509109 0.197604
C13   C     C_R   0.437028 0.063279 0.381992 -0.234963
C14   C     C_R   0.562032 0.936367 0.618080 -0.180593
H3    H     H_    0.384623 0.113134 0.293070 0.217567
H4    H     H_    0.614477 0.886308 0.707079 0.213926
C15   C     C_R   0.424317 0.935157 0.381462 0.326500
C16   C     C_R   0.575015 0.064457 0.618343 0.314977
C17   C     C_R   0.489644 0.872218 0.500512 -0.148640
C18   C     C_R   0.509730 0.127515 0.499336 -0.204457
N1    N     N_R   0.499970 0.499970 0.857200 -0.123085
N2    N     N_R   0.500030 0.500030 0.142800 -0.126852
N3    N     N_R   0.855370 0.702486 0.430679 0.217590
O9    O     O_R   0.773645 0.764856 0.485687 -0.405168
O10   O     O_R   0.887340 0.746318 0.321270 -0.309972
N4    N     N_R   0.157279 0.687786 0.610112 0.234040
O11   O     O_R   0.134072 0.707115 0.732521 -0.300631
O12   O     O_R   0.235366 0.764640 0.568087 -0.357829
I1    I     I_    0.003565 0.405658 0.730703 -0.115996
I2    I     I_    0.987344 0.434364 0.250581 -0.140943
I3    I     I_    0.731549 0.689149 0.902272 -0.070140
I4    I     I_    0.274622 0.305075 0.098376 -0.134724
N5    N     N_R   0.342080 0.871716 0.262349 0.230020
O13   O     O_R   0.336162 0.912210 0.137922 -0.309443
O14   O     O_R   0.259586 0.785242 0.278711 -0.318146
N6    N     N_R   0.658434 0.127785 0.736583 0.230249
O15   O     O_R   0.739954 0.214426 0.718545 -0.345163
O16   O     O_R   0.667104 0.086660 0.861214 -0.320263

loop_
_geom_bond_atom_site_label_1
_geom_bond_atom_site_label_2
_geom_bond_distance
_ccdc_geom_bond_type
Zn2   N2    2.017621 S    
C16   C18   1.407104 A    
C11   C12   1.456352 S    
C7    I3    2.111990 S    
Zn1   N1    2.017620 S    
C8    I4    2.104972 S    
C6    N1    1.355964 A    
C13   H3    1.078222 S    
C11   N4    1.439538 S    
O7    C3    1.304237 A    
C5    N2    1.356866 A    
C14   H4    1.080039 S    
N3    O9    1.299695 A    
O6    C4    1.288019 A    
C6    H2    1.081911 S    
C1    C18   1.421337 S    
C13   C18   1.393860 A    
N6    O16   1.301591 A    
C2    C17   1.419833 S    
C14   C17   1.393808 A    
C15   C17   1.406901 A    
N5    O13   1.301860 A    
N4    O12   1.298604 A    
C8    N2    1.380797 A    
O2    C2    1.282870 A    
O3    Zn2   2.006062 S    
O8    C4    1.299278 A    
O1    C1    1.283581 A    
C14   C16   1.376177 A    
C16   N6    1.438653 S    
N6    O15   1.300514 A    
N3    O10   1.301353 A    
O5    C3    1.286592 A    
N5    O14   1.301282 A    
C9    C11   1.359495 D    
C13   C15   1.376152 A    
N4    O11   1.301230 A    
O2    Zn2   1.988422 S    
C10   C12   1.355240 D    
C12   N3    1.440350 S    
O1    Zn1   1.988422 S    
C9    I2    2.128978 S    
C10   I1    2.127170 S    
C4    C10   1.455920 S    
O5    Zn1   1.896585 S    
C6    C8    1.412589 A    
O4    C2    1.288683 A    
O4    Zn1   2.006062 S    
C5    C7    1.413415 A    
O7    Zn2   1.905631 S    
O6    Zn2   1.896584 S    
C7    N1    1.381385 A    
C5    H1    1.081095 S    
C3    C9    1.463854 S    
C15   N5    1.439804 S    
O3    C1    1.288794 A    
O8    Zn1   1.905630 S    
