data_mof_unit_5827.cif
_audit_creation_date              2012-10-26T20:08:05-0400
_audit_creation_method            fapswitch 2.2
_symmetry_space_group_name_H-M    P1
_symmetry_Int_Tables_number       1
_space_group_crystal_system       triclinic
_cell_length_a                    10.889125
_cell_length_b                    10.827301
_cell_length_c                    9.550373
_cell_angle_alpha                 90.057725
_cell_angle_beta                  90.961933
_cell_angle_gamma                 90.410943
_cell_volume                      1125.79903203

loop_
_atom_site_label
_atom_site_type_symbol
_atom_type_description
_atom_site_fract_x
_atom_site_fract_y
_atom_site_fract_z
_atom_type_partial_charge
C1    C     C_R   0.500062 0.262180 0.499924 0.547489
C2    C     C_R   0.506621 0.064078 0.627124 -0.144970
C3    C     C_R   0.499859 0.871723 0.500069 0.020912
C4    C     C_R   0.500141 0.128277 0.499931 0.020912
C5    C     C_R   0.459166 0.399472 0.073273 0.012822
C6    C     C_R   0.540834 0.600528 0.926727 0.012822
C7    C     C_R   0.459323 0.399451 0.924897 0.009537
C8    C     C_R   0.540677 0.600549 0.075103 0.009538
C9    C     C_R   0.262236 0.501398 0.498508 0.547315
C10   C     C_R   0.737764 0.498601 0.501492 0.547314
C11   C     C_R   0.203462 0.696599 0.071963 -0.117031
C12   C     C_R   0.499938 0.737820 0.500076 0.547489
C13   C     C_R   0.796535 0.303401 0.928036 -0.117030
C14   C     C_R   0.153784 0.672655 0.203360 -0.072063
C15   C     C_R   0.846213 0.327344 0.796639 -0.072062
C16   C     C_R   0.113062 0.553118 0.236372 0.058727
C17   C     C_R   0.886938 0.446880 0.763628 0.058725
C18   C     C_R   0.122395 0.458104 0.137547 -0.073654
C19   C     C_R   0.877608 0.541893 0.862454 -0.073655
C20   C     C_R   0.172783 0.482164 0.007071 -0.107077
C21   C     C_R   0.827219 0.517834 0.992930 -0.107078
C22   C     C_R   0.212569 0.601476 0.973660 -0.100158
C23   C     C_R   0.871733 0.497939 0.504030 -0.005711
C24   C     C_R   0.787431 0.398524 0.026340 -0.100159
C25   C     C_R   0.931566 0.524308 0.379230 -0.158125
C26   C     C_R   0.068434 0.475690 0.620770 -0.158125
C27   C     C_R   0.128267 0.502059 0.495970 -0.005711
C28   C     C_R   0.941466 0.473247 0.626688 -0.035153
C29   C     C_R   0.058534 0.526750 0.373312 -0.035152
C30   C     C_R   0.493590 0.063684 0.372808 -0.144125
C31   C     C_R   0.506410 0.936315 0.627192 -0.144125
C32   C     C_R   0.493379 0.935922 0.372875 -0.144970
Cu1   Cu    Cu3+1 0.500000 0.500020 0.640660 0.929740
Cu2   Cu    Cu3+1 0.500000 0.499980 0.359340 0.929740
H1    H     H_    0.251486 0.620006 0.872261 0.137404
H2    H     H_    0.908615 0.634521 0.837968 0.101043
H3    H     H_    0.182314 0.407440 0.933140 0.092986
H4    H     H_    0.817690 0.592557 0.066861 0.092987
H5    H     H_    0.879229 0.544820 0.285398 0.128905
H6    H     H_    0.120771 0.455178 0.714602 0.128906
H7    H     H_    0.488371 0.111554 0.273382 0.114532
H8    H     H_    0.511629 0.888446 0.726618 0.114532
H9    H     H_    0.487917 0.887733 0.273485 0.116968
H10   H     H_    0.512083 0.112266 0.726514 0.116968
H11   H     H_    0.424821 0.319149 0.127518 0.102449
H12   H     H_    0.748513 0.379994 0.127739 0.137404
H13   H     H_    0.575179 0.680851 0.872482 0.102449
H14   H     H_    0.425134 0.319077 0.869127 0.100841
H15   H     H_    0.574866 0.680923 0.130873 0.100841
H16   H     H_    0.235094 0.788722 0.046440 0.093341
H17   H     H_    0.764900 0.211279 0.953559 0.093342
H18   H     H_    0.146915 0.746749 0.279050 0.097754
H19   H     H_    0.853080 0.253252 0.720949 0.097754
H20   H     H_    0.091390 0.365475 0.162033 0.101042
N1    N     N_R   0.500030 0.500030 0.852070 -0.221358
N2    N     N_R   0.499970 0.499970 0.147930 -0.221358
O1    O     O_R   0.499990 0.319660 0.618740 -0.513684
O2    O     O_R   0.500010 0.680340 0.381260 -0.513683
O3    O     O_R   0.499990 0.319630 0.381170 -0.518915
O4    O     O_R   0.500010 0.680370 0.618830 -0.518915
O5    O     O_R   0.319650 0.500020 0.618780 -0.519308
O6    O     O_R   0.680350 0.499980 0.381220 -0.519308
O7    O     O_R   0.319640 0.500000 0.381210 -0.481432
O8    O     O_R   0.680360 0.500000 0.618790 -0.481432

loop_
_geom_bond_atom_site_label_1
_geom_bond_atom_site_label_2
_ccdc_geom_bond_type
Cu1   N1    S    
C2    C4    A    
C30   H7    S    
Cu2   N2    S    
C22   H1    S    
C31   H8    S    
C1    O1    A    
C10   C23   S    
C27   C29   A    
C5    C7    A    
C5    N2    A    
C26   C28   A    
C7    N1    A    
C6    N1    A    
C1    C4    S    
C24   H12   S    
C7    H14   S    
C8    N2    A    
C1    O3    A    
Cu1   Cu2   S    
C16   C29   S    
C12   O2    A    
Cu1   O1    S    
C11   H16   S    
C10   O6    A    
C23   C28   A    
C25   H5    S    
C3    C31   A    
C20   H3    S    
C17   C28   S    
C26   H6    S    
C26   C27   A    
Cu2   O3    S    
Cu1   O8    S    
C9    O5    A    
C15   H19   S    
Cu1   O5    S    
Cu2   O7    S    
C17   C19   A    
C32   H9    S    
C20   C22   A    
Cu1   O4    S    
C18   C20   A    
C19   H2    S    
C13   C15   A    
C25   C29   A    
C3    C32   A    
C11   C14   A    
C14   H18   S    
C4    C30   A    
C6    H13   S    
C18   H20   S    
C30   C32   A    
Cu2   O6    S    
C23   C25   A    
C9    C27   S    
Cu2   O2    S    
C21   C24   A    
C15   C17   A    
C6    C8    A    
C3    C12   S    
C11   C22   A    
C19   C21   A    
C14   C16   A    
C13   H17   S    
C9    O7    A    
C5    H11   S    
C8    H15   S    
C16   C18   A    
C10   O8    A    
C21   H4    S    
C13   C24   A    
C2    H10   S    
C2    C31   A    
C12   O4    A    
