data_mof_unit_16707.cif
_audit_creation_date              2012-12-11T15:55:38-0500
_audit_creation_method            fapswitch 2.2
_symmetry_space_group_name_H-M    P1
_symmetry_Int_Tables_number       1
_space_group_crystal_system       triclinic
_cell_length_a                    6.937336
_cell_length_b                    14.552012
_cell_length_c                    16.085703
_cell_angle_alpha                 89.987184
_cell_angle_beta                  89.994562
_cell_angle_gamma                 90.090506
_cell_volume                      1623.88497966

loop_
_atom_site_label
_atom_site_type_symbol
_atom_type_description
_atom_site_fract_x
_atom_site_fract_y
_atom_site_fract_z
_atom_type_partial_charge
O1    O     O_R   0.505680 0.583900 0.413320 -0.542752
O2    O     O_R   0.176010 0.594950 0.586080 -0.505725
O3    O     O_R   0.005680 0.416100 0.586680 -0.532527
C1    C     C_R   0.345833 0.618372 0.614151 0.762828
O4    O     O_R   0.175960 0.594930 0.413930 -0.547797
O5    O     O_R   0.005640 0.416080 0.413300 -0.544284
C2    C     C_R   0.345131 0.617318 0.385234 0.701692
O6    O     O_R   0.505720 0.583920 0.586700 -0.544418
O7    O     O_3   0.339190 0.441320 0.500000 -0.378699
V1    V     V_3+5 0.064350 0.510890 0.500000 1.450893
O8    O     O_R   0.675920 0.405050 0.413920 -0.545855
C3    C     C_R   0.844926 0.382781 0.384992 0.677294
O9    O     O_R   0.675960 0.405070 0.586070 -0.544957
C4    C     C_R   0.844708 0.383003 0.614885 0.724286
V2    V     V_3+5 0.564340 0.489110 0.500000 1.406833
O10   O     O_3   0.839370 0.558680 0.500000 -0.368753
C5    C     C_R   0.006622 0.317807 0.741888 0.142504
C6    C     C_R   0.852598 0.317530 0.685506 -0.118914
C7    C     C_R   0.701345 0.255026 0.700621 -0.183046
H1    H     H_    0.579181 0.252318 0.659052 0.132005
C8    C     C_R   0.712672 0.190826 0.766070 -0.174316
H2    H     H_    0.598288 0.140866 0.773108 0.124410
C9    C     C_R   0.875889 0.186958 0.818214 -0.109465
C10   C     C_R   0.018275 0.254027 0.806415 0.105841
C11   C     C_3   0.230019 0.242694 0.795069 -0.418726
C12   C     C_3   0.217451 0.312605 0.725128 -0.395559
H3    H     H_    0.267542 0.172514 0.773272 0.165192
H4    H     H_    0.313277 0.267732 0.849604 0.183344
H5    H     H_    0.248588 0.283258 0.662779 0.163721
H6    H     H_    0.292554 0.378275 0.739392 0.184911
C13   C     C_R   0.046831 0.224762 0.217594 -0.153980
H7    H     H_    0.187529 0.206374 0.193742 0.114953
C14   C     C_R   0.035636 0.288307 0.282810 -0.148922
H8    H     H_    0.168305 0.317054 0.306996 0.118226
C15   C     C_R   0.856100 0.314430 0.316160 -0.043943
C16   C     C_R   0.688079 0.275212 0.282379 -0.153903
H9    H     H_    0.547381 0.293601 0.306233 0.115798
C17   C     C_R   0.699274 0.211666 0.217165 -0.149857
H10   H     H_    0.566605 0.182918 0.192979 0.116124
C18   C     C_R   0.878810 0.185547 0.183812 -0.047027
C19   C     C_R   0.204367 0.698091 0.738624 0.591069
C20   C     C_R   0.214063 0.761682 0.803805 -0.216160
H11   H     H_    0.093121 0.767153 0.846115 0.165925
C21   C     C_R   0.379201 0.815835 0.815813 -0.197441
C22   C     C_R   0.533114 0.806904 0.760059 -0.153195
H12   H     H_    0.660348 0.849485 0.767388 0.148596
C23   C     C_R   0.524475 0.745307 0.693122 0.247836
C24   C     C_R   0.358830 0.688259 0.682132 -0.244635
C25   C     C_R   0.189764 0.710697 0.272264 -0.231564
H13   H     H_    0.051240 0.680855 0.287818 0.142884
C26   C     C_R   0.199879 0.773397 0.206379 0.618533
C27   C     C_R   0.377588 0.813688 0.183494 -0.175007
C28   C     C_R   0.543754 0.788601 0.228101 -0.215710
H14   H     H_    0.682054 0.818714 0.213030 0.211813
C29   C     C_R   0.533396 0.725223 0.293505 -0.153695
H15   H     H_    0.664525 0.707824 0.326440 0.141659
C30   C     C_R   0.356076 0.685596 0.316537 -0.129853
O11   O     O_R   0.229200 0.915950 0.913350 -0.541727
O12   O     O_R   0.559090 0.905000 0.086080 -0.536173
O13   O     O_R   0.729280 0.083880 0.086680 -0.544871
C31   C     C_R   0.389690 0.882351 0.114776 0.743705
O14   O     O_R   0.558920 0.904980 0.913920 -0.543839
O15   O     O_R   0.729110 0.083860 0.913300 -0.546240
C32   C     C_R   0.389811 0.883008 0.885070 0.729686
O16   O     O_R   0.229360 0.915970 0.086730 -0.499096
O17   O     O_3   0.395680 0.058580 0.000030 -0.385201
V3    V     V_3+5 0.670570 0.989070 0.999990 1.465795
O18   O     O_R   0.058820 0.094950 0.913870 -0.545017
C33   C     C_R   0.889780 0.116839 0.884929 0.682836
O19   O     O_R   0.058990 0.094970 0.086020 -0.546656
C34   C     C_R   0.889987 0.117203 0.114973 0.689111
V4    V     V_3+5 0.170560 0.010930 0.999930 1.458815
O20   O     O_3   0.895590 0.941310 0.999960 -0.343000
F1    F     F_    0.045199 0.644134 0.732688 -0.695585
N1    N     N_2   0.683780 0.744491 0.637458 -0.485326
H16   H     H_    0.754373 0.682663 0.631895 0.324087
C35   C     C_3   0.653798 0.792768 0.559954 -0.527750
H17   H     H_    0.790340 0.793828 0.523939 0.192732
H18   H     H_    0.609734 0.864872 0.572275 0.192230
H19   H     H_    0.541290 0.758074 0.522132 0.174990
F2    F     F_    0.035383 0.793100 0.164444 -0.701990

loop_
_geom_bond_atom_site_label_1
_geom_bond_atom_site_label_2
_ccdc_geom_bond_type
C29   H15   S    
C18   C34   S    
C19   C20   A    
C4    C6    S    
C15   C16   A    
C1    O6    A    
C28   H14   S    
C21   C32   S    
C11   H4    S    
O14   V3    S    
C5    C12   S    
C16   H9    S    
C7    C8    A    
C27   C31   S    
O5    C3    A    
C17   H10   S    
V2    O10   S    
C25   C30   A    
C13   C18   A    
C6    C7    A    
C22   C23   A    
C9    C33   S    
O14   C32   A    
O12   V3    S    
C19   F1    S    
O8    V2    S    
O17   V4    S    
C7    H1    S    
O13   V3    S    
O18   C33   A    
C25   C26   A    
C9    C10   A    
C13   C14   A    
O19   C34   A    
V3    O20   S    
O7    V1    S    
C26   F2    S    
C35   H18   S    
O17   V3    S    
C8    H2    S    
C20   C21   A    
C5    C6    A    
C28   C29   A    
C8    C9    A    
O11   C32   A    
O15   V3    S    
O12   C31   A    
C5    C10   A    
C26   C27   A    
C23   C24   A    
O15   C33   A    
C10   C11   S    
O4    C2    A    
O13   C34   A    
C11   C12   S    
C35   H17   S    
O2    C1    A    
N1    H16   S    
C31   O16   A    
C13   H7    S    
O18   V4    S    
C14   H8    S    
C27   C28   A    
C3    C15   S    
N1    C35   S    
O3    C4    A    
O1    V2    S    
C12   H6    S    
O6    V2    S    
O9    V2    S    
C20   H11   S    
O2    V1    S    
C21   C22   A    
C1    C24   S    
C35   H19   S    
O1    C2    A    
V4    O20   S    
O5    V1    S    
O8    C3    A    
C11   H3    S    
O16   V4    S    
C29   C30   A    
O7    V2    S    
C23   N1    S    
O4    V1    S    
O3    V1    S    
V1    O10   S    
C17   C18   A    
O11   V4    S    
C16   C17   A    
C14   C15   A    
C19   C24   A    
C22   H12   S    
C12   H5    S    
C25   H13   S    
O19   V4    S    
O9    C4    A    
C2    C30   S    
