data_mof_unit_21472.cif
_audit_creation_date              2013-03-05T15:48:50-0500
_audit_creation_method            fapswitch 2.2
_symmetry_space_group_name_H-M    P1
_symmetry_Int_Tables_number       1
_space_group_crystal_system       triclinic
_cell_length_a                    17.605207
_cell_length_b                    24.266311
_cell_length_c                    15.179896
_cell_angle_alpha                 89.871065
_cell_angle_beta                  126.208911
_cell_angle_gamma                 90.19294
_cell_volume                      5232.55665092

loop_
_atom_site_label
_atom_site_type_symbol
_atom_site_description
_atom_site_fract_x
_atom_site_fract_y
_atom_site_fract_z
_atom_type_partial_charge
C1    C     C_R   0.901550 0.876368 0.090799 -0.134270
C2    C     C_R   0.943049 0.152020 0.091156 -0.141386
C3    C     C_R   0.401444 0.376226 0.090703 -0.136366
C4    C     C_R   0.402200 0.624401 0.090852 -0.135596
H1    H     H_    0.930807 0.868085 0.174945 0.091300
H2    H     H_    0.984371 0.164192 0.175885 0.085941
H3    H     H_    0.430399 0.367992 0.174779 0.088769
H4    H     H_    0.431584 0.632684 0.175019 0.090172
N1    N     N_R   0.950530 0.896220 0.057200 -0.038858
N2    N     N_R   0.950530 0.103780 0.057200 -0.034743
N3    N     N_R   0.450530 0.396220 0.057200 -0.040275
N4    N     N_R   0.450530 0.603780 0.057200 -0.038795
C5    C     C_R   0.851136 0.152088 0.908545 -0.140660
C6    C     C_R   0.809535 0.876331 0.907359 -0.136662
C7    C     C_R   0.310111 0.624438 0.907277 -0.138167
C8    C     C_R   0.309486 0.376229 0.907305 -0.138168
H5    H     H_    0.806777 0.164352 0.823814 0.087175
H6    H     H_    0.753691 0.868456 0.822710 0.093120
H7    H     H_    0.254353 0.632251 0.822541 0.093294
H8    H     H_    0.253456 0.368646 0.822559 0.091061
N5    N     N_R   0.893330 0.103780 0.942800 -0.035492
N6    N     N_R   0.893330 0.896220 0.942800 -0.040077
N7    N     N_R   0.393330 0.603780 0.942800 -0.040921
N8    N     N_R   0.393330 0.396220 0.942800 -0.041605
C9    C     C_R   0.743931 0.954311 0.696278 -0.148713
C10   C     C_R   0.743025 0.046230 0.697791 -0.136653
C11   C     C_R   0.246093 0.454553 0.694557 -0.154496
C12   C     C_R   0.247087 0.546173 0.695385 -0.157288
H9    H     H_    0.731406 0.911860 0.669936 0.088982
H10   H     H_    0.728778 0.089064 0.674047 0.087129
H11   H     H_    0.232272 0.411998 0.668753 0.087596
H12   H     H_    0.236103 0.588877 0.670718 0.089692
N9    N     N_R   0.818150 0.971400 0.792440 -0.035310
N10   N     N_R   0.818150 0.028600 0.792440 -0.036336
N11   N     N_R   0.318150 0.471400 0.792440 -0.035011
N12   N     N_R   0.318150 0.528600 0.792440 -0.035356
C13   C     C_R   0.038602 0.047225 0.296385 -0.148318
C14   C     C_R   0.040639 0.954895 0.299984 -0.165535
C15   C     C_R   0.543643 0.545529 0.300602 -0.166398
C16   C     C_R   0.544240 0.453458 0.299553 -0.159440
H13   H     H_    0.050170 0.090166 0.319756 0.090718
H14   H     H_    0.053745 0.912867 0.329249 0.097085
H15   H     H_    0.554893 0.587858 0.327867 0.096170
H16   H     H_    0.558004 0.410854 0.325332 0.092107
N13   N     N_R   0.025710 0.028600 0.207560 -0.038185
N14   N     N_R   0.025710 0.971400 0.207560 -0.036181
N15   N     N_R   0.525710 0.528600 0.207560 -0.035604
N16   N     N_R   0.525710 0.471400 0.207560 -0.036048
C17   C     C_R   0.812320 0.863301 0.998520 -0.002519
C18   C     C_R   0.882666 0.183570 0.999817 -0.004248
C19   C     C_R   0.312151 0.363186 0.998451 -0.003152
C20   C     C_R   0.313288 0.637860 0.998520 -0.003669
C21   C     C_R   0.696148 0.000356 0.634754 0.007084
C22   C     C_R   0.201067 0.500674 0.631627 0.011679
C23   C     C_R   0.045596 0.001752 0.354704 0.077933
C24   C     C_R   0.548867 0.498993 0.355469 0.085107
C25   C     C_R   0.267655 0.953850 0.247407 -0.123169
C26   C     C_R   0.267873 0.046260 0.247335 -0.126957
C27   C     C_R   0.770268 0.454715 0.263268 -0.122259
C28   C     C_R   0.768427 0.547041 0.255064 -0.124241
H17   H     H_    0.288329 0.911180 0.262958 0.088217
H18   H     H_    0.289141 0.088931 0.263102 0.088138
H19   H     H_    0.794044 0.413671 0.294311 0.078822
H20   H     H_    0.788034 0.589954 0.269222 0.088184
N17   N     N_R   0.181850 0.971400 0.207560 -0.039065
N18   N     N_R   0.181850 0.028600 0.207560 -0.039232
N19   N     N_R   0.681850 0.471400 0.207560 -0.033489
N20   N     N_R   0.681850 0.528600 0.207560 -0.036430
C29   C     C_R   0.016505 0.046817 0.750031 -0.059549
C30   C     C_R   0.013022 0.954124 0.744767 -0.096410
C31   C     C_R   0.482280 0.546384 0.716354 -0.065926
C32   C     C_R   0.477052 0.453503 0.713618 -0.039118
H21   H     H_    0.025920 0.089806 0.740926 0.089638
H22   H     H_    0.015703 0.911677 0.725733 0.129320
H23   H     H_    0.480095 0.589049 0.694553 0.118362
H24   H     H_    0.466787 0.411112 0.688360 0.068875
N21   N     N_R   0.974290 0.028600 0.792440 -0.053310
N22   N     N_R   0.974290 0.971400 0.792440 -0.053779
N23   N     N_R   0.474290 0.528600 0.792440 -0.045437
N24   N     N_R   0.474290 0.471400 0.792440 -0.042325
C33   C     C_R   0.058441 0.848252 0.908544 -0.100290
C34   C     C_R   0.056461 0.152622 0.908960 -0.126218
C35   C     C_R   0.593245 0.370087 0.908653 -0.074658
C36   C     C_R   0.559134 0.651475 0.908173 -0.078465
H25   H     H_    0.016396 0.835700 0.824021 0.087707
H26   H     H_    0.013151 0.165608 0.824658 0.082267
H27   H     H_    0.562077 0.359153 0.825318 0.080274
H28   H     H_    0.518086 0.663556 0.823398 0.088937
N25   N     N_R   0.049470 0.896220 0.942800 -0.033072
N26   N     N_R   0.049470 0.103780 0.942800 -0.030522
N27   N     N_R   0.549470 0.396220 0.942800 -0.046051
N28   N     N_R   0.549470 0.603780 0.942800 -0.032290
C37   C     C_R   0.148180 0.152770 0.090848 -0.133883
C38   C     C_R   0.149549 0.847726 0.090779 -0.139968
C39   C     C_R   0.649620 0.652304 0.090597 -0.140362
C40   C     C_R   0.683059 0.367318 0.091605 -0.144047
H29   H     H_    0.190624 0.165971 0.175023 0.081288
H30   H     H_    0.191899 0.834306 0.174828 0.084848
H31   H     H_    0.691653 0.665828 0.174544 0.085158
H32   H     H_    0.731290 0.351737 0.173206 0.083023
N29   N     N_R   0.106670 0.103780 0.057200 -0.028975
N30   N     N_R   0.106670 0.896220 0.057200 -0.031094
N31   N     N_R   0.606670 0.603780 0.057200 -0.031603
N32   N     N_R   0.606670 0.396220 0.057200 -0.037952
Ni1   Ni    Ni4+2 0.065600 0.934400 0.131190 0.212400
Ni2   Ni    Ni4+2 0.065600 0.065600 0.131190 0.212035
Ni3   Ni    Ni4+2 0.565600 0.434400 0.131190 0.213899
Ni4   Ni    Ni4+2 0.565600 0.565600 0.131190 0.214984
Ni5   Ni    Ni4+2 0.934400 0.065600 0.868810 0.216713
Ni6   Ni    Ni4+2 0.934400 0.934400 0.868810 0.215389
Ni7   Ni    Ni4+2 0.434400 0.565600 0.868810 0.219945
Ni8   Ni    Ni4+2 0.434400 0.434400 0.868810 0.215806
C41   C     C_R   0.324106 0.000068 0.273899 0.010470
C42   C     C_R   0.825534 0.501157 0.288598 0.003567
C43   C     C_R   0.035809 0.001108 0.712269 0.108062
C44   C     C_R   0.487342 0.499507 0.668666 0.056366
C45   C     C_R   0.119831 0.816691 0.999429 -0.016987
C46   C     C_R   0.116874 0.184478 0.999743 -0.010136
C47   C     C_R   0.679555 0.354077 0.000633 0.029038
C48   C     C_R   0.620063 0.683211 0.999040 -0.025579
C49   C     C_3   0.044824 0.062737 0.484611 -0.459385
C50   C     C_3   0.957182 0.972195 0.421915 -0.424286
C51   C     C_3   0.445218 0.533113 0.399334 -0.423122
C52   C     C_3   0.517598 0.438411 0.460713 -0.463398
H33   H     H_    0.112341 0.083764 0.514307 0.187123
H34   H     H_    0.950981 0.930531 0.387569 0.149423
H35   H     H_    0.449360 0.575245 0.373362 0.148877
H36   H     H_    0.583033 0.413789 0.497028 0.187640
H37   H     H_    0.987720 0.086523 0.412464 0.159253
H38   H     H_    0.894109 0.995995 0.357141 0.177017
H39   H     H_    0.382657 0.512679 0.326266 0.176662
H40   H     H_    0.461731 0.417962 0.382352 0.158971
C53   C     C_3   0.030309 0.063215 0.574214 -0.096047
C54   C     C_3   0.960206 0.965437 0.523921 -0.124775
C55   C     C_3   0.434123 0.539235 0.491156 -0.126357
C56   C     C_3   0.489758 0.438546 0.538094 -0.093228
H41   H     H_    0.084954 0.090709 0.640332 0.144244
H42   H     H_    0.973915 0.921503 0.547435 0.163068
H43   H     H_    0.451208 0.582289 0.520280 0.163945
H44   H     H_    0.537059 0.408838 0.604384 0.139102
H45   H     H_    0.199579 0.988190 0.557685 0.206565
H46   H     H_    0.131462 0.928888 0.527731 0.194842
H47   H     H_    0.626334 0.567542 0.530232 0.195180
H48   H     H_    0.687174 0.505106 0.564315 0.207300
C57   C     C_3   0.135822 0.973150 0.548859 -0.566874
C58   C     C_3   0.621384 0.523324 0.545621 -0.571152
C59   C     C_3   0.046980 0.002546 0.451682 0.274964
C60   C     C_3   0.534589 0.498377 0.439781 0.276859
C61   C     C_3   0.041924 0.002407 0.619323 -0.032887
C62   C     C_3   0.504189 0.498665 0.586096 -0.016731
C63   C     C_3   0.141839 0.980240 0.655785 0.556498
C64   C     C_3   0.611289 0.516364 0.640577 0.564183
C65   C     C_3   0.750472 0.209012 0.997530 -0.373031
C66   C     C_3   0.652000 0.819596 0.894818 -0.393824
C67   C     C_3   0.152896 0.681068 0.894836 -0.395193
C68   C     C_3   0.151032 0.320150 0.894777 -0.395239
H49   H     H_    0.702679 0.184029 0.922420 0.160302
H50   H     H_    0.647950 0.817944 0.819070 0.151758
H51   H     H_    0.148991 0.682893 0.819173 0.152106
H52   H     H_    0.147149 0.318441 0.819137 0.145781
H53   H     H_    0.776372 0.181544 0.068933 0.159244
H54   H     H_    0.617064 0.858290 0.892388 0.165889
H55   H     H_    0.117984 0.642194 0.892382 0.162090
H56   H     H_    0.116400 0.358979 0.892359 0.163185
C69   C     C_3   0.099423 0.731047 0.894940 -0.396941
C70   C     C_3   0.097126 0.270079 0.894760 -0.398881
C71   C     C_3   0.695247 0.256008 0.000022 -0.414805
C72   C     C_3   0.598685 0.769336 0.895092 -0.398133
H57   H     H_    0.696878 0.252061 0.074258 0.161499
H58   H     H_    0.537248 0.783136 0.892643 0.165262
H59   H     H_    0.037542 0.716923 0.891547 0.162086
H60   H     H_    0.034985 0.284095 0.890675 0.157844
H61   H     H_    0.072755 0.755296 0.819795 0.162273
H62   H     H_    0.070816 0.245715 0.819932 0.149545
H63   H     H_    0.620274 0.252854 0.927653 0.158665
H64   H     H_    0.571328 0.745382 0.819542 0.162423
H65   H     H_    0.304885 0.739904 0.928542 0.171232
H66   H     H_    0.302152 0.261081 0.928674 0.163224
H67   H     H_    0.750069 0.245543 0.821290 0.151619
H68   H     H_    0.804606 0.761783 0.928402 0.168822
H69   H     H_    0.226455 0.812761 0.929422 0.204762
H70   H     H_    0.224174 0.188175 0.931112 0.175469
H71   H     H_    0.665147 0.312518 0.820976 0.146972
H72   H     H_    0.725516 0.688602 0.927689 0.202521
C73   C     C_3   0.303718 0.737012 0.000986 -0.397516
C74   C     C_3   0.301303 0.264174 0.001297 -0.394407
C75   C     C_3   0.796066 0.269031 0.898497 -0.426818
C76   C     C_3   0.803108 0.764228 0.000638 -0.402338
C77   C     C_3   0.898389 0.267754 0.103625 -0.411105
C78   C     C_3   0.754044 0.820888 0.099536 -0.395859
C79   C     C_3   0.254800 0.679523 0.099574 -0.395039
C80   C     C_3   0.252776 0.321814 0.099523 -0.391431
C81   C     C_3   0.833870 0.231834 0.999822 0.392431
C82   C     C_3   0.755706 0.818585 0.998311 0.382205
C83   C     C_3   0.256546 0.682309 0.998399 0.380467
C84   C     C_3   0.254662 0.318924 0.998423 0.381479
H73   H     H_    0.959708 0.283423 0.107319 0.154925
H74   H     H_    0.826187 0.820707 0.176978 0.147085
H75   H     H_    0.326984 0.680163 0.176974 0.147282
H76   H     H_    0.324925 0.320954 0.176965 0.145760
H77   H     H_    0.925965 0.243538 0.179031 0.149731
H78   H     H_    0.719041 0.859370 0.097917 0.163035
H79   H     H_    0.220425 0.640637 0.098184 0.160948
H80   H     H_    0.219121 0.360846 0.098193 0.160714
C85   C     C_3   0.165965 0.766472 0.999050 0.366451
C86   C     C_3   0.163168 0.234842 0.999277 0.376639
C87   C     C_3   0.737838 0.311857 0.000143 0.352728
C88   C     C_3   0.665712 0.733757 0.998744 0.370621
C89   C     C_3   0.250749 0.786221 0.001550 -0.355507
C90   C     C_3   0.248189 0.215081 0.002599 -0.370515
C91   C     C_3   0.737529 0.316031 0.897568 -0.341765
C92   C     C_3   0.750144 0.714629 0.000439 -0.358593
C93   C     C_3   0.201506 0.729489 0.100125 -0.397681
C94   C     C_3   0.198405 0.272055 0.099829 -0.399274
C95   C     C_3   0.841925 0.316117 0.102445 -0.388659
C96   C     C_3   0.701594 0.770313 0.100332 -0.398387
H81   H     H_    0.847894 0.314717 0.179408 0.143599
H82   H     H_    0.641447 0.783761 0.100764 0.160725
H83   H     H_    0.141088 0.715310 0.099648 0.159899
H84   H     H_    0.137707 0.286485 0.098323 0.155061
H85   H     H_    0.250415 0.752618 0.177180 0.147937
H86   H     H_    0.246467 0.249044 0.177237 0.146751
H87   H     H_    0.873228 0.355857 0.101556 0.168230
H88   H     H_    0.751211 0.747140 0.177074 0.148130
H89   H     H_    0.378120 0.738772 0.074983 0.156836
H90   H     H_    0.375781 0.262466 0.075115 0.157537
H91   H     H_    0.855688 0.286115 0.900223 0.165760
H92   H     H_    0.877413 0.762548 0.074837 0.157687
H93   H     H_    0.299522 0.811449 0.075963 0.157839
H94   H     H_    0.296838 0.190223 0.077591 0.159385
H95   H     H_    0.766732 0.356479 0.896104 0.214471
H96   H     H_    0.798983 0.689078 0.074277 0.158057
C97   C     C_3   0.475669 0.947811 0.362997 -0.395279
C98   C     C_3   0.476896 0.051154 0.360227 -0.397076
C99   C     C_3   0.976480 0.453096 0.360653 -0.394803
C100  C     C_3   0.973571 0.556117 0.373609 -0.401421
H97   H     H_    0.441494 0.909439 0.363501 0.145505
H98   H     H_    0.444861 0.090100 0.361923 0.145858
H99   H     H_    0.945511 0.412795 0.358850 0.144063
H100  H     H_    0.941338 0.592650 0.383376 0.147162
H101  H     H_    0.473320 0.947197 0.288121 0.170286
H102  H     H_    0.471951 0.050978 0.283684 0.169789
H103  H     H_    0.968198 0.457158 0.282346 0.166509
H104  H     H_    0.964806 0.560676 0.295097 0.167627
C101  C     C_3   0.578311 0.947177 0.465201 -0.403550
C102  C     C_3   0.580884 0.050737 0.460065 -0.397026
C103  C     C_3   0.081541 0.452627 0.456813 -0.403883
C104  C     C_3   0.078348 0.555891 0.469320 -0.407420
H105  H     H_    0.626641 0.943990 0.440944 0.168255
H106  H     H_    0.627264 0.049174 0.432834 0.171228
H107  H     H_    0.125147 0.455952 0.426013 0.172547
H108  H     H_    0.121718 0.560756 0.438587 0.170122
H109  H     H_    0.588104 0.909785 0.513292 0.149108
H110  H     H_    0.595743 0.090009 0.505073 0.145484
H111  H     H_    0.097707 0.412414 0.499476 0.146863
H112  H     H_    0.091706 0.592184 0.521206 0.149339
H113  H     H_    0.397165 0.964296 0.475442 0.160811
H114  H     H_    0.395595 0.038203 0.472300 0.161289
H115  H     H_    0.906186 0.457685 0.485467 0.158542
H116  H     H_    0.904237 0.531392 0.493631 0.161377
H117  H     H_    0.548050 0.967027 0.623941 0.160142
H118  H     H_    0.547710 0.040922 0.617271 0.161486
H119  H     H_    0.059641 0.456972 0.624835 0.156627
H120  H     H_    0.058277 0.530649 0.634249 0.160063
C105  C     C_3   0.432128 0.001300 0.470522 -0.385310
C106  C     C_3   0.939231 0.496413 0.483385 -0.398929
C107  C     C_3   0.425259 0.000077 0.363758 0.374954
C108  C     C_3   0.926727 0.501805 0.373856 0.386395
C109  C     C_3   0.600001 0.000229 0.533725 0.384263
C110  C     C_3   0.103564 0.501290 0.534901 0.392716
C111  C     C_3   0.534423 0.002580 0.569828 -0.387410
C112  C     C_3   0.043046 0.495980 0.577905 -0.385512
C113  C     C_1   0.938418 0.089438 0.531384 0.062487
N33   N     N_1   0.867053 0.110173 0.498111 -0.101664
C114  C     C_1   0.865844 0.975720 0.497295 0.083074
N34   N     N_1   0.792151 0.983598 0.476659 -0.105024
C115  C     C_1   0.334339 0.532499 0.448713 0.075205
N35   N     N_1   0.256258 0.527383 0.415376 -0.108577
C116  C     C_1   0.392996 0.416173 0.482074 0.061676
N36   N     N_1   0.317766 0.398411 0.438524 -0.103221
N37   N     N_R   0.215845 0.020965 0.730853 0.232098
O1    O     O_R   0.229521 0.033426 0.822651 -0.386910
O2    O     O_R   0.267887 0.045539 0.707651 -0.431700
N38   N     N_R   0.166036 0.926446 0.713228 0.210884
O3    O     O_R   0.122915 0.881240 0.661072 -0.486288
O4    O     O_R   0.236728 0.922426 0.815896 -0.361228
N39   N     N_R   0.637525 0.569301 0.701233 0.211609
O5    O     O_R   0.602483 0.615947 0.650466 -0.487122
O6    O     O_R   0.703622 0.571001 0.805903 -0.358725
N40   N     N_R   0.675537 0.472560 0.717917 0.228293
O7    O     O_R   0.680377 0.462217 0.805315 -0.403393
O8    O     O_R   0.726983 0.442889 0.700538 -0.450277

loop_
_geom_bond_atom_site_label_1
_geom_bond_atom_site_label_2
_geom_bond_distance
_ccdc_geom_bond_type
C26   H18   1.078118 S    
H47   C58   1.111675 S    
C35   H27   1.073391 S    
C34   N26   1.324673 A    
C53   H41   1.111707 S    
C87   C95   1.554858 S    
N25   N30   1.401318 A    
C30   N22   1.323158 A    
C100  C104  1.532059 S    
C40   C47   1.383943 A    
C29   N21   1.313001 A    
N11   N12   1.388033 A    
N8    Ni8   1.895504 S    
C8    C19   1.392165 A    
N27   N32   1.401318 A    
C4    H4    1.077011 S    
C102  C109  1.554890 S    
C79   C93   1.538677 S    
C31   N23   1.315026 A    
C93   H83   1.112780 S    
C64   N39   1.486661 S    
C71   H57   1.114093 S    
N13   N14   1.388033 A    
C55   H43   1.104670 S    
C52   C60   1.554087 S    
N4    N7    1.401318 A    
C78   C96   1.537691 S    
C14   N14   1.326800 A    
C91   H95   1.112736 S    
C4    C20   1.389485 A    
C1    H1    1.076806 S    
C80   C84   1.556263 S    
C74   C84   1.551152 S    
N38   O3    1.301800 A    
C46   C86   1.469013 S    
C9    C21   1.379047 A    
C66   H50   1.110036 S    
C3    H3    1.076820 S    
C19   C84   1.473149 S    
C95   H81   1.109907 S    
C92   H96   1.114395 S    
C18   C81   1.454839 S    
C39   H31   1.079496 S    
N1    N6    1.401318 A    
C6    C17   1.391161 A    
H67   C75   1.110322 S    
C17   C82   1.469649 S    
C38   H30   1.079644 S    
N1    Ni1   1.878213 S    
N14   Ni1   1.901073 S    
C33   C45   1.377382 A    
N3    N8    1.401318 A    
H70   C90   1.114414 S    
H65   C73   1.114002 S    
C52   H40   1.116099 S    
N30   Ni1   1.900348 S    
H69   C89   1.114405 S    
N40   O7    1.302094 A    
C98   H98   1.110290 S    
C35   C47   1.379957 A    
C87   C91   1.556934 S    
C97   H97   1.109376 S    
C50   C54   1.526071 S    
C36   N28   1.321492 A    
C77   C95   1.533796 S    
N28   N31   1.401318 A    
C27   N19   1.322725 A    
H118  C111  1.114261 S    
C93   H85   1.111011 S    
C56   H44   1.111978 S    
C26   N18   1.325987 A    
C14   C23   1.381443 A    
N15   N16   1.388033 A    
C16   C24   1.367451 A    
C104  H108  1.111117 S    
C30   H22   1.079092 S    
C26   C41   1.390279 A    
C116  N36   1.157553 T    
C49   C59   1.552655 S    
C29   H21   1.077049 S    
N31   Ni4   1.895502 S    
C22   C110  1.457731 S    
C68   C70   1.539137 S    
C4    N4    1.323961 A    
H68   C76   1.114032 S    
C28   C42   1.382010 A    
C99   H103  1.112991 S    
N28   Ni7   1.878211 S    
C32   H24   1.075423 S    
C52   H36   1.113936 S    
C73   C89   1.520725 S    
C33   N25   1.323346 A    
C50   H34   1.113689 S    
C86   C94   1.553631 S    
C7    N7    1.326234 A    
H114  C105  1.113930 S    
C76   C82   1.552384 S    
C8    N8    1.327102 A    
C70   H60   1.112938 S    
C75   C81   1.552991 S    
H120  C112  1.114436 S    
C65   H49   1.114321 S    
C54   C114  1.481373 S    
C43   C61   1.477339 S    
C61   C63   1.595181 S    
C66   C72   1.537987 S    
C2    H2    1.079593 S    
C20   C83   1.471853 S    
C79   H79   1.112773 S    
C73   C83   1.551652 S    
C99   C103  1.536943 S    
C88   C92   1.544360 S    
C57   C59   1.551806 S    
C39   N31   1.326287 A    
C28   H20   1.077356 S    
H72   C92   1.114461 S    
C78   C82   1.555182 S    
C58   C60   1.542824 S    
N19   Ni3   1.878257 S    
N2    N5    1.401318 A    
C9    H9    1.079740 S    
C11   C22   1.378411 A    
H46   C57   1.110973 S    
C52   C56   1.516639 S    
C67   H51   1.110128 S    
N19   N20   1.388033 A    
C48   C88   1.465591 S    
C12   H12   1.079585 S    
C56   C116  1.484655 S    
H113  C105  1.114014 S    
C38   N30   1.327841 A    
H48   C58   1.109978 S    
C37   N29   1.328199 A    
C96   H88   1.111048 S    
N4    Ni4   1.882443 S    
C53   C61   1.587488 S    
C3    C19   1.389313 A    
C100  H104  1.112961 S    
C78   H78   1.112766 S    
C25   C41   1.389099 A    
C103  H107  1.112622 S    
C102  H110  1.110623 S    
C67   H55   1.112750 S    
N37   O1    1.302388 A    
C34   H26   1.079490 S    
C54   C61   1.583504 S    
C11   H11   1.080050 S    
N25   Ni6   1.882445 S    
C109  C111  1.544240 S    
C100  H100  1.110548 S    
C65   H53   1.114399 S    
C57   C63   1.572689 S    
C33   H25   1.079390 S    
C71   C87   1.546125 S    
N27   Ni8   1.882445 S    
C24   C60   1.442712 S    
C7    H7    1.078169 S    
C41   C107  1.470391 S    
N26   N29   1.401318 A    
C49   H33   1.113696 S    
H66   C74   1.114016 S    
C42   C108  1.457716 S    
C72   C88   1.555850 S    
C104  C110  1.555503 S    
C94   H86   1.110871 S    
C86   C90   1.545480 S    
C5    H5    1.079759 S    
C23   C59   1.458029 S    
C15   C24   1.372362 A    
C74   H90   1.113941 S    
C85   C89   1.545141 S    
C104  H112  1.110928 S    
C36   C48   1.377492 A    
C3    N3    1.325181 A    
C25   N17   1.323954 A    
C51   H39   1.115659 S    
N24   Ni8   1.896368 S    
N12   Ni7   1.878258 S    
N39   O6    1.302262 A    
C113  N33   1.157677 T    
C80   H80   1.112719 S    
C1    N1    1.323427 A    
C80   C94   1.540044 S    
C8    H8    1.078146 S    
C7    C20   1.392126 A    
C51   C60   1.558302 S    
N21   Ni5   1.901072 S    
C105  C107  1.552642 S    
C12   N12   1.319354 A    
C90   H94   1.114352 S    
N26   Ni5   1.878211 S    
C106  C108  1.548143 S    
C69   H59   1.112770 S    
C98   H102  1.112730 S    
C58   C64   1.561782 S    
C97   H101  1.112818 S    
H119  C112  1.114369 S    
C114  N34   1.157206 T    
C75   C91   1.534185 S    
N15   Ni4   1.896369 S    
C21   C109  1.466347 S    
C74   C90   1.519261 S    
N39   O5    1.301847 A    
N3    Ni3   1.878213 S    
C73   H89   1.113922 S    
C30   C43   1.390110 A    
H116  C106  1.114242 S    
C110  C112  1.548642 S    
C27   H19   1.075584 S    
N2    Ni2   1.882443 S    
C47   C87   1.455576 S    
C37   C46   1.380545 A    
C34   C46   1.376757 A    
C98   C107  1.554094 S    
C13   N13   1.309325 A    
C35   N27   1.319657 A    
C2    N2    1.318068 A    
C10   C21   1.378956 A    
C37   H29   1.079737 S    
C51   H35   1.112508 S    
N29   Ni2   1.895502 S    
N7    Ni7   1.900348 S    
N13   Ni2   1.896369 S    
C78   H74   1.109548 S    
N40   O8    1.302255 A    
C15   N15   1.318383 A    
C102  H106  1.112689 S    
C77   H73   1.113069 S    
C99   C108  1.555602 S    
C103  C110  1.552439 S    
C40   N32   1.322178 A    
C101  H105  1.111858 S    
C16   N16   1.306154 A    
C29   C43   1.382000 A    
C12   C22   1.372769 A    
C51   C55   1.525067 S    
C68   C84   1.553590 S    
C55   C115  1.479585 S    
C99   H99   1.110545 S    
C6    H6    1.077739 S    
C66   H54   1.112744 S    
C64   N40   1.490368 S    
C36   H28   1.079458 S    
C79   H75   1.109757 S    
C76   H92   1.113966 S    
C95   H87   1.113097 S    
C54   H42   1.104780 S    
C56   C62   1.583478 S    
N17   Ni1   1.878257 S    
C13   C23   1.372685 A    
C25   H17   1.077169 S    
C68   H52   1.110065 S    
H45   C57   1.109441 S    
C39   C48   1.381446 A    
N37   O2    1.302198 A    
C55   C62   1.571391 S    
N20   Ni4   1.882347 S    
C32   C44   1.373285 A    
C70   H62   1.110822 S    
C45   C85   1.468660 S    
N22   Ni6   1.896368 S    
N23   Ni7   1.901072 S    
C101  C109  1.555175 S    
C50   C59   1.547777 S    
C28   N20   1.319748 A    
C11   N11   1.325320 A    
C6    N6    1.325644 A    
C53   C113  1.485652 S    
C63   N37   1.488275 S    
C75   H91   1.113087 S    
C105  C111  1.519573 S    
C49   H37   1.115129 S    
C10   N10   1.323833 A    
C32   N24   1.301471 A    
H115  C106  1.113809 S    
C94   H84   1.112952 S    
C63   N38   1.485128 S    
C5    N5    1.320282 A    
C68   H56   1.112725 S    
C31   H23   1.080085 S    
C76   C92   1.518954 S    
C97   C101  1.536373 S    
C98   C102  1.539655 S    
N18   Ni2   1.882347 S    
C77   H77   1.110660 S    
C101  H109  1.111461 S    
C97   C107  1.554381 S    
C67   C69   1.538373 S    
C27   C42   1.384626 A    
C40   H32   1.075034 S    
N38   O4    1.302257 A    
C5    C18   1.380080 A    
C38   C45   1.381554 A    
N9    N10   1.388033 A    
C31   C44   1.380774 A    
C71   H63   1.114206 S    
C62   C64   1.605424 S    
C80   H76   1.109817 S    
C13   H13   1.080729 S    
C79   C83   1.555498 S    
H117  C111  1.114451 S    
C67   C83   1.553297 S    
C89   H93   1.114295 S    
C85   C93   1.553815 S    
N23   N24   1.388033 A    
N16   Ni3   1.901073 S    
C14   H14   1.081260 S    
C77   C81   1.554924 S    
C2    C18   1.377678 A    
C16   H16   1.080979 S    
C65   C81   1.548526 S    
C69   C85   1.555934 S    
C15   H15   1.081330 S    
C88   C96   1.554178 S    
N17   N18   1.388033 A    
N6    Ni6   1.895504 S    
C72   H58   1.112792 S    
C100  C108  1.553535 S    
N10   Ni5   1.878258 S    
N21   N22   1.388033 A    
C44   C62   1.448719 S    
C106  C112  1.516914 S    
N9    Ni6   1.882348 S    
C70   C86   1.556064 S    
C72   H64   1.110692 S    
C49   C53   1.525204 S    
C115  N35   1.156891 T    
C69   H61   1.110824 S    
C1    C17   1.389008 A    
H71   C91   1.110031 S    
C50   H38   1.115882 S    
N32   Ni3   1.900348 S    
C65   C71   1.516027 S    
N11   Ni8   1.882348 S    
C96   H82   1.112804 S    
C66   C82   1.553522 S    
C9    N9    1.325030 A    
N5    Ni5   1.900348 S    
C10   H10   1.080030 S    
C103  H111  1.110822 S    
