data_mof_unit_52837.cif
_audit_creation_date              2013-03-05T16:21:59-0500
_audit_creation_method            fapswitch 2.2
_symmetry_space_group_name_H-M    P1
_symmetry_Int_Tables_number       1
_space_group_crystal_system       triclinic
_cell_length_a                    15.139733
_cell_length_b                    13.804659
_cell_length_c                    10.83651
_cell_angle_alpha                 91.768965
_cell_angle_beta                  89.971912
_cell_angle_gamma                 90.062324
_cell_volume                      2263.73721845

loop_
_atom_site_label
_atom_site_type_symbol
_atom_site_description
_atom_site_fract_x
_atom_site_fract_y
_atom_site_fract_z
_atom_type_partial_charge
O1    O     O_R   0.371460 0.581430 0.500010 -0.597852
O2    O     O_R   0.628540 0.418570 0.499990 -0.596028
O3    O     O_R   0.628540 0.581430 0.499990 -0.594222
O4    O     O_R   0.371460 0.418570 0.500010 -0.596573
C1    C     C_R   0.329805 0.499964 0.499856 0.791330
C2    C     C_R   0.670223 0.500033 0.499921 0.792067
O5    O     O_R   0.499990 0.581440 0.319660 -0.571677
O6    O     O_R   0.500010 0.418560 0.680340 -0.569846
O7    O     O_R   0.500010 0.581440 0.680340 -0.586947
O8    O     O_R   0.499990 0.418560 0.319660 -0.587086
C3    C     C_R   0.489810 0.498022 0.262281 0.806306
C4    C     C_R   0.508657 0.502069 0.738259 0.805129
Cu1   Cu    Cu3+1 0.500000 0.596430 0.500000 0.958591
Cu2   Cu    Cu3+1 0.500000 0.403570 0.500000 0.963712
C5    C     C_R   0.411520 0.656498 0.123304 -0.272151
C6    C     C_R   0.580041 0.341319 0.878246 -0.260865
C7    C     C_R   0.491263 0.685488 0.897296 -0.272914
C8    C     C_R   0.496502 0.314445 0.102147 -0.266467
C9    C     C_R   0.404916 0.747472 0.070581 0.293799
C10   C     C_R   0.580890 0.249253 0.928821 0.286560
C11   C     C_R   0.447612 0.762980 0.957484 0.280521
C12   C     C_R   0.532620 0.234097 0.037711 0.254649
C13   C     C_R   0.489738 0.590708 0.943930 0.029944
C14   C     C_R   0.503550 0.409286 0.056990 0.025445
C15   C     C_R   0.459831 0.580119 0.065507 0.031154
C16   C     C_R   0.533792 0.419374 0.935664 0.019227
C17   C     C_R   0.517641 0.506741 0.874521 -0.145224
C18   C     C_R   0.477908 0.493435 0.126663 -0.143178
H1    H     H_    0.378228 0.645764 0.210244 0.178868
H2    H     H_    0.617573 0.352235 0.794750 0.195090
H3    H     H_    0.528324 0.702180 0.815798 0.207522
H4    H     H_    0.456598 0.300455 0.182212 0.214749
C19   C     C_R   0.095417 0.581148 0.459175 -0.143580
C20   C     C_R   0.904739 0.415958 0.463273 -0.150129
C21   C     C_R   0.905007 0.584171 0.535126 -0.149887
C22   C     C_R   0.095095 0.418729 0.538655 -0.151339
H5    H     H_    0.061104 0.644008 0.426001 0.143514
H6    H     H_    0.939063 0.350668 0.433008 0.138262
H7    H     H_    0.939557 0.649445 0.565167 0.138714
H8    H     H_    0.060539 0.355898 0.571735 0.138758
C23   C     C_R   0.187229 0.581354 0.460157 -0.165862
C24   C     C_R   0.812942 0.415773 0.464426 -0.162290
C25   C     C_R   0.813192 0.584350 0.534686 -0.174070
C26   C     C_R   0.186894 0.418444 0.538028 -0.167309
H9    H     H_    0.222023 0.644617 0.428698 0.160723
H10   H     H_    0.778248 0.350132 0.436094 0.149202
H11   H     H_    0.778683 0.649976 0.563273 0.145337
H12   H     H_    0.221414 0.355133 0.569558 0.145937
C27   C     C_R   0.233415 0.499911 0.499326 -0.036818
C28   C     C_R   0.766671 0.500061 0.499718 -0.034953
C29   C     C_R   0.048613 0.499977 0.498905 0.092670
C30   C     C_R   0.951515 0.500060 0.499031 0.096406
C31   C     C_R   0.573874 0.106160 0.459374 -0.140962
C32   C     C_R   0.427021 0.892065 0.457978 -0.175502
C33   C     C_R   0.427133 0.108166 0.544634 -0.209789
C34   C     C_R   0.573297 0.893753 0.544593 -0.186579
H13   H     H_    0.631664 0.068020 0.424696 0.135175
H14   H     H_    0.369458 0.928712 0.422979 0.179878
H15   H     H_    0.369486 0.071670 0.579940 0.151449
H16   H     H_    0.630838 0.931778 0.580504 0.163601
C35   C     C_R   0.571827 0.207990 0.457479 0.160817
C36   C     C_R   0.428599 0.790156 0.456706 0.113850
C37   C     C_R   0.428651 0.210035 0.544276 0.104792
C38   C     C_R   0.571390 0.791879 0.544504 0.095317
H17   H     H_    0.628088 0.246046 0.421281 0.113313
H18   H     H_    0.372229 0.750455 0.420818 0.142765
H19   H     H_    0.372312 0.249846 0.580003 0.123266
H20   H     H_    0.627391 0.753630 0.580862 0.119288
N1    N     N_R   0.500000 0.258690 0.500000 -0.186472
N2    N     N_R   0.500000 0.741310 0.500000 -0.189391
C39   C     C_R   0.500484 0.054470 0.502091 0.150125
C40   C     C_R   0.500259 0.945610 0.501597 0.111430
N3    N     N_R   0.516030 0.138052 0.080379 0.158824
O9    O     O_R   0.497113 0.124857 0.195752 -0.361542
O10   O     O_R   0.505564 0.066036 0.001454 -0.207309
N4    N     N_R   0.443206 0.854862 0.898896 0.172260
O11   O     O_R   0.368816 0.901874 0.895194 -0.280318
O12   O     O_R   0.509319 0.884466 0.833062 -0.325176
N5    N     N_R   0.630960 0.172720 0.869152 0.157233
O13   O     O_R   0.643167 0.171856 0.750236 -0.372627
O14   O     O_R   0.674254 0.111246 0.934727 -0.292194
N6    N     N_R   0.359823 0.824385 0.136936 0.137917
O15   O     O_R   0.394889 0.910396 0.146439 -0.254550
O16   O     O_R   0.289885 0.805634 0.201886 -0.395804

loop_
_geom_bond_atom_site_label_1
_geom_bond_atom_site_label_2
_geom_bond_distance
_ccdc_geom_bond_type
C26   C27   1.401375 A    
C33   H15   1.082831 S    
N3    O9    1.300729 A    
C20   C24   1.389832 A    
O3    C2    1.289321 A    
C15   C18   1.412771 A    
C5    C9    1.399369 A    
C11   N4    1.437476 S    
C16   C17   1.415464 A    
C7    C13   1.417241 A    
C8    C14   1.415683 A    
C38   H20   1.080285 S    
C9    C11   1.407424 A    
C14   C16   1.402911 A    
C5    C15   1.414017 A    
Cu1   N2    2.000018 S    
C6    H2    1.082584 S    
C36   N2    1.365632 A    
C24   H10   1.083155 S    
O7    Cu1   1.971524 S    
C31   C35   1.406889 A    
C37   N1    1.366013 A    
C34   C40   1.405383 A    
C33   C37   1.406563 A    
C34   C38   1.406571 A    
C5    H1    1.082400 S    
C38   N2    1.366078 A    
C9    N6    1.436801 S    
C21   C25   1.390072 A    
O3    Cu1   1.957270 S    
O6    C4    1.301967 A    
C8    C12   1.403563 A    
Cu1   Cu2   2.662368 S    
N3    O10   1.300849 A    
C1    C27   1.459325 S    
O2    C2    1.288964 A    
C23   C27   1.401646 A    
O5    C3    1.300750 A    
C13   C17   1.426428 A    
C6    C16   1.413617 A    
C37   H19   1.080285 S    
C36   H18   1.079863 S    
C4    C17   1.482340 S    
C29   C30   1.470041 S    
C22   H8    1.082842 S    
N4    O11   1.301704 A    
O8    Cu2   1.971525 S    
N5    O14   1.301404 A    
C31   H13   1.082766 S    
C32   C36   1.406686 A    
C7    C11   1.401618 A    
C34   H16   1.082872 S    
O1    Cu1   1.956823 S    
C21   H7    1.082847 S    
C6    C10   1.399590 A    
C2    C28   1.460199 S    
C22   C29   1.403787 A    
C24   C28   1.401757 A    
C10   C12   1.408649 A    
N6    O16   1.301329 A    
C7    H3    1.076886 S    
Cu2   N1    2.000018 S    
O1    C1    1.288726 A    
C22   C26   1.389836 A    
C8    H4    1.079184 S    
C31   C39   1.405748 A    
C32   H14   1.082787 S    
C35   N1    1.366002 A    
O6    Cu2   1.958819 S    
C10   N5    1.438067 S    
C20   H6    1.082846 S    
C14   C18   1.420113 A    
N4    O12   1.301629 A    
O4    C1    1.289142 A    
C25   C28   1.401717 A    
C19   C29   1.403857 A    
C20   C30   1.403665 A    
C19   C23   1.390047 A    
C39   C40   1.502628 S    
C3    C18   1.480122 S    
C13   C15   1.404735 A    
O4    Cu2   1.957270 S    
O2    Cu2   1.956823 S    
O7    C4    1.286258 A    
C19   H5    1.082846 S    
O8    C3    1.286951 A    
N5    O13   1.301416 A    
C35   H17   1.080196 S    
O5    Cu1   1.958820 S    
C32   C40   1.405844 A    
N6    O15   1.301298 A    
C21   C30   1.403734 A    
C23   H9    1.083335 S    
C12   N3    1.439380 S    
C25   H11   1.083158 S    
C33   C39   1.405506 A    
C26   H12   1.083200 S    
