data_mof_unit_13536.cif
_audit_creation_date              2012-12-10T16:55:02-0500
_audit_creation_method            fapswitch 2.2
_symmetry_space_group_name_H-M    P1
_symmetry_Int_Tables_number       1
_space_group_crystal_system       triclinic
_cell_length_a                    9.713823
_cell_length_b                    10.932836
_cell_length_c                    15.33998
_cell_angle_alpha                 89.81342
_cell_angle_beta                  74.004959
_cell_angle_gamma                 89.964707
_cell_volume                      1566.02216579

loop_
_atom_site_label
_atom_site_type_symbol
_atom_type_description
_atom_site_fract_x
_atom_site_fract_y
_atom_site_fract_z
_atom_type_partial_charge
C1    C     C_R   0.999586 0.265419 0.501109 0.879231
C2    C     C_R   0.681773 0.493043 0.913683 0.081238
C3    C     C_R   0.767683 0.553294 0.961754 0.102484
C4    C     C_R   0.542160 0.450424 0.960755 0.045167
C5    C     C_R   0.481986 0.482877 0.052532 0.087261
C6    C     C_R   0.573030 0.535390 0.099838 -0.230196
C7    C     C_R   0.713249 0.566934 0.055845 -0.183144
C8    C     C_R   0.465846 0.368296 0.920962 -0.235892
C9    C     C_R   0.327459 0.329263 0.966236 -0.005310
C10   C     C_R   0.253520 0.385558 0.049405 0.032248
C11   C     C_R   0.334765 0.457015 0.094971 0.064774
C12   C     C_R   0.917502 0.504793 0.672770 0.799367
C13   C     C_R   0.103073 0.370051 0.090348 -0.078175
C14   C     C_R   0.043785 0.401947 0.182624 -0.066392
C15   C     C_R   0.267114 0.500924 0.182092 -0.242864
C16   C     C_2   0.886209 0.933116 0.501674 -0.148912
C17   C     C_2   0.004798 0.866633 0.494256 -0.307074
C18   C     C_2   0.888047 0.067117 0.497629 -0.117678
C19   C     C_2   0.999883 0.133415 0.505641 -0.306204
C20   C     C_2   0.406786 0.411968 0.534321 -0.146271
C21   C     C_2   0.554753 0.423782 0.547574 0.303919
C22   C     C_R   0.000564 0.734596 0.498845 0.837199
C23   C     C_R   0.082580 0.492424 0.327493 0.828650
C24   C     C_R   0.873603 0.517562 0.772757 -0.091587
C25   C     C_R   0.128474 0.466452 0.228892 -0.090730
C26   C     C_R   0.907426 0.594624 0.915051 0.072028
C27   C     C_R   0.961507 0.573454 0.821222 0.101466
C28   C     C_R   0.735526 0.480199 0.819348 -0.264989
Cu1   Cu    Cu3+1 0.138640 0.500020 0.499980 0.943320
Cu2   Cu    Cu3+1 0.861360 0.499980 0.500020 1.023551
H1    H     H_    0.777772 0.602158 0.097279 0.184867
H2    H     H_    0.783574 0.888473 0.509620 0.169678
H3    H     H_    0.109645 0.907615 0.482659 0.149894
H4    H     H_    0.792675 0.111923 0.489158 0.179214
H5    H     H_    0.094338 0.092330 0.517666 0.144999
H6    H     H_    0.346862 0.328853 0.557525 0.173139
H7    H     H_    0.392992 0.583558 0.495776 0.204047
H8    H     H_    0.321425 0.561908 0.216625 0.152223
H9    H     H_    0.668845 0.444323 0.779731 0.168601
H10   H     H_    0.541332 0.548451 0.172250 0.143848
H11   H     H_    0.518263 0.323553 0.857942 0.181254
N1    N     N_2   0.346430 0.498660 0.500980 -0.298772
N2    N     N_2   0.652550 0.498630 0.501000 -0.091305
O1    O     O_R   0.117050 0.321960 0.499980 -0.586000
O2    O     O_R   0.882890 0.321920 0.500020 -0.529656
O3    O     O_R   0.052910 0.500040 0.629810 -0.582125
O4    O     O_R   0.818750 0.499990 0.629840 -0.557300
O5    O     O_R   0.117110 0.678080 0.499980 -0.591884
O6    O     O_R   0.882950 0.678040 0.500020 -0.567779
O7    O     O_R   0.181250 0.500010 0.370160 -0.580361
O8    O     O_R   0.947090 0.499960 0.370190 -0.519900
C29   C     C_2   0.004197 0.327371 0.037622 0.261396
H12   H     H_    0.910562 0.272924 0.069740 0.097656
O9    O     O_2   0.023779 0.356263 0.958232 -0.546674
N3    N     N_3   0.588156 0.348985 0.615725 -0.534792
H13   H     H_    0.512576 0.367380 0.677406 0.205621
H14   H     H_    0.575801 0.257573 0.599584 0.202004
N4    N     N_3   0.644415 0.536759 0.415386 -0.458102
H15   H     H_    0.608159 0.627047 0.418957 0.193153
H16   H     H_    0.587280 0.476335 0.385591 0.218978
C30   C     C_2   0.894090 0.366547 0.229252 0.365293
H17   H     H_    0.807220 0.396349 0.202421 0.051430
O10   O     O_2   0.867928 0.299179 0.295422 -0.525615
C31   C     C_2   0.273083 0.217640 0.931413 0.474357
H18   H     H_    0.195965 0.158749 0.977173 0.073206
O11   O     O_2   0.315493 0.189050 0.851547 -0.549499
C32   C     C_2   0.000650 0.661039 0.961520 0.383379
H19   H     H_    0.114253 0.640362 0.944731 0.121397
O12   O     O_2   0.953589 0.743723 0.014696 -0.556745
N5    N     N_3   0.102862 0.616693 0.775978 -0.604988
H20   H     H_    0.167929 0.542052 0.749275 0.260519
H21   H     H_    0.097291 0.677125 0.724100 0.234863

loop_
_geom_bond_atom_site_label_1
_geom_bond_atom_site_label_2
_ccdc_geom_bond_type
Cu2   O6    S    
C22   O5    A    
N3    H13   S    
C15   H8    S    
Cu1   Cu2   S    
Cu1   N1    S    
C16   H2    S    
C13   C29   S    
C9    C10   A    
C12   C24   S    
C1    O1    A    
C23   O8    A    
C17   C22   S    
C28   H9    S    
C24   C27   A    
Cu1   O3    S    
C4    C8    A    
C31   H18   S    
C30   H17   S    
N3    H14   S    
C2    C3    A    
C21   N3    S    
Cu1   O1    S    
C31   O11   D    
C19   H5    S    
C13   C14   A    
C8    H11   S    
C20   N1    D    
C18   H4    S    
C1    O2    A    
C26   C27   A    
C6    C7    A    
C27   N5    S    
C17   H3    S    
C23   C25   S    
C12   O4    A    
C2    C4    A    
C12   O3    A    
Cu2   O8    S    
C29   O9    D    
C5    C11   A    
C3    C7    A    
Cu1   O7    S    
C22   O6    A    
C14   C25   A    
C5    C6    A    
C6    H10   S    
Cu2   N2    S    
C15   C25   A    
C4    C5    A    
C7    H1    S    
C10   C11   A    
C26   C32   S    
Cu1   O5    S    
N4    H16   S    
C32   H19   S    
C9    C31   S    
Cu2   O4    S    
C14   C30   S    
N5    H20   S    
C20   C21   S    
C16   C18   S    
C18   C19   D    
H7    N1    S    
C30   O10   D    
C8    C9    A    
C23   O7    A    
C2    C28   A    
Cu2   O2    S    
N2    N4    S    
N4    H15   S    
C21   N2    D    
C1    C19   S    
C11   C15   A    
N5    H21   S    
C3    C26   A    
C24   C28   A    
C29   H12   S    
C16   C17   D    
C32   O12   D    
C10   C13   A    
C20   H6    S    
