data_mof_unit_58712.cif
_audit_creation_date              2012-12-11T14:45:27-0500
_audit_creation_method            fapswitch 2.2
_symmetry_space_group_name_H-M    P1
_symmetry_Int_Tables_number       1
_space_group_crystal_system       triclinic
_cell_length_a                    24.869486
_cell_length_b                    7.176002
_cell_length_c                    14.461272
_cell_angle_alpha                 89.986867
_cell_angle_beta                  102.919716
_cell_angle_gamma                 90.024422
_cell_volume                      2515.47374387

loop_
_atom_site_label
_atom_site_type_symbol
_atom_type_description
_atom_site_fract_x
_atom_site_fract_y
_atom_site_fract_z
_atom_type_partial_charge
O1    O     O_R   0.319150 0.364170 0.330530 -0.545963
O2    O     O_R   0.680850 0.635830 0.669470 -0.545963
O3    O     O_R   0.180850 0.864170 0.169470 -0.546163
O4    O     O_R   0.819150 0.135830 0.830530 -0.546163
O5    O     O_R   0.210330 0.696850 0.354180 -0.530846
O6    O     O_R   0.789670 0.303150 0.645820 -0.530846
O7    O     O_R   0.289670 0.196850 0.145820 -0.530674
O8    O     O_R   0.710330 0.803150 0.854180 -0.530674
C1    C     C_R   0.197552 0.525327 0.378365 0.738802
C2    C     C_R   0.802448 0.474673 0.621635 0.738802
C3    C     C_R   0.302451 0.025402 0.121631 0.738742
C4    C     C_R   0.697549 0.974598 0.878369 0.738742
O9    O     O_R   0.320550 0.694110 0.341970 -0.536898
O10   O     O_R   0.679450 0.305890 0.658030 -0.536898
O11   O     O_R   0.179450 0.194110 0.158030 -0.536793
O12   O     O_R   0.820550 0.805890 0.841970 -0.536793
O13   O     O_R   0.291860 0.861000 0.157170 -0.538352
O14   O     O_R   0.708140 0.139000 0.842830 -0.538352
O15   O     O_R   0.208140 0.361000 0.342830 -0.538247
O16   O     O_R   0.791860 0.639000 0.657170 -0.538247
C5    C     C_R   0.341730 0.524360 0.362904 0.717092
C6    C     C_R   0.658270 0.475640 0.637096 0.717092
C7    C     C_R   0.158273 0.024312 0.137089 0.717121
C8    C     C_R   0.841727 0.975688 0.862911 0.717121
O17   O     O_3   0.240460 0.529330 0.189380 -0.376455
O18   O     O_3   0.759540 0.470670 0.810620 -0.376455
O19   O     O_3   0.259540 0.029330 0.310620 -0.376441
O20   O     O_3   0.740460 0.970670 0.689380 -0.376441
V1    V     V_3+5 0.251770 0.805510 0.261240 1.480857
V2    V     V_3+5 0.748230 0.194490 0.738760 1.480857
V3    V     V_3+5 0.248230 0.305510 0.238760 1.481302
V4    V     V_3+5 0.751770 0.694490 0.761240 1.481302
C9    C     C_R   0.103175 0.004879 0.072443 -0.044646
C10   C     C_R   0.896825 0.995121 0.927557 -0.044646
C11   C     C_R   0.396818 0.505088 0.427584 -0.044737
C12   C     C_R   0.603181 0.494912 0.572416 -0.044737
C13   C     C_R   0.960234 0.187957 0.041865 -0.185549
C14   C     C_R   0.039766 0.812043 0.958135 -0.185548
C15   C     C_R   0.539903 0.687024 0.457568 -0.185298
C16   C     C_R   0.460097 0.312976 0.542432 -0.185298
C17   C     C_R   0.906951 0.147642 0.990353 -0.120932
C18   C     C_R   0.093049 0.852358 0.009647 -0.120932
C19   C     C_R   0.593163 0.646793 0.509193 -0.120497
C20   C     C_R   0.406837 0.353207 0.490806 -0.120497
C21   C     C_R   0.941123 0.880587 0.918464 -0.233738
C22   C     C_R   0.058877 0.119413 0.081536 -0.233739
C23   C     C_R   0.558799 0.380965 0.581867 -0.233822
C24   C     C_R   0.441201 0.619035 0.418133 -0.233822
C25   C     C_R   0.995140 0.922167 0.969074 0.149980
C26   C     C_R   0.004860 0.077833 0.030925 0.149981
C27   C     C_R   0.504806 0.422496 0.531155 0.149962
C28   C     C_R   0.495194 0.577504 0.468845 0.149963
H1    H     H_    0.066046 0.235246 0.130918 0.112937
H2    H     H_    0.933954 0.764753 0.869082 0.112936
H3    H     H_    0.434110 0.734337 0.368408 0.112722
H4    H     H_    0.565890 0.265662 0.631591 0.112722
H5    H     H_    0.966615 0.307088 0.089123 0.120978
H6    H     H_    0.033384 0.692912 0.910877 0.120977
H7    H     H_    0.533605 0.805632 0.409951 0.120895
H8    H     H_    0.466395 0.194368 0.590048 0.120895
C29   C     C_R   0.665562 0.981473 0.951575 -0.087155
C30   C     C_R   0.334438 0.018527 0.048425 -0.087155
C31   C     C_R   0.834443 0.481879 0.548456 -0.087008
C32   C     C_R   0.165557 0.518121 0.451544 -0.087008
C33   C     C_R   0.658848 0.958552 0.115100 -0.141293
C34   C     C_R   0.341152 0.041448 0.884900 -0.141294
C35   C     C_R   0.841060 0.462807 0.384775 -0.141144
C36   C     C_R   0.158939 0.537193 0.615225 -0.141144
C37   C     C_R   0.691060 0.961819 0.047730 0.252988
C38   C     C_R   0.308940 0.038181 0.952270 0.252988
C39   C     C_R   0.808876 0.464934 0.452196 0.252872
C40   C     C_R   0.191124 0.535066 0.547804 0.252872
C41   C     C_R   0.608230 0.998224 0.923339 -0.259913
C42   C     C_R   0.391770 0.001776 0.076660 -0.259913
C43   C     C_R   0.891812 0.497096 0.576756 -0.259984
C44   C     C_R   0.108188 0.502904 0.423244 -0.259984
C45   C     C_R   0.574561 0.992807 0.990267 0.089257
C46   C     C_R   0.425439 0.007193 0.009732 0.089257
C47   C     C_R   0.925443 0.493035 0.509760 0.089301
C48   C     C_R   0.074556 0.506965 0.490240 0.089301
C49   C     C_R   0.601169 0.972463 0.087344 0.076809
C50   C     C_R   0.398831 0.027536 0.912656 0.076809
C51   C     C_R   0.898769 0.475393 0.412570 0.076721
C52   C     C_R   0.101231 0.524607 0.587430 0.076721
C53   C     C_R   0.515624 0.004659 0.964067 0.070445
C54   C     C_R   0.484375 0.995341 0.035932 0.070445
C55   C     C_R   0.984398 0.503831 0.535981 0.070427
C56   C     C_R   0.015602 0.496169 0.464019 0.070427
C57   C     C_R   0.513105 0.974941 0.131510 -0.181623
C58   C     C_R   0.486895 0.025059 0.868490 -0.181623
C59   C     C_R   0.986811 0.478373 0.368330 -0.181668
C60   C     C_R   0.013189 0.521627 0.631670 -0.181668
C61   C     C_R   0.570180 0.964339 0.156313 -0.154996
C62   C     C_R   0.429820 0.035660 0.843687 -0.154997
C63   C     C_R   0.929718 0.468773 0.343513 -0.154966
C64   C     C_R   0.070282 0.531227 0.656486 -0.154966
H9    H     H_    0.590285 0.948436 0.230581 0.140690
H10   H     H_    0.409715 0.051564 0.769419 0.140690
H11   H     H_    0.909564 0.454927 0.269156 0.140863
H12   H     H_    0.090436 0.545072 0.730844 0.140863
H13   H     H_    0.678954 0.943141 0.189360 0.171594
H14   H     H_    0.321046 0.056859 0.810640 0.171594
H15   H     H_    0.820904 0.449496 0.310428 0.171639
H16   H     H_    0.179096 0.550504 0.689572 0.171639
H17   H     H_    0.126529 0.761514 0.001778 0.150499
H18   H     H_    0.873471 0.238486 0.998222 0.150499
H19   H     H_    0.373288 0.262816 0.498934 0.150924
H20   H     H_    0.626711 0.737184 0.501066 0.150924
H21   H     H_    0.408518 0.988495 0.151742 0.105273
H22   H     H_    0.591481 0.011505 0.848258 0.105273
H23   H     H_    0.091397 0.491568 0.348091 0.105185
H24   H     H_    0.908603 0.508432 0.651909 0.105185
Br1   Br    Br    0.230350 0.061098 0.910446 -0.559643
Br2   Br    Br    0.769650 0.938902 0.089554 -0.559643
Br3   Br    Br    0.269771 0.555712 0.589700 -0.560189
Br4   Br    Br    0.730229 0.444288 0.410300 -0.560189
H25   H     H_    0.492877 0.966039 0.189783 0.119306
H26   H     H_    0.507123 0.033960 0.810217 0.119306
H27   H     H_    0.007001 0.470846 0.309971 0.119449
H28   H     H_    0.992999 0.529154 0.690029 0.119449

loop_
_geom_bond_atom_site_label_1
_geom_bond_atom_site_label_2
_ccdc_geom_bond_type
O17   V3    S    
C24   H3    S    
C55   C56   A    
O1    C5    A    
C16   H8    S    
O19   V1    S    
C1    C32   S    
O13   V1    S    
C34   H14   S    
O3    C7    A    
C2    C31   S    
C33   H13   S    
C48   C52   A    
C3    C30   S    
O15   V3    S    
C42   H21   S    
C47   C55   A    
C35   H15   S    
C41   H22   S    
C14   C25   A    
C53   C54   A    
O7    C3    A    
C40   Br3   S    
C43   H24   S    
C50   C62   A    
C9    C18   A    
C58   H26   S    
O9    V1    S    
C14   C18   A    
O4    C8    A    
C63   H11   S    
C62   H10   S    
O1    V3    S    
C30   C38   A    
C12   C23   A    
O2    V4    S    
C52   C64   A    
O3    V1    S    
C14   H6    S    
C1    O15   A    
C2    O16   A    
C7    C9    S    
O2    C6    A    
O14   V2    S    
C45   C49   A    
C16   C20   A    
C36   C40   A    
C46   C54   A    
O11   C7    A    
C15   C28   A    
C45   C53   A    
O12   C8    A    
C55   C60   A    
C57   C61   A    
C9    C22   A    
C10   C17   A    
O10   V2    S    
C11   C24   A    
C58   C62   A    
O5    V1    S    
C38   Br1   S    
C37   Br2   S    
O7    V3    S    
C17   H18   S    
C27   C28   A    
C36   C52   A    
C44   C48   A    
O18   V4    S    
C15   C19   A    
C29   C41   A    
C8    C10   S    
O8    V4    S    
O5    C1    A    
C34   C50   A    
C49   C61   A    
C46   C50   A    
C33   C49   A    
C56   C59   A    
C21   C25   A    
O8    C4    A    
C15   H7    S    
C32   C44   A    
O9    C5    A    
C10   C21   A    
C51   C63   A    
C11   C20   A    
O6    V2    S    
C31   C39   A    
C21   H2    S    
C59   H27   S    
C61   H9    S    
C35   C51   A    
O16   V4    S    
C20   H19   S    
C29   C37   A    
C3    O13   A    
C36   H16   S    
C57   H25   S    
C54   C57   A    
O6    C2    A    
C23   C27   A    
C53   C58   A    
O11   V3    S    
C5    C11   S    
O12   V4    S    
C16   C27   A    
C6    C12   S    
C22   C26   A    
O10   C6    A    
O20   V2    S    
C60   H28   S    
C48   C56   A    
C47   C51   A    
C4    C29   S    
C34   C38   A    
C31   C43   A    
C44   H23   S    
C33   C37   A    
C64   H12   S    
C22   H1    S    
C13   C26   A    
C39   Br4   S    
C60   C64   A    
C35   C39   A    
C19   H20   S    
C32   C40   A    
C13   C17   A    
C18   H17   S    
O4    V2    S    
C59   C63   A    
C24   C28   A    
C25   C26   A    
C42   C46   A    
C4    O14   A    
C41   C45   A    
C30   C42   A    
C12   C19   A    
C43   C47   A    
C13   H5    S    
C23   H4    S    
