data_mof_unit_63716.cif
_audit_creation_date              2012-10-26T19:55:11-0400
_audit_creation_method            fapswitch 2.2
_symmetry_space_group_name_H-M    P1
_symmetry_Int_Tables_number       1
_space_group_crystal_system       triclinic
_cell_length_a                    26.016898
_cell_length_b                    24.446022
_cell_length_c                    16.500341
_cell_angle_alpha                 89.999572
_cell_angle_beta                  89.999423
_cell_angle_gamma                 89.99991
_cell_volume                      10494.376283

loop_
_atom_site_label
_atom_site_type_symbol
_atom_type_description
_atom_site_fract_x
_atom_site_fract_y
_atom_site_fract_z
_atom_type_partial_charge
C1    C     C_R   0.074574 0.429973 0.499992 0.589390
C2    C     C_R   0.999296 0.451396 0.256444 0.378617
C3    C     C_R   0.000685 0.451395 0.743557 0.378594
C4    C     C_R   0.000679 0.548605 0.256443 0.378597
C5    C     C_R   0.499301 0.048604 0.743554 0.378630
C6    C     C_R   0.499296 0.951396 0.256444 0.378617
C7    C     C_R   0.500685 0.951395 0.743557 0.378594
C8    C     C_R   0.500680 0.048605 0.256443 0.378597
C9    C     C_R   0.999967 0.500000 0.873483 -0.078860
C10   C     C_R   0.999961 0.500002 0.126517 -0.078877
C11   C     C_R   0.499967 0.000000 0.873483 -0.078860
C12   C     C_R   0.925426 0.570026 0.499993 0.589387
C13   C     C_R   0.499961 0.000002 0.126517 -0.078877
C14   C     C_1   0.999955 0.500004 0.962968 0.147932
C15   C     C_1   0.999953 0.500002 0.037032 0.147891
C16   C     C_1   0.499955 0.000004 0.962968 0.147932
C17   C     C_1   0.499953 0.000002 0.037032 0.147891
C18   C     C_R   0.178277 0.669292 0.572631 0.236717
C19   C     C_R   0.819306 0.334304 0.425565 0.238149
C20   C     C_R   0.821727 0.330701 0.572628 0.236718
C21   C     C_R   0.180674 0.665723 0.425562 0.238143
C22   C     C_R   0.821725 0.669297 0.427381 0.236716
C23   C     C_R   0.925427 0.429972 0.500008 0.589389
C24   C     C_R   0.180693 0.334304 0.574439 0.238149
C25   C     C_R   0.178266 0.330690 0.427378 0.236715
C26   C     C_R   0.819313 0.665704 0.574445 0.238150
C27   C     C_R   0.678277 0.169292 0.572631 0.236717
C28   C     C_R   0.319306 0.834304 0.425565 0.238149
C29   C     C_R   0.321727 0.830701 0.572628 0.236718
C30   C     C_R   0.680674 0.165723 0.425562 0.238143
C31   C     C_R   0.321725 0.169297 0.427381 0.236716
C32   C     C_R   0.680693 0.834304 0.574439 0.238149
C33   C     C_R   0.678266 0.830690 0.427378 0.236715
C34   C     C_R   0.074574 0.570027 0.500007 0.589384
C35   C     C_R   0.319313 0.165704 0.574445 0.238150
C36   C     C_R   0.140874 0.627991 0.573894 0.227163
C37   C     C_R   0.856743 0.375612 0.425739 0.226685
C38   C     C_R   0.859134 0.371998 0.573893 0.227162
C39   C     C_R   0.143244 0.624407 0.425734 0.226689
C40   C     C_R   0.859129 0.627997 0.426114 0.227162
C41   C     C_R   0.143260 0.375617 0.574261 0.226690
C42   C     C_R   0.140863 0.371992 0.426109 0.227160
C43   C     C_R   0.856748 0.624393 0.574268 0.226686
C44   C     C_R   0.640874 0.127991 0.573894 0.227163
C45   C     C_R   0.574574 0.929973 0.499992 0.589390
C46   C     C_R   0.356743 0.875612 0.425739 0.226685
C47   C     C_R   0.359134 0.871998 0.573893 0.227162
C48   C     C_R   0.643244 0.124407 0.425734 0.226689
C49   C     C_R   0.359129 0.127997 0.426114 0.227162
C50   C     C_R   0.643260 0.875617 0.574261 0.226690
C51   C     C_R   0.640863 0.871992 0.426109 0.227160
C52   C     C_R   0.356748 0.124393 0.574268 0.226686
C53   C     C_R   0.119862 0.607788 0.499915 -0.059872
C54   C     C_R   0.880136 0.392214 0.499917 -0.059864
C55   C     C_R   0.880135 0.607785 0.500087 -0.059867
C56   C     C_R   0.425426 0.070027 0.499993 0.589387
C57   C     C_R   0.119864 0.392215 0.500083 -0.059862
C58   C     C_R   0.619862 0.107788 0.499915 -0.059872
C59   C     C_R   0.380136 0.892214 0.499917 -0.059864
C60   C     C_R   0.380136 0.107785 0.500087 -0.059867
C61   C     C_R   0.619864 0.892215 0.500083 -0.059862
C62   C     C_R   0.196949 0.688937 0.498659 -0.048221
C63   C     C_R   0.803040 0.311077 0.498658 -0.048212
C64   C     C_R   0.803044 0.688928 0.501352 -0.048214
C65   C     C_R   0.196954 0.311069 0.501349 -0.048209
C66   C     C_R   0.696949 0.188937 0.498659 -0.048221
C67   C     C_R   0.425427 0.929972 0.500008 0.589389
C68   C     C_R   0.303040 0.811077 0.498658 -0.048212
C69   C     C_R   0.303044 0.188928 0.501352 -0.048214
C70   C     C_R   0.696954 0.811069 0.501349 -0.048209
C71   C     C_1   0.234367 0.731991 0.498007 0.171799
C72   C     C_1   0.765619 0.268026 0.498006 0.171803
C73   C     C_1   0.765625 0.731980 0.502007 0.171805
C74   C     C_1   0.234372 0.268016 0.502006 0.171807
C75   C     C_1   0.734367 0.231991 0.498007 0.171799
C76   C     C_1   0.265619 0.768026 0.498006 0.171803
C77   C     C_1   0.265625 0.231980 0.502007 0.171805
C78   C     C_R   0.574574 0.070027 0.500007 0.589384
C79   C     C_1   0.734372 0.768016 0.502006 0.171807
C80   C     C_R   0.998576 0.549499 0.829725 0.035518
C81   C     C_R   0.998569 0.450502 0.170273 0.035545
C82   C     C_R   0.001369 0.450498 0.829730 0.035457
C83   C     C_R   0.001359 0.549502 0.170272 0.035494
C84   C     C_R   0.498576 0.049499 0.829725 0.035518
C85   C     C_R   0.498569 0.950502 0.170273 0.035545
C86   C     C_R   0.501369 0.950498 0.829730 0.035457
C87   C     C_R   0.501359 0.049502 0.170272 0.035494
C88   C     C_2   0.995235 0.602232 0.874030 0.652231
C89   C     C_R   0.999301 0.548604 0.743554 0.378630
C90   C     C_2   0.995220 0.397771 0.125966 0.652318
C91   C     C_2   0.004607 0.397760 0.874048 0.652426
C92   C     C_2   0.004584 0.602240 0.125958 0.652417
C93   C     C_2   0.495235 0.102232 0.874030 0.652231
C94   C     C_2   0.495220 0.897771 0.125966 0.652318
C95   C     C_2   0.504607 0.897760 0.874048 0.652426
C96   C     C_2   0.504584 0.102240 0.125958 0.652417
Cl1   Cl    Cl    0.202190 0.696563 0.664700 -0.305414
Cl2   Cl    Cl    0.292241 0.811603 0.332951 -0.312149
Cl3   Cl    Cl    0.297830 0.803409 0.664691 -0.305434
Cl4   Cl    Cl    0.707720 0.188450 0.332942 -0.312133
Cl5   Cl    Cl    0.297824 0.196585 0.335319 -0.305418
Cl6   Cl    Cl    0.707761 0.811608 0.667054 -0.312154
Cl7   Cl    Cl    0.702156 0.803390 0.335318 -0.305430
Cl8   Cl    Cl    0.292255 0.188411 0.667062 -0.312154
Cl9   Cl    Cl    0.125077 0.600093 0.669798 -0.339737
Cl10  Cl    Cl    0.869414 0.408432 0.332087 -0.355525
Cl11  Cl    Cl    0.874949 0.399872 0.669800 -0.339765
Cl12  Cl    Cl    0.792241 0.311603 0.332951 -0.312149
Cl13  Cl    Cl    0.130570 0.591598 0.332075 -0.355498
Cl14  Cl    Cl    0.874934 0.600112 0.330207 -0.339739
Cl15  Cl    Cl    0.130599 0.408450 0.667904 -0.355518
Cl16  Cl    Cl    0.125050 0.399865 0.330199 -0.339755
Cl17  Cl    Cl    0.869421 0.591575 0.667922 -0.355538
Cl18  Cl    Cl    0.625077 0.100093 0.669798 -0.339737
Cl19  Cl    Cl    0.369414 0.908432 0.332087 -0.355525
Cl20  Cl    Cl    0.374949 0.899872 0.669800 -0.339765
Cl21  Cl    Cl    0.630570 0.091598 0.332075 -0.355498
Cl22  Cl    Cl    0.374934 0.100112 0.330207 -0.339739
Cl23  Cl    Cl    0.797830 0.303409 0.664691 -0.305434
Cl24  Cl    Cl    0.630599 0.908450 0.667904 -0.355518
Cl25  Cl    Cl    0.625050 0.899865 0.330199 -0.339755
Cl26  Cl    Cl    0.369421 0.091575 0.667922 -0.355538
Cl27  Cl    Cl    0.997432 0.611656 0.691358 -0.358961
Cl28  Cl    Cl    0.997422 0.388344 0.308638 -0.358939
Cl29  Cl    Cl    0.002583 0.388345 0.691365 -0.358968
Cl30  Cl    Cl    0.002568 0.611657 0.308630 -0.358998
Cl31  Cl    Cl    0.497432 0.111656 0.691358 -0.358961
Cl32  Cl    Cl    0.497422 0.888344 0.308638 -0.358939
Cl33  Cl    Cl    0.502583 0.888345 0.691365 -0.358968
Cl34  Cl    Cl    0.207720 0.688450 0.332942 -0.312133
Cl35  Cl    Cl    0.502568 0.111657 0.308630 -0.358998
Cl36  Cl    Cl    0.797824 0.696585 0.335319 -0.305418
Cl37  Cl    Cl    0.207761 0.311608 0.667054 -0.312154
Cl38  Cl    Cl    0.202156 0.303390 0.335318 -0.305430
Cl39  Cl    Cl    0.792255 0.688411 0.667062 -0.312154
Cl40  Cl    Cl    0.702190 0.196563 0.664700 -0.305414
Cu1   Cu    Cu3+1 0.000000 0.500000 0.580420 1.233846
Cu2   Cu    Cu3+1 1.000000 0.500000 0.419580 1.233841
Cu3   Cu    Cu3+1 0.500000 0.000000 0.580420 1.233846
Cu4   Cu    Cu3+1 0.500000 1.000000 0.419580 1.233841
H1    H     H_    0.957730 0.647683 0.957155 0.380428
H2    H     H_    0.957700 0.352321 0.042860 0.380409
H3    H     H_    0.041902 0.352289 0.957398 0.380421
H4    H     H_    0.041912 0.647751 0.042694 0.380397
H5    H     H_    0.457730 0.147683 0.957155 0.380428
H6    H     H_    0.457700 0.852321 0.042860 0.380409
H7    H     H_    0.541902 0.852289 0.957398 0.380421
H8    H     H_    0.541912 0.147751 0.042694 0.380397
N1    N     N_R   0.000000 0.500000 0.701220 -0.242031
N2    N     N_R   0.000000 0.500000 0.298780 -0.242036
N3    N     N_R   0.500000 1.000000 0.701220 -0.242031
N4    N     N_R   0.500000 0.000000 0.298780 -0.242036
O1    O     O_R   0.054370 0.445630 0.567930 -0.441817
O2    O     O_R   0.445630 0.054370 0.432070 -0.442131
O3    O     O_R   0.445630 0.054370 0.567930 -0.441846
O4    O     O_R   0.554370 0.945630 0.432070 -0.442130
O5    O     O_R   0.445630 0.945630 0.432070 -0.441839
O6    O     O_R   0.554370 0.054370 0.567930 -0.442120
O7    O     O_R   0.554370 0.054370 0.432070 -0.441831
O8    O     O_R   0.445630 0.945630 0.567930 -0.442136
O9    O     O_2   0.026097 0.638771 0.860090 -0.373200
O10   O     O_R   0.956628 0.609921 0.931860 -0.630112
O11   O     O_2   0.026073 0.361229 0.139889 -0.373247
O12   O     O_R   0.945630 0.554370 0.432070 -0.442131
O13   O     O_R   0.956606 0.390086 0.068157 -0.630079
O14   O     O_2   0.973748 0.361249 0.860001 -0.373096
O15   O     O_R   0.043071 0.390053 0.932087 -0.630340
O16   O     O_2   0.973668 0.638713 0.139920 -0.373155
O17   O     O_R   0.043102 0.609994 0.068026 -0.630194
O18   O     O_2   0.526097 0.138771 0.860090 -0.373200
O19   O     O_R   0.456628 0.109921 0.931860 -0.630112
O20   O     O_2   0.526073 0.861229 0.139889 -0.373247
O21   O     O_R   0.456606 0.890086 0.068157 -0.630079
O22   O     O_2   0.473748 0.861249 0.860001 -0.373096
O23   O     O_R   0.945630 0.554370 0.567930 -0.441846
O24   O     O_R   0.543071 0.890053 0.932087 -0.630340
O25   O     O_2   0.473668 0.138713 0.139920 -0.373155
O26   O     O_R   0.543102 0.109994 0.068026 -0.630194
O27   O     O_R   0.054370 0.445630 0.432070 -0.442130
O28   O     O_R   0.945630 0.445630 0.432070 -0.441839
O29   O     O_R   0.054370 0.554370 0.567930 -0.442120
O30   O     O_R   0.054370 0.554370 0.432070 -0.441831
O31   O     O_R   0.945630 0.445630 0.567930 -0.442136
O32   O     O_R   0.554370 0.945630 0.567930 -0.441817

loop_
_geom_bond_atom_site_label_1
_geom_bond_atom_site_label_2
_ccdc_geom_bond_type
C24   Cl37  S    
C2    N2    A    
C3    C82   A    
H5    O19   S    
C46   C59   A    
C91   O14   D    
C69   C77   S    
C51   C61   A    
C95   O24   S    
Cu2   O28   S    
Cu2   N2    S    
C83   C92   S    
C28   C46   A    
C49   C60   A    
C46   Cl19  S    
C29   C47   A    
C50   Cl24  S    
C27   Cl40  S    
C31   Cl5   S    
C91   O15   S    
C8    N4    A    
C95   O22   D    
Cu1   O23   S    
C10   C15   S    
C56   O3    A    
Cu4   O7    S    
C71   C76   T    
C7    C86   A    
Cu1   O29   S    
C11   C86   A    
C28   Cl2   S    
C88   O9    D    
H6    O21   S    
C30   Cl4   S    
C10   C83   A    
C80   C89   A    
C59   C67   S    
C34   O29   A    
C85   C94   S    
Cu3   N3    S    
C38   Cl11  S    
C42   Cl16  S    
C26   C64   A    
C36   C53   A    
C52   C60   A    
C94   O20   D    
C52   Cl26  S    
C27   C44   A    
C78   O6    A    
Cu3   O6    S    
C19   C63   A    
C16   C17   T    
C74   C77   T    
C21   C39   A    
C64   C73   S    
C34   O30   A    
C67   O8    A    
C26   Cl39  S    
C18   Cl1   S    
C96   O25   D    
C19   C37   A    
Cu4   N4    S    
C9    C82   A    
C6    N4    A    
C19   Cl12  S    
C89   N1    A    
C36   Cl9   S    
C44   Cl18  S    
H1    O10   S    
C24   C41   A    
Cu1   N1    S    
C31   C49   A    
C72   C75   T    
Cu2   O27   S    
C42   C57   A    
C26   C43   A    
C47   Cl20  S    
C93   O18   D    
C3    N1    A    
C29   Cl3   S    
C25   C65   A    
C56   O2    A    
C35   Cl8   S    
C44   C58   A    
C5    C84   A    
H7    O24   S    
C18   C62   A    
C40   Cl14  S    
C89   Cl27  S    
C47   C59   A    
H4    O17   S    
C82   C91   S    
C56   C60   S    
C9    C80   A    
C9    C14   S    
C23   O31   A    
C1    C57   S    
Cu4   O5    S    
C12   O12   A    
C29   C68   A    
C20   C38   A    
C11   C16   S    
C92   O16   D    
C31   C69   A    
C49   Cl22  S    
C38   C54   A    
Cu3   O3    S    
C92   O17   S    
C40   C55   A    
C22   C40   A    
C87   C96   S    
C13   C87   A    
C8    Cl35  S    
C73   C79   T    
Cu1   O1    S    
C67   O5    A    
C45   O4    A    
C1    O1    A    
C25   Cl38  S    
C6    C85   A    
H3    O15   S    
C23   O28   A    
C30   C66   A    
C33   C70   A    
Cu4   O4    S    
C12   O23   A    
C7    N3    A    
C37   C54   A    
C24   C65   A    
C43   C55   A    
C6    Cl32  S    
Cu3   O8    S    
C90   O13   S    
C51   Cl25  S    
C32   Cl6   S    
C33   C51   A    
C81   C90   S    
C23   C54   S    
C30   C48   A    
C93   O19   S    
H8    O26   S    
C5    Cl31  S    
C65   C74   S    
C22   Cl36  S    
C70   C79   S    
C33   Cl7   S    
C28   C68   A    
C25   C42   A    
C32   C70   A    
Cu3   Cu4   S    
C3    Cl29  S    
C48   C58   A    
C48   Cl21  S    
Cu1   O31   S    
C2    Cl28  S    
C11   C84   A    
C68   C76   S    
C4    N2    A    
Cu1   Cu2   S    
C10   C81   A    
C5    N3    A    
C4    Cl30  S    
C90   O11   D    
C8    C87   A    
C96   O26   S    
C20   C63   A    
C41   C57   A    
C37   Cl10  S    
C80   C88   S    
C27   C66   A    
C43   Cl17  S    
H2    O13   S    
C1    O27   A    
C39   C53   A    
C4    C83   A    
C88   O10   S    
C66   C75   S    
C45   C61   S    
C62   C71   S    
C32   C50   A    
C84   C93   S    
Cu2   O30   S    
C21   Cl34  S    
C7    Cl33  S    
C12   C55   S    
C86   C95   S    
C58   C78   S    
C94   O21   S    
C22   C64   A    
C13   C17   S    
C78   O7    A    
C39   Cl13  S    
C63   C72   S    
C35   C69   A    
C34   C53   S    
C41   Cl15  S    
C13   C85   A    
C35   C52   A    
C50   C61   A    
C14   C15   T    
C2    C81   A    
Cu2   O12   S    
C21   C62   A    
C18   C36   A    
C20   Cl23  S    
Cu3   O32   S    
C45   O32   A    
Cu4   O2    S    
