data_mof_unit_52714.cif
_audit_creation_date              2012-12-10T16:53:58-0500
_audit_creation_method            fapswitch 2.2
_symmetry_space_group_name_H-M    P1
_symmetry_Int_Tables_number       1
_space_group_crystal_system       triclinic
_cell_length_a                    7.760462
_cell_length_b                    8.63836
_cell_length_c                    10.651107
_cell_angle_alpha                 92.611968
_cell_angle_beta                  85.065447
_cell_angle_gamma                 93.823331
_cell_volume                      709.225480727

loop_
_atom_site_label
_atom_site_type_symbol
_atom_type_description
_atom_site_fract_x
_atom_site_fract_y
_atom_site_fract_z
_atom_type_partial_charge
C1    C     C_R   0.545719 0.794721 0.494557 0.960875
C2    C     C_3   0.365521 0.607206 0.941918 -0.453566
C3    C     C_3   0.354190 0.595309 0.084356 -0.413818
C4    C     C_3   0.452496 0.322128 0.921418 0.046817
C5    C     C_3   0.680784 0.555443 0.921149 -0.443789
C6    C     C_3   0.500129 0.495121 0.878813 0.098224
C7    C     C_3   0.582849 0.209615 0.850257 -0.374425
C8    C     C_3   0.546708 0.035790 0.870509 -0.342730
C9    C     C_3   0.685280 0.945650 0.792829 -0.894083
C10   C     C_2   0.266647 0.274928 0.888520 0.409965
C11   C     C_2   0.325854 0.229475 0.142112 0.340874
C12   C     C_3   0.497948 0.493961 0.121479 0.068201
C13   C     C_3   0.470722 0.322472 0.068236 -0.253599
C14   C     C_3   0.676066 0.563281 0.064037 -0.403912
C15   C     C_2   0.569336 0.957710 0.487954 -0.394848
C16   C     C_2   0.429752 0.041710 0.502672 -0.270376
C17   C     C_R   0.501497 0.504438 0.742386 0.842405
C18   C     C_R   0.454050 0.205063 0.501713 1.015991
C19   C     C_R   0.499275 0.499169 0.257871 0.871216
H1    H     H_    0.233902 0.582111 0.909141 0.182740
H2    H     H_    0.223641 0.544323 0.117464 0.168888
H3    H     H_    0.786822 0.483606 0.880900 0.181757
H4    H     H_    0.718042 0.672318 0.887548 0.186930
H5    H     H_    0.697991 0.686171 0.098574 0.189373
H6    H     H_    0.738826 0.006859 0.707313 0.274432
H7    H     H_    0.794953 0.929758 0.850447 0.259972
H8    H     H_    0.627552 0.832166 0.759482 0.234727
H9    H     H_    0.547909 0.010563 0.971706 0.243186
H10   H     H_    0.418128 0.995394 0.839197 0.258135
H11   H     H_    0.584017 0.223331 0.747420 0.233106
H12   H     H_    0.785021 0.498096 0.091782 0.181279
H13   H     H_    0.716379 0.239787 0.876778 0.198593
H14   H     H_    0.156822 0.313142 0.949139 0.030225
H15   H     H_    0.196914 0.271723 0.157121 0.062700
H16   H     H_    0.591594 0.265754 0.083970 0.176316
H17   H     H_    0.701155 0.008392 0.472787 0.178419
H18   H     H_    0.297846 0.991097 0.517379 0.185855
H19   H     H_    0.013993 0.381910 0.403857 0.187541
H20   H     H_    0.986001 0.618040 0.596190 0.190239
H21   H     H_    0.404922 0.728667 0.917257 0.193603
H22   H     H_    0.368617 0.714094 0.129089 0.210753
N1    N     N_2   0.950330 0.457950 0.465890 -0.173081
N2    N     N_2   0.049670 0.542050 0.534110 -0.169387
O1    O     O_R   0.389250 0.738570 0.508370 -0.613060
O2    O     O_2   0.353841 0.107449 0.187826 -0.602681
O3    O     O_R   0.678390 0.711620 0.486510 -0.628143
O4    O     O_R   0.355430 0.513500 0.696140 -0.603555
O5    O     O_R   0.644580 0.486550 0.674270 -0.646965
O6    O     O_R   0.321610 0.288380 0.513490 -0.590497
O7    O     O_R   0.610750 0.261430 0.491630 -0.633573
O8    O     O_R   0.355420 0.513450 0.325730 -0.640015
O9    O     O_R   0.644570 0.486500 0.303860 -0.631251
O10   O     O_2   0.237311 0.202999 0.790443 -0.593266
Zn1   Zn    Zn3+2 0.306940 0.517990 0.514600 0.970140
Zn2   Zn    Zn3+2 0.693060 0.482010 0.485400 0.937144

loop_
_geom_bond_atom_site_label_1
_geom_bond_atom_site_label_2
_ccdc_geom_bond_type
O3    Zn2   S    
O5    Zn2   S    
C17   O5    A    
C13   H16   S    
C1    C15   S    
C19   O8    A    
N1    Zn2   S    
C17   O4    A    
C16   H18   S    
N2    Zn1   S    
O7    Zn2   S    
C5    H4    S    
O9    Zn2   S    
C14   H12   S    
O8    Zn1   S    
C2    C3    S    
C9    H6    S    
C7    C8    S    
C7    H11   S    
C11   C13   S    
C9    H8    S    
C5    C14   S    
C2    C6    S    
O4    Zn1   S    
C8    H10   S    
O1    Zn1   S    
C12   C19   S    
C4    C6    S    
C12   C14   S    
C9    H7    S    
H19   N1    S    
C10   H14   S    
C4    C7    S    
C5    C6    S    
C8    H9    S    
C1    O3    A    
C11   O2    D    
C7    H13   S    
C3    H2    S    
N1    N2    D    
C4    C10   S    
O6    Zn1   S    
C2    H21   S    
C15   H17   S    
C12   C13   S    
C18   O7    A    
C16   C18   S    
C14   H5    S    
C4    C13   S    
C10   O10   D    
C6    C17   S    
C3    H22   S    
H20   N2    S    
C3    C12   S    
C1    O1    A    
C2    H1    S    
C19   O9    A    
C11   H15   S    
C5    H3    S    
C15   C16   D    
C18   O6    A    
C8    C9    S    
