data_mof_unit_17003.cif
_audit_creation_date              2012-12-10T17:23:45-0500
_audit_creation_method            fapswitch 2.2
_symmetry_space_group_name_H-M    P1
_symmetry_Int_Tables_number       1
_space_group_crystal_system       triclinic
_cell_length_a                    9.604828
_cell_length_b                    10.862973
_cell_length_c                    17.339417
_cell_angle_alpha                 93.318918
_cell_angle_beta                  85.171586
_cell_angle_gamma                 89.739013
_cell_volume                      1799.61788042

loop_
_atom_site_label
_atom_site_type_symbol
_atom_type_description
_atom_site_fract_x
_atom_site_fract_y
_atom_site_fract_z
_atom_type_partial_charge
Br1   Br    Br    0.167491 0.415018 0.908896 -0.571828
C1    C     C_R   0.499800 0.736953 0.494474 0.800298
C2    C     C_R   0.529904 0.489903 0.265356 -0.030334
C3    C     C_R   0.246217 0.881864 0.459844 -0.170333
C4    C     C_R   0.480958 0.501274 0.649790 0.810323
C5    C     C_R   0.117606 0.942568 0.473134 -0.172041
C6    C     C_R   0.109438 0.058004 0.511997 -0.131660
C7    C     C_R   0.231439 0.117883 0.530240 -0.147868
C8    C     C_R   0.364644 0.063079 0.508809 0.094931
C9    C     C_R   0.369427 0.936793 0.485212 0.096593
C10   C     C_R   0.496832 0.870987 0.488678 -0.116549
C11   C     C_R   0.620987 0.935752 0.496887 -0.207910
C12   C     C_R   0.347540 0.467130 0.775553 -0.219663
C13   C     C_R   0.619763 0.063120 0.503541 -0.211011
C14   C     C_R   0.493058 0.128484 0.509287 -0.112425
C15   C     C_R   0.872146 0.334502 0.397091 -0.148839
C16   C     C_R   0.498362 0.262819 0.504915 0.786144
C17   C     C_R   0.952009 0.252332 0.347197 -0.212329
C18   C     C_R   0.095561 0.251858 0.347197 -0.196632
C19   C     C_R   0.160164 0.333641 0.397018 -0.138885
C20   C     C_R   0.082911 0.418393 0.449344 0.163441
C21   C     C_R   0.933378 0.418434 0.449497 0.190241
C22   C     C_R   0.916154 0.578122 0.547321 -0.064749
C23   C     C_R   0.417734 0.457443 0.146276 -0.135654
C24   C     C_R   0.063314 0.577686 0.549369 0.222759
C25   C     C_R   0.519097 0.497491 0.350104 0.772402
C26   C     C_R   0.469699 0.505749 0.734356 -0.078524
C27   C     C_R   0.581936 0.549328 0.774430 -0.187951
C28   C     C_R   0.572428 0.553721 0.854794 -0.181772
C29   C     C_R   0.450839 0.513789 0.896302 0.120262
C30   C     C_R   0.336871 0.472053 0.856295 0.283914
C31   C     C_3   0.118063 0.667567 0.609502 -0.377959
C32   C     C_3   0.066210 0.636349 0.691902 -0.832583
C33   C     C_R   0.410333 0.463353 0.226530 -0.210082
C34   C     C_R   0.658240 0.507173 0.222549 -0.194410
C35   C     C_R   0.665352 0.502256 0.141797 -0.152749
C36   C     C_R   0.544486 0.480396 0.103361 0.179022
C37   C     C_2   0.443190 0.515325 0.981091 -0.172122
C38   C     C_2   0.552762 0.481967 0.018535 -0.225773
Cu1   Cu    Cu3+1 0.359340 0.500010 0.500010 0.913135
Cu2   Cu    Cu3+1 0.640660 0.499990 0.499990 0.928798
H1    H     H_    0.676743 0.581019 0.743706 0.157325
H2    H     H_    0.763009 0.328619 0.391935 0.201381
H3    H     H_    0.901887 0.188859 0.308009 0.156847
H4    H     H_    0.310694 0.446570 0.258032 0.159160
H5    H     H_    0.157711 0.187823 0.308122 0.156633
H6    H     H_    0.270779 0.325972 0.391942 0.200014
H7    H     H_    0.752265 0.526194 0.251340 0.158450
H8    H     H_    0.651983 0.457477 0.986386 0.167871
H9    H     H_    0.324093 0.434160 0.118247 0.149789
H10   H     H_    0.261694 0.430482 0.745094 0.174694
H11   H     H_    0.344502 0.541878 0.012837 0.182118
H12   H     H_    0.764411 0.518154 0.109371 0.143472
H13   H     H_    0.659831 0.589460 0.884471 0.154872
H14   H     H_    0.078852 0.536256 0.699207 0.265891
H15   H     H_    0.126910 0.688603 0.734483 0.256630
H16   H     H_    0.954217 0.661787 0.704680 0.235233
H17   H     H_    0.231512 0.672016 0.606958 0.268919
H18   H     H_    0.081918 0.762196 0.599458 0.183352
H19   H     H_    0.720104 0.888048 0.497761 0.160239
H20   H     H_    0.247544 0.793615 0.427750 0.170062
H21   H     H_    0.023776 0.898389 0.455262 0.134839
H22   H     H_    0.008799 0.102568 0.526459 0.139039
H23   H     H_    0.218537 0.205174 0.563150 0.168542
H24   H     H_    0.718705 0.110345 0.505066 0.165394
H25   H     H_    0.851715 0.641941 0.585284 0.147055
N1    N     N_R   0.852190 0.498790 0.499250 -0.218689
N2    N     N_R   0.148060 0.498710 0.499220 -0.223904
O1    O     O_R   0.381190 0.680360 0.500010 -0.612170
O2    O     O_R   0.618760 0.680340 0.500000 -0.581659
O3    O     O_R   0.367440 0.500030 0.613600 -0.591344
O4    O     O_R   0.605010 0.500010 0.613590 -0.577440
O5    O     O_R   0.381240 0.319660 0.500000 -0.611841
O6    O     O_R   0.618810 0.319640 0.499990 -0.596183
O7    O     O_R   0.394990 0.499990 0.386410 -0.604041
O8    O     O_R   0.632560 0.499970 0.386400 -0.600179

loop_
_geom_bond_atom_site_label_1
_geom_bond_atom_site_label_2
_ccdc_geom_bond_type
C32   H14   S    
Cu1   O3    S    
C34   C35   A    
C31   H17   S    
C18   H5    S    
C6    C7    A    
Cu2   N1    S    
C22   H25   S    
C35   C36   A    
C4    O4    A    
C29   C30   A    
C37   H11   S    
C28   H13   S    
C1    C10   S    
Br1   C30   S    
Cu1   O5    S    
C29   C37   S    
C17   C18   A    
C22   N1    A    
C35   H12   S    
Cu2   O6    S    
C4    C26   S    
C18   C19   A    
C7    C8    A    
C25   O8    A    
C1    O1    A    
C8    C9    A    
C24   C31   S    
C12   H10   S    
C20   C21   A    
C16   O5    A    
C24   N2    A    
C34   H7    S    
C25   O7    A    
C23   H9    S    
C36   C38   S    
Cu1   O1    S    
C3    C5    A    
C2    C33   A    
C3    H20   S    
C23   C33   A    
C15   C21   A    
C28   C29   A    
C17   H3    S    
C2    C34   A    
C23   C36   A    
C33   H4    S    
C15   H2    S    
C6    H22   S    
C7    H23   S    
Cu2   O4    S    
Cu1   Cu2   S    
C38   H8    S    
C11   C13   A    
C20   N2    A    
C16   O6    A    
C3    C9    A    
C14   C16   S    
C27   C28   A    
C32   H16   S    
C12   C30   A    
C2    C25   S    
C10   C11   A    
C5    C6    A    
Cu1   O7    S    
C31   C32   S    
C5    H21   S    
C8    C14   A    
C4    O3    A    
Cu2   O8    S    
C37   C38   D    
C32   H15   S    
C27   H1    S    
C13   H24   S    
C22   C24   A    
C21   N1    A    
C19   H6    S    
C9    C10   A    
C11   H19   S    
C19   C20   A    
C15   C17   A    
Cu1   N2    S    
C26   C27   A    
C13   C14   A    
C12   C26   A    
C31   H18   S    
C1    O2    A    
Cu2   O2    S    
