data_mof_unit_29640.cif
_audit_creation_date              2012-10-26T19:41:34-0400
_audit_creation_method            fapswitch 2.2
_symmetry_space_group_name_H-M    P1
_symmetry_Int_Tables_number       1
_space_group_crystal_system       triclinic
_cell_length_a                    17.282609
_cell_length_b                    11.11065
_cell_length_c                    9.837106
_cell_angle_alpha                 110.887022
_cell_angle_beta                  95.347756
_cell_angle_gamma                 91.595661
_cell_volume                      1753.32766063

loop_
_atom_site_label
_atom_site_type_symbol
_atom_type_description
_atom_site_fract_x
_atom_site_fract_y
_atom_site_fract_z
_atom_type_partial_charge
C1    C     C_R   0.495648 0.254747 0.442247 0.529427
C2    C     C_R   0.648266 0.494566 0.480702 0.527457
C3    C     C_R   0.268017 0.518319 0.527059 -0.077979
C4    C     C_R   0.731731 0.483433 0.468975 -0.078121
C5    C     C_R   0.219887 0.505244 0.399045 -0.150869
C6    C     C_R   0.782141 0.488133 0.591374 -0.125411
C7    C     C_R   0.139851 0.518623 0.400656 0.226245
C8    C     C_R   0.861287 0.474158 0.581611 0.231411
C9    C     C_R   0.108396 0.550291 0.535140 0.038285
C10   C     C_R   0.891340 0.463345 0.449253 0.017845
C11   C     C_R   0.157203 0.571866 0.665871 0.226613
C12   C     C_R   0.503417 0.744868 0.558339 0.535478
C13   C     C_R   0.840928 0.455981 0.325131 0.234888
C14   C     C_R   0.236371 0.551136 0.660230 -0.125799
C15   C     C_R   0.761194 0.464053 0.335331 -0.123968
C16   C     C_2   0.023938 0.554477 0.539341 -0.071679
C17   C     C_2   0.975190 0.462470 0.440519 -0.092512
C18   C     C_3   0.123128 0.735534 0.865615 0.000399
C19   C     C_3   0.198137 0.795509 0.966529 -0.269275
C20   C     C_3   0.189677 0.936046 0.061531 -0.481149
C21   C     C_3   0.894749 0.552042 0.181334 0.003619
C22   C     C_3   0.830008 0.604917 0.105343 -0.258040
C23   C     C_2   0.491407 0.116975 0.413382 -0.107240
C24   C     C_3   0.861091 0.718450 0.068921 -0.457701
C25   C     C_3   0.937926 0.360027 0.690874 0.012022
C26   C     C_3   0.885546 0.286510 0.755999 -0.278542
C27   C     C_3   0.918935 0.159634 0.751638 -0.479394
C28   C     C_3   0.103082 0.408460 0.150672 -0.024785
C29   C     C_3   0.137145 0.454125 0.037877 -0.247550
C30   C     C_3   0.160234 0.340888 0.909316 -0.440862
C31   C     C_3   0.361810 0.882785 0.351392 0.000043
C32   C     C_3   0.315448 0.808915 0.425677 -0.262960
C33   C     C_3   0.229181 0.834572 0.415983 -0.475221
C34   C     C_2   0.506392 0.882411 0.590906 -0.081246
C35   C     C_3   0.603554 0.164509 0.697761 0.011151
C36   C     C_3   0.624627 0.207270 0.863320 -0.234817
C37   C     C_3   0.712282 0.231767 0.905127 -0.473618
C38   C     C_2   0.500518 0.070544 0.522755 0.228384
C39   C     C_2   0.480817 0.933057 0.491273 0.255825
C40   C     C_2   0.505547 0.511300 0.081113 0.562311
C41   C     C_2   0.492837 0.491576 0.919796 0.564677
C42   C     C_R   0.351674 0.505262 0.518866 0.527427
Cu1   Cu    Cu3+1 0.513640 0.521550 0.643210 1.133663
Cu2   Cu    Cu3+1 0.486360 0.478450 0.356790 1.134541
F1    F     F_    0.435563 0.404045 0.833811 -0.581829
F2    F     F_    0.561205 0.601661 0.168004 -0.594648
F3    F     F_    0.591136 0.639652 0.941677 -0.536040
F4    F     F_    0.411784 0.355277 0.056738 -0.533048
H1    H     H_    0.244734 0.486483 0.297209 0.157257
H2    H     H_    0.111006 0.785407 0.786092 0.111406
H3    H     H_    0.212468 0.739549 0.038212 0.165473
H4    H     H_    0.247015 0.791759 0.899708 0.161232
H5    H     H_    0.175162 0.993662 0.991733 0.151966
H6    H     H_    0.245322 0.977637 0.130933 0.150442
H7    H     H_    0.143177 0.942412 0.134067 0.140588
H8    H     H_    0.944191 0.531868 0.113649 0.178806
H9    H     H_    0.917725 0.626926 0.289072 0.142827
H10   H     H_    0.804410 0.527768 0.002381 0.183802
H11   H     H_    0.783237 0.637427 0.177923 0.189862
H12   H     H_    0.760254 0.500907 0.695018 0.160665
H13   H     H_    0.886037 0.797992 0.170483 0.136053
H14   H     H_    0.812833 0.754813 0.014680 0.181649
H15   H     H_    0.906721 0.687655 0.993342 0.176942
H16   H     H_    0.996847 0.378007 0.752704 0.173913
H17   H     H_    0.945096 0.298451 0.575801 0.121174
H18   H     H_    0.879741 0.346883 0.871429 0.195034
H19   H     H_    0.826911 0.265518 0.692733 0.151628
H20   H     H_    0.925597 0.097304 0.637139 0.144319
H21   H     H_    0.879061 0.107535 0.797203 0.153596
H22   H     H_    0.976397 0.178463 0.818552 0.139263
H23   H     H_    0.722633 0.457024 0.239128 0.164090
H24   H     H_    0.044843 0.359041 0.102247 0.151411
H25   H     H_    0.138690 0.333921 0.173059 0.123182
H26   H     H_    0.092938 0.507485 0.997099 0.201418
H27   H     H_    0.189282 0.521237 0.089602 0.177651
H28   H     H_    0.206073 0.288759 0.947975 0.181976
H29   H     H_    0.183618 0.377049 0.828706 0.197722
H30   H     H_    0.108981 0.272890 0.854182 0.117313
H31   H     H_    0.338181 0.850119 0.234204 0.152920
H32   H     H_    0.352769 0.987922 0.399238 0.122923
H33   H     H_    0.322017 0.704060 0.371623 0.188963
H34   H     H_    0.272949 0.562196 0.760082 0.165657
H35   H     H_    0.338429 0.838699 0.542979 0.156854
H36   H     H_    0.221487 0.939853 0.462643 0.150666
H37   H     H_    0.198333 0.787120 0.479353 0.162726
H38   H     H_    0.202714 0.795129 0.300360 0.155899
H39   H     H_    0.627480 0.238888 0.658831 0.151231
H40   H     H_    0.631588 0.072575 0.644320 0.099488
H41   H     H_    0.596128 0.297257 0.919317 0.188665
H42   H     H_    0.603027 0.131281 0.902008 0.176931
H43   H     H_    0.742541 0.144458 0.846599 0.147008
H44   H     H_    0.725815 0.255431 0.024625 0.176863
H45   H     H_    0.996443 0.385751 0.351170 0.158701
H46   H     H_    0.733621 0.314338 0.877414 0.147681
H47   H     H_    0.001497 0.628901 0.629497 0.158169
H48   H     H_    0.532698 0.942895 0.699214 0.106244
H49   H     H_    0.476385 0.052261 0.300697 0.121047
H50   H     H_    0.073506 0.752233 0.932889 0.154790
N1    N     N_2   0.465840 0.446060 0.141630 0.029894
N2    N     N_2   0.534160 0.553940 0.858370 0.028744
O1    O     O_R   0.507280 0.332200 0.576490 -0.431529
O2    O     O_3   0.868584 0.433803 0.191212 -0.594950
O3    O     O_3   0.908969 0.481766 0.706247 -0.586068
O4    O     O_3   0.092693 0.516804 0.277014 -0.588838
O5    O     O_3   0.441466 0.855523 0.357005 -0.538590
O6    O     O_3   0.521358 0.150817 0.667544 -0.515687
O7    O     O_R   0.492720 0.667800 0.423510 -0.415488
O8    O     O_R   0.484240 0.295800 0.334620 -0.491015
O9    O     O_R   0.515760 0.704200 0.665380 -0.495775
O10   O     O_R   0.399260 0.520290 0.634950 -0.474218
O11   O     O_R   0.600740 0.479710 0.365050 -0.485196
O12   O     O_R   0.376220 0.483890 0.393080 -0.507348
O13   O     O_R   0.623780 0.516110 0.606920 -0.502498
O14   O     O_3   0.126511 0.600284 0.797784 -0.594931

loop_
_geom_bond_atom_site_label_1
_geom_bond_atom_site_label_2
_ccdc_geom_bond_type
C36   H41   S    
C3    C42   S    
C24   H13   S    
C35   C36   S    
Cu1   Cu2   S    
C18   O14   S    
C40   N1    D    
C31   H32   S    
C40   F2    S    
C32   H33   S    
C26   C27   S    
C26   H19   S    
C28   C29   S    
C9    C16   S    
C34   H48   S    
C38   C39   S    
C11   C14   A    
C10   C17   S    
C30   H28   S    
C39   O5    S    
C18   C19   S    
C32   H35   S    
C11   O14   S    
C33   H37   S    
C42   O12   A    
C27   H20   S    
C30   H29   S    
C35   H39   S    
C19   H4    S    
C19   C20   S    
C16   C17   D    
Cu1   O10   S    
C27   H21   S    
C21   C22   S    
C31   O5    S    
C5    H1    S    
C28   H24   S    
C20   H7    S    
C28   H25   S    
C12   O9    A    
C8    O3    S    
Cu2   O8    S    
C2    O11   A    
C37   H43   S    
C34   C39   D    
C26   H18   S    
C6    H12   S    
C25   H17   S    
Cu1   N2    S    
C20   H6    S    
C22   H11   S    
C5    C7    A    
C25   O3    S    
C6    C8    A    
C29   H26   S    
C25   C26   S    
F3    N2    S    
C25   H16   S    
C38   O6    S    
C2    C4    S    
C33   H38   S    
Cu1   O1    S    
C21   H9    S    
C29   C30   S    
C21   H8    S    
C9    C11   A    
C35   H40   S    
C28   O4    S    
C31   C32   S    
C41   N2    D    
C27   H22   S    
C3    C14   A    
C21   O2    S    
Cu2   O12   S    
C4    C6    A    
C40   C41   S    
C23   H49   S    
Cu1   O9    S    
C1    C23   S    
C24   H15   S    
C7    O4    S    
C13   C15   A    
C22   C24   S    
C17   H45   S    
C14   H34   S    
C12   C34   S    
C1    O1    A    
C18   H2    S    
Cu2   O7    S    
C36   H42   S    
C7    C9    A    
F4    N1    S    
C36   C37   S    
C16   H47   S    
C24   H14   S    
C37   H44   S    
Cu2   N1    S    
C20   H5    S    
C3    C5    A    
C10   C13   A    
C22   H10   S    
C12   O7    A    
C31   H31   S    
C29   H27   S    
C23   C38   D    
C15   H23   S    
C32   C33   S    
C4    C15   A    
C42   O10   A    
C35   O6    S    
Cu1   O13   S    
C2    O13   A    
C37   H46   S    
C33   H36   S    
C1    O8    A    
C30   H30   S    
Cu2   O11   S    
C19   H3    S    
C8    C10   A    
C41   F1    S    
C18   H50   S    
C13   O2    S    
