data_mof_unit_20860.cif
_audit_creation_date              2012-12-11T17:07:33-0500
_audit_creation_method            fapswitch 2.2
_symmetry_space_group_name_H-M    P1
_symmetry_Int_Tables_number       1
_space_group_crystal_system       triclinic
_cell_length_a                    6.95809
_cell_length_b                    14.635089
_cell_length_c                    15.977886
_cell_angle_alpha                 90.092562
_cell_angle_beta                  90.605461
_cell_angle_gamma                 89.836928
_cell_volume                      1626.96486497

loop_
_atom_site_label
_atom_site_type_symbol
_atom_type_description
_atom_site_fract_x
_atom_site_fract_y
_atom_site_fract_z
_atom_type_partial_charge
O1    O     O_R   0.505720 0.583900 0.413310 -0.513054
O2    O     O_R   0.175940 0.594920 0.586080 -0.521695
O3    O     O_R   0.005640 0.416100 0.586690 -0.504718
C1    C     C_R   0.345606 0.619739 0.612508 0.745969
O4    O     O_R   0.176000 0.594930 0.413930 -0.537210
O5    O     O_R   0.005700 0.416110 0.413310 -0.517665
C2    C     C_R   0.344483 0.616317 0.384572 0.766542
O6    O     O_R   0.505660 0.583890 0.586690 -0.552571
O7    O     O_3   0.339200 0.441330 0.500000 -0.358559
V1    V     V_3+5 0.064350 0.510880 0.500000 1.628923
O8    O     O_R   0.675980 0.405080 0.413920 -0.539851
C3    C     C_R   0.845020 0.381866 0.386389 0.806444
O9    O     O_R   0.675920 0.405070 0.586070 -0.552130
C4    C     C_R   0.845618 0.388425 0.619165 0.757683
V2    V     V_3+5 0.564340 0.489120 0.500000 1.592548
O10   O     O_3   0.839360 0.558670 0.500000 -0.364737
C5    C     C_R   0.948095 0.435343 0.800730 0.251027
C6    C     C_R   0.952580 0.459335 0.885310 -0.081884
C7    C     C_R   0.924419 0.394324 0.946473 0.409697
C8    C     C_R   0.898268 0.303732 0.923603 -0.229651
C9    C     C_R   0.889788 0.277233 0.838197 -0.023433
C10   C     C_R   0.899657 0.345058 0.774217 -0.001214
C11   C     C_R   0.873641 0.184031 0.816908 -0.066900
C12   C     C_R   0.840993 0.158034 0.732702 0.011809
C13   C     C_R   0.830465 0.225590 0.668841 -0.004217
C14   C     C_R   0.861269 0.319446 0.688473 -0.093432
C15   C     C_R   0.815914 0.065058 0.710909 -0.292219
C16   C     C_R   0.777003 0.038822 0.628533 0.389691
C17   C     C_R   0.763806 0.105063 0.565830 0.448932
C18   C     C_R   0.792149 0.196975 0.585602 -0.226391
H1    H     H_    0.824369 0.011724 0.757689 0.137303
C19   C     C_R   0.762307 0.261660 0.179333 0.006988
C20   C     C_R   0.881581 0.184497 0.183847 -0.102379
C21   C     C_R   0.998943 0.175449 0.255693 -0.026049
C22   C     C_R   0.991126 0.239655 0.321772 0.385559
C23   C     C_R   0.858216 0.313353 0.318540 -0.208710
C24   C     C_R   0.752435 0.324650 0.244352 0.065060
C25   C     C_3   0.543543 0.342214 0.229937 0.210199
C26   C     C_3   0.553477 0.272634 0.158819 0.165460
C27   C     C_R   0.530231 0.714175 0.716978 0.060607
C28   C     C_R   0.357350 0.694047 0.675809 -0.039715
C29   C     C_R   0.197338 0.749227 0.695980 -0.084041
C30   C     C_R   0.207554 0.812709 0.762731 -0.132391
C31   C     C_R   0.377980 0.822324 0.811010 -0.051512
C32   C     C_R   0.540136 0.775351 0.783087 0.042325
C33   C     C_3   0.687952 0.719298 0.828330 0.253124
C34   C     C_3   0.678193 0.653224 0.754668 -0.393724
H2    H     H_    0.621647 0.584216 0.769702 0.218690
C35   C     C_R   0.487220 0.756186 0.317405 0.000351
C36   C     C_R   0.353728 0.684492 0.315954 -0.105923
C37   C     C_R   0.233923 0.677015 0.244923 -0.064067
C38   C     C_R   0.242377 0.740695 0.178820 0.394812
C39   C     C_R   0.378731 0.812470 0.180987 -0.207307
C40   C     C_R   0.497907 0.819280 0.251914 0.033419
C41   C     C_3   0.712161 0.820959 0.255200 0.187534
C42   C     C_3   0.701492 0.751463 0.325567 0.166292
O11   O     O_R   0.229140 0.916090 0.913340 -0.548724
O12   O     O_R   0.558860 0.905090 0.086080 -0.527290
O13   O     O_R   0.729100 0.083920 0.086690 -0.509515
C43   C     C_R   0.390244 0.881480 0.113403 0.845542
O14   O     O_R   0.558860 0.905090 0.913930 -0.546024
O15   O     O_R   0.729100 0.083920 0.913310 -0.552278
C44   C     C_R   0.389325 0.884491 0.884111 0.726033
O16   O     O_R   0.229140 0.916080 0.086720 -0.517222
O17   O     O_3   0.395570 0.058660 0.000020 -0.360510
V3    V     V_3+5 0.670450 0.989140 0.000000 1.586931
O18   O     O_R   0.058810 0.094980 0.913910 -0.546326
C45   C     C_R   0.888905 0.114054 0.883611 0.649120
O19   O     O_R   0.058810 0.094980 0.086060 -0.523079
C46   C     C_R   0.890161 0.116479 0.115217 0.781596
V4    V     V_3+5 0.170450 0.010950 0.999970 1.582989
O20   O     O_3   0.895460 0.941370 0.999990 -0.361670
Cl1   Cl    Cl    0.710808 0.075095 0.461500 -0.428642
Cl2   Cl    Cl    0.139902 0.220859 0.410002 -0.573879
Cl3   Cl    Cl    0.500566 0.455931 0.194090 -0.486382
H3    H     H_    0.453163 0.321740 0.283733 0.151378
H4    H     H_    0.527754 0.301128 0.095211 0.162893
Cl4   Cl    Cl    0.420333 0.172189 0.181250 -0.621670
H5    H     H_    0.063109 0.741747 0.661931 0.150765
H6    H     H_    0.080793 0.852303 0.777703 0.124351
Cl5   Cl    Cl    0.601422 0.670137 0.923167 -0.509573
H7    H     H_    0.828294 0.754593 0.834933 0.105712
Cl6   Cl    Cl    0.049721 0.517124 0.736828 -0.718704
H8    H     H_    0.808711 0.654506 0.715890 0.192360
H9    H     H_    0.142753 0.617840 0.238110 0.224863
Cl7   Cl    Cl    0.094491 0.721715 0.090307 -0.508203
Cl8   Cl    Cl    0.800587 0.929484 0.288393 -0.538559
H10   H     H_    0.778934 0.795430 0.196735 0.175416
H11   H     H_    0.755211 0.776042 0.387359 0.166484
Cl9   Cl    Cl    0.792760 0.642568 0.294629 -0.592558
H12   H     H_    0.987772 0.528618 0.903926 0.228024
Cl10  Cl    Cl    0.938993 0.425684 0.052392 -0.500557
H13   H     H_    0.883925 0.254616 0.973661 0.125516
Cl11  Cl    Cl    0.744499 0.922091 0.605862 -0.616391
H14   H     H_    0.783816 0.245322 0.534598 0.154146
H15   H     H_    0.091472 0.116233 0.262147 0.213999

loop_
_geom_bond_atom_site_label_1
_geom_bond_atom_site_label_2
_ccdc_geom_bond_type
C27   C34   S    
C41   C42   S    
C22   Cl2   S    
C28   C29   A    
C40   C41   S    
C7    C8    A    
C12   C15   A    
C1    O6    A    
C37   H9    S    
C25   H3    S    
C39   C40   A    
C31   C32   A    
C16   C17   A    
C24   C25   S    
C6    H12   S    
C26   H4    S    
C23   C24   A    
C21   H15   S    
C6    C7    A    
O13   V3    S    
O5    C3    A    
C25   C26   S    
C19   C26   S    
C17   Cl1   S    
C1    C28   S    
O12   C43   A    
C35   C40   A    
C18   H14   S    
C16   Cl11  S    
C21   C22   A    
O16   V4    S    
C41   H10   S    
O19   V4    S    
C7    Cl10  S    
C33   H7    S    
O8    V2    S    
O14   V3    S    
O12   V3    S    
V3    O20   S    
C22   C23   A    
C11   C12   A    
O1    V2    S    
C3    C23   S    
O7    V1    S    
C42   Cl9   S    
C29   H5    S    
O9    C4    A    
C41   Cl8   S    
C39   C43   S    
O11   C44   A    
C25   Cl3   S    
C31   C44   S    
C27   C32   A    
O15   V3    S    
C15   H1    S    
O18   C45   A    
C26   Cl4   S    
C12   C13   A    
O4    C2    A    
C8    H13   S    
C36   C37   A    
C30   H6    S    
C19   C24   A    
O11   V4    S    
C37   C38   A    
C5    Cl6   S    
C11   C45   S    
O2    C1    A    
C30   C31   A    
C17   C18   A    
C33   Cl5   S    
C34   H2    S    
O14   C44   A    
C5    C6    A    
C34   H8    S    
C4    C14   S    
O3    C4    A    
C20   C46   S    
C27   C28   A    
O17   V3    S    
O6    V2    S    
O9    V2    S    
C29   C30   A    
O2    V1    S    
C38   C39   A    
C13   C18   A    
C33   C34   S    
C42   H11   S    
O1    C2    A    
C2    C36   S    
O5    V1    S    
O8    C3    A    
C35   C42   S    
C5    C10   A    
O15   C45   A    
C43   O16   A    
C19   C20   A    
C9    C11   A    
C13   C14   A    
O4    V1    S    
O3    V1    S    
O17   V4    S    
C38   Cl7   S    
C20   C21   A    
O18   V4    S    
O7    V2    S    
O19   C46   A    
O13   C46   A    
C32   C33   S    
V4    O20   S    
C8    C9    A    
C35   C36   A    
C10   C14   A    
C15   C16   A    
V1    O10   S    
C9    C10   A    
V2    O10   S    
