data_mof_unit_50679.cif
_audit_creation_date              2012-12-10T16:59:15-0500
_audit_creation_method            fapswitch 2.2
_symmetry_space_group_name_H-M    P1
_symmetry_Int_Tables_number       1
_space_group_crystal_system       triclinic
_cell_length_a                    7.7543
_cell_length_b                    8.589331
_cell_length_c                    27.286925
_cell_angle_alpha                 91.288135
_cell_angle_beta                  88.015179
_cell_angle_gamma                 93.04048
_cell_volume                      1813.38987231

loop_
_atom_site_label
_atom_site_type_symbol
_atom_type_description
_atom_site_fract_x
_atom_site_fract_y
_atom_site_fract_z
_atom_type_partial_charge
C1    C     C_R   0.545454 0.794601 0.499752 0.942206
C2    C     C_R   0.529513 0.664562 0.126463 -0.041393
C3    C     C_R   0.519117 0.481400 0.646498 -0.033285
C4    C     C_R   0.480919 0.518267 0.353492 -0.033389
C5    C     C_R   0.593732 0.620155 0.025457 0.042166
C6    C     C_R   0.409558 0.377816 0.974431 0.042360
C7    C     C_R   0.358225 0.415456 0.023339 0.021321
C8    C     C_R   0.644987 0.582573 0.976529 0.021331
C9    C     C_R   0.459067 0.530113 0.049357 0.052543
C10   C     C_R   0.544108 0.467921 0.950518 0.052757
C11   C     C_R   0.658873 0.755503 0.049878 -0.176825
C12   C     C_R   0.454541 0.205399 0.500234 0.942147
C13   C     C_R   0.344449 0.242450 0.950020 -0.176953
C14   C     C_R   0.627790 0.780534 0.100208 0.144387
C15   C     C_R   0.375167 0.217608 0.899670 0.144692
C16   C     C_R   0.505434 0.499270 0.593975 0.843997
C17   C     C_R   0.494571 0.500717 0.406026 0.844284
C18   C     C_R   0.796593 0.649178 0.952468 0.152983
C19   C     C_R   0.206437 0.349020 0.047347 0.152983
C20   C     C_2   0.569491 0.957776 0.500274 -0.390733
C21   C     C_2   0.430496 0.042224 0.499719 -0.390472
C22   C     C_R   0.712990 0.530659 0.823472 0.525868
C23   C     C_R   0.575708 0.444432 0.899717 -0.090079
C24   C     C_R   0.289141 0.468069 0.176345 0.525649
C25   C     C_R   0.469071 0.349475 0.822353 0.496445
C26   C     C_R   0.533204 0.649073 0.177536 0.496407
C27   C     C_R   0.574843 0.324138 0.716124 -0.114486
C28   C     C_R   0.426527 0.675194 0.283684 -0.114588
C29   C     C_R   0.537435 0.332866 0.666566 0.070378
C30   C     C_R   0.463195 0.666709 0.333300 0.070214
C31   C     C_R   0.531205 0.615798 0.676357 -0.268017
C32   C     C_R   0.468871 0.383686 0.323714 -0.267819
C33   C     C_R   0.558852 0.604189 0.726160 -0.090184
C34   C     C_R   0.427195 0.553752 0.100139 -0.089761
C35   C     C_R   0.441883 0.395020 0.273867 -0.090106
C36   C     C_R   0.581127 0.458313 0.746263 0.278829
C37   C     C_R   0.420262 0.540820 0.253628 0.278781
C38   C     C_3   0.489799 0.817541 0.362670 -0.436500
C39   C     C_3   0.649484 0.913609 0.343044 -0.322091
C40   C     C_3   0.711197 0.038351 0.380107 -0.853373
C41   C     C_3   0.511009 0.182196 0.637102 -0.435890
C42   C     C_3   0.352813 0.084782 0.657049 -0.322867
C43   C     C_3   0.290509 0.960453 0.619929 -0.853355
C44   C     C_3   0.690785 0.935082 0.123319 -0.368465
C45   C     C_R   0.703202 0.537378 0.874809 -0.044742
C46   C     C_3   0.616298 0.075055 0.098924 -0.402182
C47   C     C_3   0.663102 0.226142 0.127125 -0.787269
C48   C     C_3   0.311887 0.063161 0.876562 -0.368610
C49   C     C_3   0.387225 0.923183 0.900721 -0.402124
C50   C     C_3   0.339744 0.772164 0.872575 -0.786926
C51   C     C_R   0.299401 0.461035 0.125015 -0.044880
C52   C     C_R   0.818032 0.632990 0.901731 -0.152828
C53   C     C_R   0.184657 0.365416 0.098066 -0.152828
C54   C     C_R   0.473229 0.333699 0.873405 -0.041369
H1    H     H_    0.519855 0.729753 0.661111 0.146836
H2    H     H_    0.591472 0.211673 0.732045 0.143224
H3    H     H_    0.728006 0.846166 0.029439 0.180052
H4    H     H_    0.275449 0.151717 0.970470 0.180052
H5    H     H_    0.701105 0.008038 0.501146 0.181854
H6    H     H_    0.298878 0.991966 0.498859 0.181890
H7    H     H_    0.601694 0.105558 0.394722 0.259050
H8    H     H_    0.772474 0.982821 0.410949 0.261389
H9    H     H_    0.808686 0.119843 0.362234 0.256989
H10   H     H_    0.757487 0.836040 0.334553 0.249913
H11   H     H_    0.617561 0.971063 0.308642 0.225155
H12   H     H_    0.479866 0.269809 0.339053 0.146469
H13   H     H_    0.373278 0.886836 0.360582 0.195103
H14   H     H_    0.506189 0.794639 0.401865 0.215453
H15   H     H_    0.227985 0.016244 0.589351 0.261455
H16   H     H_    0.399958 0.893880 0.604933 0.259055
H17   H     H_    0.193923 0.878311 0.637896 0.257107
H18   H     H_    0.386702 0.026809 0.691179 0.224576
H19   H     H_    0.244467 0.161473 0.666091 0.250339
H20   H     H_    0.492871 0.205421 0.598016 0.215498
H21   H     H_    0.628304 0.113720 0.638747 0.195193
H22   H     H_    0.575583 0.238013 0.159920 0.244824
H23   H     H_    0.012646 0.382776 0.463240 0.194911
H24   H     H_    0.798037 0.228115 0.139290 0.275378
H25   H     H_    0.651421 0.326725 0.103085 0.266752
H26   H     H_    0.668060 0.085528 0.060708 0.254431
H27   H     H_    0.473172 0.059158 0.097766 0.237824
H28   H     H_    0.651065 0.944821 0.162495 0.250316
H29   H     H_    0.834326 0.944851 0.120413 0.228663
H30   H     H_    0.204321 0.770038 0.860819 0.275333
H31   H     H_    0.426096 0.760563 0.839524 0.244728
H32   H     H_    0.352528 0.671526 0.896509 0.266555
H33   H     H_    0.530402 0.939169 0.901543 0.237850
H34   H     H_    0.987354 0.617224 0.536760 0.194920
H35   H     H_    0.336560 0.912560 0.939045 0.254277
H36   H     H_    0.168395 0.053197 0.879742 0.228677
H37   H     H_    0.350631 0.053664 0.837311 0.250496
H38   H     H_    0.560902 0.708461 0.749232 0.146320
H39   H     H_    0.439899 0.290598 0.250862 0.146563
H40   H     H_    0.927467 0.692708 0.883557 0.193117
H41   H     H_    0.074982 0.305910 0.116198 0.193317
H42   H     H_    0.410451 0.787612 0.267665 0.143309
I1    I     I_    0.024515 0.737065 0.987967 -0.430857
I2    I     I_    0.978703 0.261228 0.011739 -0.430937
N1    N     N_R   0.590701 0.443902 0.798345 -0.344807
N2    N     N_R   0.411270 0.554882 0.201518 -0.344748
N3    N     N_2   0.950320 0.457960 0.486880 -0.170862
N4    N     N_2   0.049680 0.542040 0.513120 -0.170843
O1    O     O_R   0.389250 0.738570 0.503220 -0.612645
O2    O     O_2   0.162391 0.385351 0.200885 -0.564102
O3    O     O_2   0.665536 0.716165 0.202579 -0.577625
O4    O     O_2   0.336548 0.282473 0.797368 -0.577638
O5    O     O_R   0.610750 0.261430 0.496780 -0.612609
O6    O     O_R   0.678390 0.711630 0.494810 -0.628236
O7    O     O_R   0.321610 0.288370 0.505190 -0.628299
O8    O     O_R   0.355440 0.513440 0.575450 -0.601756
O9    O     O_R   0.644560 0.486560 0.424550 -0.601759
O10   O     O_R   0.644590 0.486500 0.567040 -0.619847
O11   O     O_R   0.355410 0.513500 0.432960 -0.619951
O12   O     O_2   0.839403 0.613651 0.798889 -0.564027
Zn1   Zn    Zn3+2 0.306940 0.517990 0.505620 0.943985
Zn2   Zn    Zn3+2 0.693060 0.482010 0.494380 0.944013

loop_
_geom_bond_atom_site_label_1
_geom_bond_atom_site_label_2
_ccdc_geom_bond_type
N3    N4    D    
C23   C45   A    
C53   H41   S    
C41   C42   S    
C49   H33   S    
H23   N3    S    
C47   H25   S    
C44   H29   S    
C50   H30   S    
C39   H10   S    
C34   C51   A    
C40   H9    S    
C32   H12   S    
C35   C37   A    
C47   H22   S    
C5    C11   A    
C44   H28   S    
C38   C39   S    
C11   C14   A    
C27   C29   A    
C33   C36   A    
C40   H8    S    
C30   C38   S    
C3    C29   A    
N4    Zn1   S    
C50   H31   S    
C41   H20   S    
C25   N1    A    
C1    C20   S    
C48   H37   S    
C31   C33   A    
C52   H40   S    
O9    Zn2   S    
C18   I1    S    
C1    O1    A    
C2    C34   A    
C24   C51   A    
C43   H15   S    
C48   H36   S    
C39   H11   S    
C15   C48   S    
C17   O9    A    
C26   O3    S    
C12   O7    A    
C19   I2    S    
C44   C46   S    
C25   O4    S    
C35   H39   S    
C16   O8    A    
C32   C35   A    
C25   C54   A    
C21   H6    S    
C33   H38   S    
C39   C40   S    
O7    Zn1   S    
C27   H2    S    
C13   H4    S    
C45   C52   A    
C12   C21   S    
C8    C18   A    
C40   H7    S    
C24   O2    S    
C18   C52   A    
O1    Zn1   S    
C15   C54   A    
C5    C9    A    
C41   H21   S    
C46   H27   S    
C42   H18   S    
C2    C26   A    
C38   H13   S    
C20   H5    S    
C3    C31   A    
C4    C32   A    
C4    C17   S    
C48   C49   S    
C38   H14   S    
C43   H16   S    
C7    C19   A    
C13   C15   A    
C9    C34   A    
C10   C23   A    
C5    C8    A    
C42   C43   S    
C17   O11   A    
O10   Zn2   S    
C16   O10   A    
C23   C54   A    
C14   C44   S    
C7    C9    A    
C46   C47   S    
C42   H19   S    
C43   H17   S    
C22   N1    A    
C29   C41   S    
C24   N2    A    
C49   H35   S    
C6    C10   A    
C12   O5    A    
H34   N4    S    
C6    C7    A    
C27   C36   A    
C28   H42   S    
C31   H1    S    
O6    Zn2   S    
C28   C30   A    
C6    C13   A    
C46   H26   S    
C19   C53   A    
C28   C37   A    
C36   N1    S    
C2    C14   A    
O5    Zn2   S    
C50   H32   S    
C1    O6    A    
C22   O12   S    
C22   C45   A    
C20   C21   D    
C8    C10   A    
C49   C50   S    
N3    Zn2   S    
C47   H24   S    
C51   C53   A    
C11   H3    S    
O8    Zn1   S    
C37   N2    S    
C4    C30   A    
C3    C16   S    
C26   N2    A    
O11   Zn1   S    
