data_mof_unit_25079.cif
_audit_creation_date              2012-12-11T15:53:57-0500
_audit_creation_method            fapswitch 2.2
_symmetry_space_group_name_H-M    P1
_symmetry_Int_Tables_number       1
_space_group_crystal_system       triclinic
_cell_length_a                    10.661086
_cell_length_b                    10.710363
_cell_length_c                    17.05254
_cell_angle_alpha                 80.663925
_cell_angle_beta                  99.241088
_cell_angle_gamma                 118.733927
_cell_volume                      1677.05204623

loop_
_atom_site_label
_atom_site_type_symbol
_atom_type_description
_atom_site_fract_x
_atom_site_fract_y
_atom_site_fract_z
_atom_type_partial_charge
C1    C     C_R   0.384297 0.284165 0.631962 0.531567
C2    C     C_1   0.333563 0.186958 0.781556 -0.034146
C3    C     C_1   0.336217 0.663315 0.277621 -0.055848
C4    C     C_R   0.413363 0.620518 0.601691 0.542902
C5    C     C_1   0.323550 0.672612 0.206894 -0.048712
C6    C     C_R   0.817464 0.660936 0.154647 0.004615
C7    C     C_R   0.797239 0.536479 0.204620 -0.021779
C8    C     C_R   0.790406 0.530755 0.284283 0.084388
C9    C     C_R   0.799623 0.762822 0.266467 -0.163278
C10   C     C_R   0.806906 0.769863 0.184762 -0.156085
C11   C     C_3   0.881406 0.453610 0.219938 -0.213116
C12   C     C_R   0.513632 0.711749 0.734633 -0.157133
C13   C     C_3   0.872933 0.448785 0.307896 0.243935
C14   C     C_R   0.802745 0.646838 0.317551 -0.025469
C15   C     C_R   0.338464 0.184462 0.154769 0.010566
C16   C     C_R   0.776917 0.619007 0.626877 0.529309
C17   C     C_R   0.265364 0.248703 0.178369 0.014371
C18   C     C_R   0.271271 0.262037 0.257443 0.026987
C19   C     C_R   0.443249 0.172332 0.291178 -0.123854
C20   C     C_R   0.440299 0.161403 0.210480 -0.142040
C21   C     C_3   0.112158 0.221860 0.163530 -0.273133
C22   C     C_3   0.120164 0.238032 0.251084 -0.252693
C23   C     C_R   0.491535 0.727585 0.810372 -0.144441
C24   C     C_R   0.347176 0.209544 0.315588 0.006661
C25   C     C_R   0.891324 0.701746 0.855957 0.549468
C26   C     C_R   0.316044 0.706166 0.898351 0.546943
C27   C     C_R   0.286605 0.118532 0.858376 0.551921
C28   C     C_R   0.354439 0.233370 0.397044 0.553690
C29   C     C_R   0.884941 0.690087 0.082722 0.550916
C30   C     C_R   0.313074 0.700515 0.123789 0.551038
C31   C     C_R   0.287883 0.111600 0.083405 0.548356
C32   C     C_R   0.365515 0.653869 0.360662 0.552359
C33   C     C_R   0.769457 0.621126 0.398742 0.542936
C34   C     C_3   0.092857 0.499968 0.769240 -0.249261
C35   C     C_R   0.352788 0.652152 0.836839 0.014502
C36   C     C_R   0.247501 0.540546 0.793926 0.011461
C37   C     C_R   0.270055 0.523791 0.719553 0.010600
C38   C     C_3   0.117351 0.480876 0.687734 -0.242617
C39   C     C_R   0.397866 0.619193 0.685372 0.000977
C40   C     C_1   0.822511 0.656663 0.706088 -0.054708
C41   C     C_1   0.850102 0.684352 0.773862 -0.053130
C42   C     C_1   0.364525 0.233793 0.714342 -0.037465
Cr1   Cr    Cr6+3 0.608440 0.389080 0.519680 1.068368
Cr2   Cr    Cr6+3 0.288640 0.400090 0.490760 1.034803
Cr3   Cr    Cr6+3 0.602940 0.710800 0.489510 1.036989
Cr4   Cr    Cr6+3 0.052530 0.947560 0.964210 1.016455
Cr5   Cr    Cr6+3 0.059970 0.626800 0.992920 1.006318
Cr6   Cr    Cr6+3 0.373320 0.938440 0.995370 1.023393
F1    F     F_    0.788943 0.311801 0.341580 -0.636796
H1    H     H_    0.617573 0.779958 0.712343 0.142350
H2    H     H_    0.578959 0.809581 0.843984 0.144455
H3    H     H_    0.068503 0.590166 0.768094 0.156998
H4    H     H_    0.019706 0.397988 0.801955 0.150351
H5    H     H_    0.058895 0.367715 0.673601 0.156483
H6    H     H_    0.106148 0.559513 0.639640 0.160935
H7    H     H_    0.795414 0.848966 0.289647 0.149821
H8    H     H_    0.817146 0.865309 0.147042 0.132793
H9    H     H_    0.993923 0.516888 0.204024 0.116086
H10   H     H_    0.820381 0.346983 0.196533 0.165321
H11   H     H_    0.978176 0.508148 0.342661 0.115368
H12   H     H_    0.513958 0.144161 0.334462 0.202690
H13   H     H_    0.504917 0.118634 0.193829 0.155012
H14   H     H_    0.034243 0.111724 0.148606 0.158376
H15   H     H_    0.100600 0.309062 0.123167 0.145301
H16   H     H_    0.114494 0.335097 0.261171 0.156392
H17   H     H_    0.048824 0.137451 0.285704 0.152179
O1    O     O_R   0.754020 0.497590 0.609930 -0.514414
O2    O     O_R   0.406180 0.826930 0.920660 -0.518169
O3    O     O_R   0.358620 0.062870 0.901950 -0.493348
O4    O     O_R   0.481420 0.271390 0.600630 -0.481808
O5    O     O_R   0.163910 0.085460 0.050210 -0.522935
O6    O     O_R   0.935200 0.815170 0.045770 -0.506493
O7    O     O_R   0.916120 0.596690 0.069430 -0.524317
O8    O     O_R   0.192310 0.631200 0.086170 -0.514306
O9    O     O_R   0.406770 0.819480 0.096420 -0.510848
O10   O     O_R   0.359170 0.055960 0.064880 -0.509668
O11   O     O_3   0.161940 0.837600 0.984160 -0.247236
O12   O     O_R   0.295080 0.533620 0.397890 -0.501382
O13   O     O_R   0.263810 0.254550 0.589590 -0.503308
O14   O     O_R   0.300820 0.531200 0.560890 -0.509459
O15   O     O_R   0.491480 0.744020 0.564270 -0.497445
O16   O     O_R   0.726290 0.693800 0.583010 -0.517501
O17   O     O_R   0.747830 0.500190 0.434090 -0.466240
O18   O     O_R   0.475680 0.273800 0.437630 -0.474512
O19   O     O_R   0.257620 0.257160 0.413750 -0.509042
O20   O     O_R   0.485280 0.746620 0.388440 -0.494348
O21   O     O_R   0.720550 0.696220 0.420010 -0.502915
O22   O     O_3   0.500010 0.499990 0.499980 -0.303249
O23   O     O_R   0.163320 0.092900 0.874450 -0.506696
O24   O     O_R   0.934650 0.822080 0.882840 -0.494845
O25   O     O_R   0.915520 0.604140 0.893670 -0.516503
O26   O     O_R   0.191760 0.638110 0.923230 -0.501014

loop_
_geom_bond_atom_site_label_1
_geom_bond_atom_site_label_2
_ccdc_geom_bond_type
C8    C13   S    
C28   O18   A    
Cr1   O17   S    
Cr5   O26   S    
Cr6   O10   S    
C19   C20   A    
Cr6   O3    S    
C14   C33   S    
C7    C8    A    
Cr4   O23   S    
C7    C11   S    
C12   C23   A    
C25   O24   A    
C18   C24   A    
Cr1   O22   S    
C36   C37   A    
Cr3   O21   S    
C19   H12   S    
C4    O14   A    
C30   O8    A    
C29   O7    A    
C26   O26   A    
C22   H17   S    
C21   H15   S    
C38   H6    S    
Cr3   O16   S    
C13   H11   S    
C27   O23   A    
C2    C27   S    
C11   H9    S    
C9    C10   A    
Cr4   O6    S    
C27   O3    A    
C29   O6    A    
C31   O5    A    
C34   C38   S    
C21   C22   S    
Cr1   O18   S    
Cr6   O9    S    
C11   H10   S    
C15   C20   A    
C25   O25   A    
C4    O15   A    
Cr2   O14   S    
Cr3   O22   S    
Cr5   O7    S    
C25   C41   S    
C16   O1    A    
C17   C21   S    
C35   C36   A    
Cr6   O11   S    
C9    C14   A    
C22   H16   S    
C37   C38   S    
C1    C42   S    
C23   H2    S    
C38   H5    S    
C4    C39   S    
C32   O20   A    
C10   H8    S    
C16   O16   A    
C17   C18   A    
C9    H7    S    
Cr6   O2    S    
C33   O17   A    
Cr4   O5    S    
C16   C40   S    
C13   F1    S    
C40   C41   T    
Cr1   O4    S    
C23   C35   A    
C1    O13   A    
Cr5   O11   S    
Cr2   O19   S    
C5    C30   S    
C15   C17   A    
C8    C14   A    
C18   C22   S    
Cr5   O25   S    
Cr2   O13   S    
Cr3   O15   S    
C24   C28   S    
Cr5   O8    S    
C3    C5    T    
C6    C10   A    
Cr4   O11   S    
C12   H1    S    
C15   C31   S    
C6    C7    A    
Cr4   O24   S    
C34   H3    S    
C1    O4    A    
C26   O2    A    
C12   C39   A    
Cr2   O12   S    
C19   C24   A    
C33   O21   A    
C37   C39   A    
C30   O9    A    
C11   C13   S    
C31   O10   A    
C2    C42   T    
Cr3   O20   S    
C34   C36   S    
C20   H13   S    
C3    C32   S    
C21   H14   S    
C32   O12   A    
C26   C35   S    
C6    C29   S    
C34   H4    S    
Cr1   O1    S    
C28   O19   A    
Cr2   O22   S    
