data_mof_unit_28543.cif
_audit_creation_date              2013-03-05T15:46:17-0500
_audit_creation_method            fapswitch 2.2
_symmetry_space_group_name_H-M    P1
_symmetry_Int_Tables_number       1
_space_group_crystal_system       triclinic
_cell_length_a                    17.402592
_cell_length_b                    24.22529
_cell_length_c                    14.991019
_cell_angle_alpha                 89.969461
_cell_angle_beta                  126.27141
_cell_angle_gamma                 89.933503
_cell_volume                      5095.28862445

loop_
_atom_site_label
_atom_site_type_symbol
_atom_site_description
_atom_site_fract_x
_atom_site_fract_y
_atom_site_fract_z
_atom_type_partial_charge
C1    C     C_R   0.848547 0.652568 0.907498 -0.128986
C2    C     C_R   0.191693 0.374874 0.093866 -0.122478
C3    C     C_R   0.191400 0.625276 0.093613 -0.118692
C4    C     C_R   0.849262 0.347513 0.907471 -0.118733
C5    C     C_R   0.348566 0.152579 0.907523 -0.129049
C6    C     C_R   0.691662 0.874845 0.093810 -0.122485
C7    C     C_R   0.691409 0.125264 0.093622 -0.118261
C8    C     C_R   0.349259 0.847514 0.907456 -0.119314
H1    H     H_    0.807018 0.666337 0.822632 0.087985
H2    H     H_    0.249615 0.368071 0.179492 0.111710
H3    H     H_    0.249228 0.632385 0.179074 0.110416
H4    H     H_    0.811418 0.333356 0.823090 0.081531
H5    H     H_    0.307048 0.166365 0.822668 0.088348
H6    H     H_    0.749598 0.868021 0.179418 0.111461
H7    H     H_    0.749235 0.132368 0.179087 0.109981
H8    H     H_    0.311375 0.833373 0.823059 0.081382
N1    N     N_R   0.892620 0.603790 0.941800 -0.039702
N2    N     N_R   0.107380 0.396210 0.058200 -0.041715
N3    N     N_R   0.107380 0.603790 0.058200 -0.043692
N4    N     N_R   0.892620 0.396210 0.941800 -0.036343
N5    N     N_R   0.392620 0.103790 0.941800 -0.039746
N6    N     N_R   0.607380 0.896210 0.058200 -0.041668
N7    N     N_R   0.607380 0.103790 0.058200 -0.043770
N8    N     N_R   0.392620 0.896210 0.941800 -0.036139
C9    C     C_R   0.941611 0.348650 0.091251 -0.129867
C10   C     C_R   0.098644 0.622176 0.908667 -0.137449
C11   C     C_R   0.099390 0.378125 0.908929 -0.145653
C12   C     C_R   0.945981 0.652617 0.090598 -0.145406
C13   C     C_R   0.441690 0.848621 0.091232 -0.129725
C14   C     C_R   0.598659 0.122162 0.908677 -0.137560
C15   C     C_R   0.599289 0.878074 0.908846 -0.145623
C16   C     C_R   0.445995 0.152614 0.090617 -0.145383
H9    H     H_    0.986583 0.333417 0.174190 0.081259
H10   H     H_    0.074184 0.625045 0.824800 0.103728
H11   H     H_    0.076072 0.375776 0.824945 0.097272
H12   H     H_    0.998929 0.669583 0.170293 0.110811
H13   H     H_    0.486818 0.833333 0.174120 0.081171
H14   H     H_    0.574211 0.125024 0.824814 0.103751
H15   H     H_    0.575828 0.875667 0.824798 0.097363
H16   H     H_    0.498968 0.169578 0.170303 0.110821
N9    N     N_R   0.952210 0.397600 0.057910 -0.039554
N10   N     N_R   0.047790 0.602400 0.942090 -0.044536
N11   N     N_R   0.047790 0.397600 0.942090 -0.041092
N12   N     N_R   0.952210 0.602400 0.057910 -0.034536
N13   N     N_R   0.452210 0.897600 0.057910 -0.039503
N14   N     N_R   0.547790 0.102400 0.942090 -0.044555
N15   N     N_R   0.547790 0.897600 0.942090 -0.041058
N16   N     N_R   0.452210 0.102400 0.057910 -0.034531
C17   C     C_R   0.039357 0.544892 0.300838 0.114442
C18   C     C_R   0.943713 0.453264 0.693251 0.117702
C19   C     C_R   0.944554 0.544773 0.691114 0.107176
C20   C     C_R   0.043943 0.452732 0.301084 0.137432
C21   C     C_R   0.539346 0.044899 0.300825 0.114345
C22   C     C_R   0.443692 0.953272 0.693234 0.117773
C23   C     C_R   0.444539 0.044784 0.691121 0.107080
C24   C     C_R   0.543816 0.952729 0.301022 0.137635
N17   N     N_R   0.026300 0.529110 0.206760 -0.063766
N18   N     N_R   0.973700 0.470890 0.793240 -0.067420
N19   N     N_R   0.973700 0.529110 0.793240 -0.063032
N20   N     N_R   0.026300 0.470890 0.206760 -0.074794
N21   N     N_R   0.526300 0.029110 0.206760 -0.063784
N22   N     N_R   0.473700 0.970890 0.793240 -0.067324
N23   N     N_R   0.473700 0.029110 0.793240 -0.063009
N24   N     N_R   0.526300 0.970890 0.206760 -0.074835
C25   C     C_R   0.732315 0.454431 0.757009 -0.144154
C26   C     C_R   0.262300 0.545221 0.299275 -0.129079
C27   C     C_R   0.260977 0.453944 0.299597 -0.122255
C28   C     C_R   0.732341 0.545786 0.756916 -0.165185
C29   C     C_R   0.232301 0.954483 0.757175 -0.144749
C30   C     C_R   0.762378 0.045168 0.299302 -0.127402
C31   C     C_R   0.761020 0.953888 0.299462 -0.124513
C32   C     C_R   0.232389 0.045838 0.756942 -0.166091
H17   H     H_    0.709297 0.411932 0.740219 0.124299
H18   H     H_    0.278310 0.587279 0.328603 0.112833
H19   H     H_    0.273339 0.411925 0.329502 0.127130
H20   H     H_    0.709477 0.588337 0.740449 0.138174
H21   H     H_    0.209174 0.911996 0.740357 0.123172
H22   H     H_    0.778523 0.087213 0.328705 0.110445
H23   H     H_    0.773311 0.911862 0.329300 0.128658
H24   H     H_    0.209608 0.088400 0.740453 0.139854
N25   N     N_R   0.818530 0.472270 0.792960 -0.052714
N26   N     N_R   0.181470 0.527730 0.207040 -0.052369
N27   N     N_R   0.181470 0.472270 0.207040 -0.052443
N28   N     N_R   0.818530 0.527730 0.792960 -0.058399
N29   N     N_R   0.318530 0.972270 0.792960 -0.052561
N30   N     N_R   0.681470 0.027730 0.207040 -0.052291
N31   N     N_R   0.681470 0.972270 0.207040 -0.052419
N32   N     N_R   0.318530 0.027730 0.792960 -0.058414
C33   C     C_R   0.881393 0.684469 0.999362 0.053530
C34   C     C_R   0.189606 0.363843 0.001742 0.051465
C35   C     C_R   0.188852 0.636365 0.001215 0.046123
C36   C     C_R   0.879021 0.316394 0.999561 0.049192
C37   C     C_R   0.381412 0.184472 0.999402 0.053467
C38   C     C_R   0.689519 0.863796 0.001644 0.051470
C39   C     C_R   0.688869 0.136346 0.001229 0.046243
C40   C     C_R   0.379070 0.816377 0.999539 0.049128
C41   C     C_R   0.048087 0.498053 0.358243 -0.065592
C42   C     C_R   0.929042 0.498301 0.629925 -0.065823
C43   C     C_R   0.547999 0.998061 0.358189 -0.065447
C44   C     C_R   0.429010 0.998321 0.629920 -0.065729
C45   C     C_R   0.676990 0.500246 0.735220 0.226482
C46   C     C_R   0.313382 0.499302 0.356887 0.194531
C47   C     C_R   0.177006 0.000348 0.735332 0.226684
C48   C     C_R   0.813470 0.999206 0.356809 0.195328
Ni1   Ni    Ni4+2 0.934150 0.565840 0.869060 0.202107
Ni2   Ni    Ni4+2 0.065850 0.434160 0.130940 0.200253
Ni3   Ni    Ni4+2 0.065850 0.565840 0.130940 0.204847
Ni4   Ni    Ni4+2 0.934150 0.434160 0.869060 0.203956
Ni5   Ni    Ni4+2 0.434150 0.065840 0.869060 0.202126
Ni6   Ni    Ni4+2 0.565850 0.934160 0.130940 0.200354
Ni7   Ni    Ni4+2 0.565850 0.065840 0.130940 0.204845
Ni8   Ni    Ni4+2 0.434150 0.934160 0.869060 0.204011
C49   C     C_3   0.500254 0.457715 0.619399 0.568317
C50   C     C_3   0.481239 0.541523 0.492660 0.567206
C51   C     C_3   0.477246 0.452050 0.504216 0.563655
C52   C     C_3   0.503710 0.547357 0.607439 0.563058
C53   C     C_3   0.999733 0.958501 0.620686 0.567916
C54   C     C_3   0.981784 0.040746 0.491574 0.567033
C55   C     C_3   0.976846 0.951497 0.505757 0.563478
C56   C     C_3   0.004148 0.047906 0.606056 0.562519
C57   C     C_3   0.425931 0.504825 0.579977 -0.574666
C58   C     C_3   0.553274 0.494495 0.530283 -0.569262
C59   C     C_3   0.925877 0.006044 0.579659 -0.573563
C60   C     C_3   0.053326 0.993315 0.530724 -0.567259
H25   H     H_    0.370959 0.508688 0.595109 0.173527
H26   H     H_    0.606683 0.490416 0.512644 0.177001
H27   H     H_    0.870836 0.010855 0.594481 0.173533
H28   H     H_    0.106666 0.988262 0.513189 0.177252
C61   C     C_3   0.404215 0.499028 0.463870 -0.201224
C62   C     C_3   0.576533 0.500392 0.647328 -0.180582
C63   C     C_3   0.904282 0.998873 0.463836 -0.201816
C64   C     C_3   0.076506 0.000543 0.647513 -0.180576
C65   C     C_R   0.786339 0.232218 0.899908 -0.160512
C66   C     C_R   0.343399 0.685368 0.100432 -0.163823
C67   C     C_R   0.343924 0.314121 0.101653 -0.162900
C68   C     C_R   0.790550 0.769716 0.900751 -0.158586
C69   C     C_R   0.286374 0.732203 0.899885 -0.161133
C70   C     C_R   0.843406 0.185359 0.100452 -0.163726
C71   C     C_R   0.843880 0.814128 0.101528 -0.162508
C72   C     C_R   0.290648 0.269755 0.900861 -0.158265
H29   H     H_    0.761370 0.249720 0.820708 0.105309
H30   H     H_    0.366284 0.668524 0.179427 0.129494
H31   H     H_    0.365440 0.329840 0.180798 0.128054
H32   H     H_    0.767402 0.753156 0.821557 0.109779
H33   H     H_    0.261422 0.749699 0.820686 0.104867
H34   H     H_    0.866304 0.168505 0.179444 0.129399
H35   H     H_    0.865426 0.829870 0.180669 0.128155
H36   H     H_    0.267523 0.253212 0.821663 0.109963
C73   C     C_R   0.240194 0.685858 0.900207 -0.167681
C74   C     C_R   0.889594 0.231799 0.100263 -0.175578
C75   C     C_R   0.890685 0.768025 0.101041 -0.171116
C76   C     C_R   0.243472 0.315705 0.901462 -0.169494
C77   C     C_R   0.740196 0.185853 0.900228 -0.167673
C78   C     C_R   0.389618 0.731790 0.100240 -0.175277
C79   C     C_R   0.390694 0.268003 0.101147 -0.171484
C80   C     C_R   0.743338 0.815651 0.901332 -0.169629
H37   H     H_    0.181586 0.669693 0.821282 0.103973
H38   H     H_    0.946414 0.248825 0.179263 0.107620
H39   H     H_    0.945818 0.749952 0.179918 0.106043
H40   H     H_    0.185727 0.332611 0.822641 0.111026
H41   H     H_    0.681599 0.169684 0.821302 0.104096
H42   H     H_    0.446433 0.748818 0.179242 0.107589
H43   H     H_    0.445775 0.249900 0.180015 0.105850
H44   H     H_    0.685545 0.832529 0.822508 0.111079
C81   C     C_R   0.261474 0.666262 0.000557 0.141896
C82   C     C_R   0.854769 0.258626 0.000005 0.142155
C83   C     C_R   0.857799 0.742405 0.000409 0.140355
C84   C     C_R   0.262948 0.334118 0.001667 0.139160
C85   C     C_R   0.761489 0.166246 0.000576 0.141953
C86   C     C_R   0.354819 0.758607 0.999980 0.142300
C87   C     C_R   0.357837 0.242411 0.000497 0.140492
C88   C     C_R   0.762848 0.834081 0.001542 0.138988
C89   C     C_R   0.055013 0.504958 0.607488 -0.189754
C90   C     C_R   0.922453 0.488609 0.380397 -0.171239
C91   C     C_R   0.085822 0.505212 0.541630 -0.195714
C92   C     C_R   0.891159 0.489945 0.445876 -0.191062
C93   C     C_R   0.554910 0.005260 0.607396 -0.189301
C94   C     C_R   0.422476 0.988371 0.380458 -0.171314
C95   C     C_R   0.585704 0.005505 0.541524 -0.195863
C96   C     C_R   0.391187 0.989705 0.445937 -0.190967
H45   H     H_    0.106149 0.511193 0.695867 0.127206
H46   H     H_    0.871401 0.482984 0.291837 0.127779
H47   H     H_    0.160349 0.512185 0.577676 0.123876
H48   H     H_    0.815925 0.486071 0.408616 0.115242
H49   H     H_    0.606004 0.011695 0.695719 0.127178
H50   H     H_    0.371467 0.982532 0.291953 0.127862
H51   H     H_    0.660171 0.012665 0.577493 0.123703
H52   H     H_    0.315993 0.985628 0.408701 0.115460
C97   C     C_R   0.019422 0.496106 0.429031 0.172721
C98   C     C_R   0.957906 0.497363 0.559013 0.149996
C99   C     C_R   0.519368 0.996142 0.429006 0.172878
C100  C     C_R   0.457871 0.997400 0.559004 0.149512
C101  C     C_3   0.054859 0.602523 0.346158 -0.419735
C102  C     C_3   0.146416 0.627772 0.371322 -0.257536
C103  C     C_3   0.163532 0.685615 0.420005 -0.958885
H53   H     H_    0.103398 0.713427 0.361136 0.261265
H54   H     H_    0.171309 0.684158 0.499053 0.263846
H55   H     H_    0.230091 0.702699 0.436739 0.253160
H56   H     H_    0.208041 0.601167 0.432077 0.189104
H57   H     H_    0.142443 0.630041 0.294818 0.195427
H58   H     H_    0.990825 0.627968 0.289837 0.183404
H59   H     H_    0.062226 0.601461 0.424953 0.193198
C104  C     C_3   0.905959 0.395953 0.649574 -0.437755
C105  C     C_3   0.798239 0.395469 0.558708 -0.233900
C106  C     C_3   0.762509 0.336575 0.520013 -0.959711
H60   H     H_    0.802302 0.316408 0.492153 0.270347
H61   H     H_    0.771599 0.311973 0.588254 0.258368
H62   H     H_    0.685799 0.337224 0.449345 0.251419
H63   H     H_    0.760613 0.413991 0.590789 0.188126
H64   H     H_    0.780736 0.420021 0.486603 0.198496
H65   H     H_    0.944168 0.378257 0.617472 0.187067
H66   H     H_    0.919042 0.369310 0.717542 0.192225
C107  C     C_3   0.907723 0.600908 0.636346 -0.428075
C108  C     C_3   0.850066 0.631109 0.668101 -0.242831
C109  C     C_3   0.810454 0.685676 0.605796 -0.975468
H67   H     H_    0.869497 0.713215 0.625128 0.270671
H68   H     H_    0.762090 0.678259 0.515167 0.265081
H69   H     H_    0.769378 0.706610 0.631157 0.246420
H70   H     H_    0.789437 0.604904 0.647556 0.192672
H71   H     H_    0.896171 0.640118 0.757635 0.209864
H72   H     H_    0.966767 0.626943 0.651906 0.175782
H73   H     H_    0.860139 0.594928 0.545071 0.194716
C110  C     C_3   0.085995 0.396691 0.350189 -0.407853
C111  C     C_3   0.175943 0.397635 0.471311 -0.236181
C112  C     C_3   0.158309 0.371880 0.550843 -0.920115
H74   H     H_    0.096921 0.391785 0.542455 0.276763
H75   H     H_    0.143205 0.327105 0.533246 0.252804
H76   H     H_    0.222684 0.376850 0.637366 0.243782
H77   H     H_    0.232728 0.373017 0.477291 0.172833
H78   H     H_    0.204985 0.439966 0.498932 0.187897
H79   H     H_    0.029619 0.370153 0.340888 0.192103
H80   H     H_    0.108939 0.378442 0.301571 0.148868
C113  C     C_3   0.554940 0.102531 0.346170 -0.419506
C114  C     C_3   0.646498 0.127736 0.371256 -0.257631
C115  C     C_3   0.663692 0.185592 0.419909 -0.959334
H81   H     H_    0.603579 0.213417 0.361043 0.261128
H82   H     H_    0.671502 0.184170 0.498979 0.264149
H83   H     H_    0.730255 0.202637 0.436594 0.253116
H84   H     H_    0.708109 0.101122 0.432003 0.189122
H85   H     H_    0.642487 0.129972 0.294724 0.195445
H86   H     H_    0.490924 0.127996 0.289893 0.183386
H87   H     H_    0.562357 0.101490 0.424994 0.193203
C116  C     C_3   0.405299 0.896082 0.649309 -0.438601
C117  C     C_3   0.297427 0.896005 0.559058 -0.232238
C118  C     C_3   0.260790 0.837267 0.520189 -0.959477
H88   H     H_    0.299671 0.816911 0.491319 0.270519
H89   H     H_    0.270284 0.812654 0.588644 0.257787
H90   H     H_    0.183864 0.838275 0.450192 0.252430
H91   H     H_    0.260448 0.914767 0.591730 0.188200
H92   H     H_    0.279750 0.920555 0.486882 0.198326
H93   H     H_    0.442879 0.878287 0.616500 0.187194
H94   H     H_    0.418612 0.869368 0.717308 0.192183
C119  C     C_3   0.407731 0.100926 0.636373 -0.428169
C120  C     C_3   0.350083 0.131135 0.668129 -0.242736
C121  C     C_3   0.310518 0.185714 0.605858 -0.975509
H95   H     H_    0.369586 0.213241 0.625219 0.270507
H96   H     H_    0.262158 0.178312 0.515223 0.264950
H97   H     H_    0.269450 0.206656 0.631219 0.246630
H98   H     H_    0.289432 0.104942 0.647549 0.192584
H99   H     H_    0.396183 0.140128 0.757668 0.209868
H100  H     H_    0.466784 0.126953 0.651937 0.175898
H101  H     H_    0.360145 0.094953 0.545095 0.194679
C122  C     C_3   0.585602 0.896632 0.350027 -0.408042
C123  C     C_3   0.675059 0.897399 0.471456 -0.236363
C124  C     C_3   0.656444 0.871872 0.550314 -0.919552
H102  H     H_    0.594888 0.891966 0.541239 0.276923
H103  H     H_    0.641108 0.827116 0.532675 0.252497
H104  H     H_    0.720480 0.876785 0.637072 0.243612
H105  H     H_    0.731860 0.872522 0.477985 0.173475
H106  H     H_    0.704434 0.939655 0.499276 0.187791
H107  H     H_    0.528948 0.870092 0.340053 0.192091
H108  H     H_    0.609006 0.878471 0.301798 0.148878
O1    O     O_3   0.521135 0.414726 0.694169 -0.612773
C125  C     C_3   0.437156 0.385412 0.655632 -0.233675
H109  H     H_    0.404021 0.368544 0.571306 0.149503
H110  H     H_    0.385728 0.411679 0.657501 0.143934
H111  H     H_    0.455496 0.349865 0.711662 0.171860
O2    O     O_3   0.464475 0.585049 0.420392 -0.625549
C126  C     C_3   0.550282 0.613411 0.462894 -0.246750
H112  H     H_    0.602638 0.586611 0.463826 0.147008
H113  H     H_    0.581689 0.630162 0.546877 0.160081
H114  H     H_    0.534798 0.648972 0.407892 0.161547
O3    O     O_3   0.455269 0.402671 0.443686 -0.629664
C127  C     C_3   0.537910 0.370064 0.492773 -0.268766
H115  H     H_    0.567748 0.359212 0.579677 0.164916
H116  H     H_    0.592281 0.391050 0.488558 0.154507
H117  H     H_    0.518900 0.330948 0.445717 0.166364
O4    O     O_3   0.525687 0.596681 0.668011 -0.618359
C128  C     C_3   0.442519 0.628962 0.619096 -0.226551
H118  H     H_    0.390314 0.609044 0.628747 0.143751
H119  H     H_    0.409146 0.637490 0.530278 0.152142
H120  H     H_    0.462117 0.669291 0.662288 0.166776
O5    O     O_3   0.019968 0.916418 0.696836 -0.612322
C129  C     C_3   0.935623 0.887679 0.658941 -0.236799
H121  H     H_    0.902655 0.869922 0.575313 0.148490
H122  H     H_    0.884227 0.914682 0.659468 0.144458
H123  H     H_    0.953434 0.852794 0.716166 0.172658
O6    O     O_3   0.965570 0.083460 0.418069 -0.624807
C130  C     C_3   0.051706 0.111286 0.459913 -0.245802
H124  H     H_    0.103804 0.083833 0.461665 0.146701
H125  H     H_    0.083243 0.128743 0.543424 0.159975
H126  H     H_    0.036661 0.146309 0.403981 0.161612
O7    O     O_3   0.954903 0.901645 0.446591 -0.628891
C131  C     C_3   0.036542 0.867880 0.499485 -0.272498
H127  H     H_    0.061038 0.856261 0.584248 0.167646
H128  H     H_    0.094880 0.888143 0.501967 0.153663
H129  H     H_    0.018281 0.829237 0.451209 0.167080
O8    O     O_3   0.026471 0.097788 0.665104 -0.618836
C132  C     C_3   0.943607 0.130454 0.615010 -0.227660
H130  H     H_    0.891077 0.111357 0.625023 0.144384
H131  H     H_    0.910512 0.138174 0.526005 0.152061
H132  H     H_    0.963535 0.171122 0.656998 0.166676

loop_
_geom_bond_atom_site_label_1
_geom_bond_atom_site_label_2
_geom_bond_distance
_ccdc_geom_bond_type
C31   C48   1.361003 A    
C121  H96   1.110921 S    
C123  H105  1.110821 S    
C110  C111  1.544285 S    
C42   C98   1.419399 S    
C22   C44   1.366915 A    
C21   C43   1.376572 A    
C127  H115  1.111242 S    
C53   C55   1.531117 S    
C112  H76   1.110447 S    
C101  H58   1.104174 S    
C117  C118  1.527817 S    
C78   C86   1.403164 A    
C11   C34   1.390703 A    
C125  H109  1.111798 S    
C2    C34   1.386030 A    
C53   C64   1.533582 S    
C33   C83   1.464604 S    
C54   C63   1.536566 S    
C38   C88   1.465210 S    
C131  H129  1.109225 S    
C6    C38   1.386184 A    
C95   C99   1.387914 A    
C23   C44   1.374810 A    
C67   C84   1.401987 A    
C3    N3    1.332024 A    
C4    H4    1.080146 S    
C47   C64   1.437941 S    
C72   C76   1.385581 A    
C5    H5    1.078530 S    
N5    N16   1.403690 A    
C45   C62   1.437648 S    
C7    H7    1.076517 S    
N6    N15   1.403690 A    
N25   Ni4   1.865711 S    
C8    H8    1.080157 S    
N7    N14   1.403793 A    
C118  H88   1.110972 S    
C52   C57   1.551638 S    
C28   C45   1.372172 A    
C49   C62   1.533730 S    
C9    N9    1.341273 A    
C11   H11   1.071732 S    
C18   C104  1.510654 S    
C12   N12   1.339769 A    
C53   O5    1.410250 S    
C109  H67   1.111000 S    
C26   N26   1.330692 A    
C107  H73   1.113008 S    
O7    C131  1.407104 S    
N28   Ni1   1.868621 S    
C66   C81   1.401830 A    
C54   C60   1.531717 S    
C89   C91   1.374233 A    
N32   Ni5   1.868621 S    
O6    C130  1.408939 S    
C78   H42   1.079944 S    
C110  H80   1.109207 S    
C91   H47   1.083522 S    
C119  H100  1.107281 S    
C92   H48   1.081676 S    
C127  H117  1.109190 S    
C132  H130  1.111534 S    
C32   C47   1.371750 A    
C51   O3    1.411449 S    
C108  H71   1.104259 S    
C111  H77   1.110878 S    
C120  H98   1.108305 S    
C75   C83   1.403140 A    
N11   Ni4   1.824041 S    
C126  H113  1.111452 S    
C54   C56   1.528756 S    
C3    H3    1.076509 S    
C90   C97   1.399050 A    
C17   C41   1.376590 A    
C103  H53   1.110351 S    
C4    N4    1.330089 A    
C5    N5    1.334121 A    
C101  C102  1.531809 S    
C118  H90   1.109770 S    
C65   C82   1.402683 A    
N4    Ni4   1.868045 S    
C27   N27   1.327815 A    
C29   H21   1.079866 S    
N8    Ni8   1.868045 S    
C25   C45   1.374974 A    
N29   Ni8   1.865711 S    
C90   H46   1.084104 S    
C31   H23   1.080816 S    
N31   Ni6   1.868620 S    
C14   H14   1.064567 S    
C119  C120  1.527226 S    
C74   C82   1.403160 A    
C17   N17   1.344774 A    
C60   C64   1.556743 S    
C20   N20   1.331359 A    
C21   N21   1.344722 A    
C2    H2    1.076721 S    
C102  H57   1.108714 S    
C123  C124  1.528950 S    
C93   C95   1.374217 A    
C48   C63   1.439323 S    
C23   N23   1.350922 A    
C55   C63   1.537419 S    
C24   N24   1.331403 A    
C12   C33   1.381045 A    
C113  C114  1.531832 S    
N3    N10   1.403793 A    
C122  H107  1.111267 S    
C16   C37   1.380968 A    
C70   C85   1.401834 A    
C104  H65   1.111622 S    
C44   C100  1.419426 S    
C36   C82   1.463334 S    
C112  H74   1.108794 S    
C29   C47   1.375492 A    
C18   C42   1.366831 A    
C116  H93   1.111592 S    
C117  H91   1.110461 S    
C54   O6    1.412357 S    
C24   C122  1.509919 S    
C73   C81   1.401857 A    
C109  H69   1.110688 S    
C49   O1    1.410293 S    
C79   H43   1.080052 S    
C80   C88   1.403185 A    
C23   C119  1.519337 S    
C75   H39   1.080050 S    
N23   Ni5   1.866185 S    
N2    Ni2   1.867792 S    
C57   H25   1.109950 S    
O5    C129  1.406458 S    
C94   H50   1.084102 S    
C6    H6    1.076681 S    
C39   C85   1.462430 S    
C59   H27   1.109971 S    
C126  H112  1.111489 S    
C128  H118  1.111579 S    
C52   C62   1.535370 S    
C114  H85   1.108725 S    
C124  H103  1.110930 S    
C69   C86   1.402681 A    
C72   C87   1.402726 A    
C115  H83   1.110543 S    
C27   H19   1.080881 S    
C13   H13   1.068692 S    
C29   N29   1.332100 A    
C10   N10   1.337597 A    
N12   Ni3   1.824042 S    
C122  H108  1.109285 S    
C9    C36   1.384898 A    
C123  H106  1.110202 S    
C34   C84   1.465304 S    
C35   C81   1.462450 S    
C13   C40   1.384872 A    
C50   C52   1.528969 S    
C68   C83   1.402753 A    
C28   H20   1.079065 S    
C15   C38   1.390730 A    
N7    Ni7   1.868045 S    
C1    N1    1.334011 A    
C14   N14   1.337601 A    
C22   C116  1.510638 S    
C103  H55   1.110537 S    
C127  H116  1.108864 S    
N30   Ni7   1.865709 S    
C32   H24   1.078994 S    
C70   H34   1.080996 S    
C7    N7    1.332004 A    
C71   C75   1.384130 A    
C8    N8    1.330096 A    
C125  H110  1.111332 S    
C130  H126  1.109238 S    
C113  H87   1.110431 S    
C49   C57   1.554370 S    
C105  C106  1.528015 S    
O3    C127  1.406523 S    
O2    C126  1.408887 S    
C24   C43   1.368616 A    
C49   C51   1.530691 S    
C13   N13   1.341267 A    
C9    H9    1.068668 S    
C103  H54   1.110856 S    
N21   Ni7   1.866371 S    
C125  H111  1.109190 S    
C111  C112  1.528875 S    
N20   Ni2   1.866187 S    
C122  C123  1.544203 S    
C107  C108  1.527256 S    
N19   Ni1   1.866185 S    
C69   H33   1.080208 S    
C129  H121  1.111750 S    
C30   C48   1.364984 A    
N29   N32   1.343537 A    
C2    N2    1.332511 A    
C116  C117  1.532775 S    
C6    N6    1.332521 A    
C89   C98   1.401991 A    
C128  H120  1.109162 S    
C93   H49   1.084233 S    
C14   C39   1.390022 A    
C3    C35   1.385509 A    
C96   H52   1.081576 S    
C107  H72   1.107283 S    
N6    Ni6   1.867792 S    
C105  H63   1.110639 S    
C115  H81   1.110349 S    
C56   C59   1.551212 S    
C60   H28   1.110969 S    
C19   C42   1.374950 A    
C102  C103  1.526355 S    
C121  H97   1.110685 S    
C89   H45   1.084236 S    
C93   C100  1.402029 A    
C15   N15   1.342774 A    
C16   N16   1.339741 A    
C76   C84   1.403229 A    
C110  H79   1.111303 S    
N9    Ni2   1.826835 S    
C28   N28   1.331269 A    
C1    H1    1.078531 S    
C129  H123  1.109133 S    
N13   Ni6   1.826835 S    
N17   N20   1.410394 A    
C22   N22   1.333144 A    
C10   C35   1.390011 A    
C55   C60   1.533594 S    
C101  H59   1.110481 S    
C18   N18   1.333085 A    
N21   N24   1.410394 A    
C130  H124  1.111478 S    
C120  C121  1.526348 S    
C111  H78   1.110191 S    
C66   H30   1.080995 S    
C25   N25   1.331648 A    
C120  H99   1.104250 S    
C71   C88   1.401984 A    
C31   N31   1.327722 A    
C118  H89   1.111055 S    
C50   C61   1.536861 S    
C114  C115  1.526350 S    
C21   C113  1.506202 S    
C37   C87   1.464672 S    
C74   H38   1.079945 S    
C59   C63   1.553886 S    
N30   N31   1.343537 A    
C57   C61   1.553749 S    
C94   C96   1.376037 A    
C65   H29   1.080201 S    
N27   Ni2   1.868620 S    
C95   H51   1.083539 S    
N18   N19   1.410394 A    
N1    N12   1.403690 A    
C68   H32   1.080586 S    
N2    N11   1.403690 A    
C43   C99   1.415391 S    
C66   C78   1.384371 A    
N18   Ni4   1.866369 S    
N10   Ni1   1.826834 S    
C90   C92   1.376116 A    
C11   N11   1.342963 A    
N22   Ni8   1.866369 S    
C12   H12   1.069652 S    
C20   C110  1.509887 S    
N26   N27   1.343537 A    
N14   Ni5   1.826834 S    
C77   C85   1.401838 A    
C55   O7    1.411541 S    
C73   H37   1.080301 S    
C77   H41   1.080301 S    
N5    Ni5   1.867792 S    
C4    C36   1.376361 A    
C26   H18   1.079444 S    
C119  H101  1.113015 S    
C104  C105  1.532477 S    
C76   H40   1.080431 S    
C30   H22   1.079492 S    
C26   C46   1.364495 A    
C8    C40   1.376335 A    
C46   C61   1.439160 S    
C72   H36   1.080593 S    
N4    N9    1.403792 A    
C67   C79   1.384165 A    
C106  H60   1.111007 S    
C70   C74   1.384384 A    
C71   H35   1.080757 S    
N22   N23   1.410394 A    
C117  H92   1.106401 S    
C65   C77   1.383127 A    
N8    N13   1.403792 A    
C108  H70   1.108315 S    
C109  H68   1.110918 S    
C68   C80   1.385545 A    
N15   Ni8   1.824041 S    
C20   C41   1.368555 A    
C25   H17   1.079675 S    
C126  H114  1.109256 S    
C112  H75   1.110930 S    
C92   C98   1.388475 A    
C10   H10   1.064581 S    
C106  H62   1.109606 S    
C124  H102  1.108734 S    
C19   C107  1.519319 S    
C51   C58   1.533750 S    
C40   C86   1.463340 S    
C115  H82   1.110851 S    
C69   C73   1.383154 A    
C32   N32   1.331048 A    
C96   C100  1.388483 A    
C108  C109  1.526343 S    
C131  H128  1.108844 S    
C58   H26   1.110945 S    
N1    Ni1   1.867792 S    
N24   Ni6   1.866187 S    
C102  H56   1.112240 S    
O1    C125  1.406332 S    
C56   O8    1.410688 S    
N26   Ni3   1.865709 S    
C130  H125  1.111508 S    
C113  H86   1.104161 S    
C131  H127  1.110859 S    
N17   Ni3   1.866371 S    
C104  H66   1.109539 S    
C19   N19   1.351018 A    
C121  H95   1.111009 S    
C30   N30   1.331045 A    
N25   N28   1.343537 A    
O8    C132  1.408911 S    
C51   C61   1.537089 S    
C132  H132  1.109152 S    
C1    C33   1.375211 A    
C116  H94   1.109547 S    
C56   C64   1.535675 S    
C91   C97   1.387899 A    
C5    C37   1.375280 A    
C7    C39   1.385487 A    
O4    C128  1.408908 S    
C53   C59   1.554721 S    
C129  H122  1.111294 S    
C94   C99   1.398984 A    
C132  H131  1.112291 S    
C17   C101  1.506174 S    
C41   C97   1.415473 S    
C67   H31   1.080771 S    
C128  H119  1.112319 S    
C15   H15   1.071949 S    
C52   O4    1.410632 S    
C114  H84   1.112237 S    
C16   H16   1.069647 S    
C124  H104  1.110459 S    
C50   O2    1.412351 S    
C50   C58   1.531985 S    
C79   C87   1.403187 A    
N16   Ni7   1.824042 S    
C80   H44   1.080441 S    
C105  H64   1.106471 S    
C106  H61   1.111038 S    
C58   C62   1.556614 S    
C27   C46   1.361353 A    
N3    Ni3   1.868045 S    
