data_mof_unit_60735.cif
_audit_creation_date              2012-12-10T19:39:59-0500
_audit_creation_method            fapswitch 2.2
_symmetry_space_group_name_H-M    P1
_symmetry_Int_Tables_number       1
_space_group_crystal_system       triclinic
_cell_length_a                    15.836001
_cell_length_b                    17.115963
_cell_length_c                    19.332357
_cell_angle_alpha                 91.210563
_cell_angle_beta                  91.602664
_cell_angle_gamma                 95.711766
_cell_volume                      5210.4429867

loop_
_atom_site_label
_atom_site_type_symbol
_atom_type_description
_atom_site_fract_x
_atom_site_fract_y
_atom_site_fract_z
_atom_type_partial_charge
C1    C     C_R   0.489948 0.348662 0.499478 0.854187
C2    C     C_R   0.510051 0.651339 0.500521 0.854186
C3    C     C_R   0.484825 0.262717 0.499066 -0.020581
C4    C     C_R   0.515175 0.737283 0.500934 -0.020585
C5    C     C_R   0.559193 0.224736 0.503340 -0.184436
C6    C     C_R   0.440807 0.775265 0.496668 -0.184438
C7    C     C_R   0.554460 0.143208 0.502995 -0.137889
C8    C     C_R   0.445540 0.856792 0.497014 -0.137891
C9    C     C_R   0.474730 0.098186 0.498347 0.379002
C10   C     C_R   0.525270 0.901814 0.501654 0.379003
C11   C     C_R   0.400819 0.136273 0.494032 -0.166753
C12   C     C_R   0.599182 0.863727 0.505961 -0.166753
C13   C     C_R   0.405551 0.217904 0.494377 -0.149302
C14   C     C_R   0.594449 0.782096 0.505615 -0.149304
C15   C     C_R   0.754140 0.461835 0.465928 0.541323
C16   C     C_R   0.245860 0.538165 0.534072 0.541314
C17   C     C_R   0.843043 0.464705 0.468534 -0.279807
C18   C     C_R   0.156957 0.535296 0.531466 -0.279809
C19   C     C_R   0.891313 0.516877 0.514784 0.325279
C20   C     C_R   0.108687 0.483123 0.485216 0.325277
C21   C     C_R   0.847174 0.565288 0.557489 -0.284797
C22   C     C_R   0.152826 0.434711 0.442512 -0.284794
C23   C     C_R   0.500673 0.499623 0.367618 0.916634
C24   C     C_R   0.499327 0.500377 0.632381 0.916652
C25   C     C_R   0.757784 0.560870 0.553536 0.010359
C26   C     C_R   0.242215 0.439129 0.446465 0.010368
C27   C     C_R   0.451252 0.440513 0.253011 0.334564
C28   C     C_R   0.548735 0.559496 0.746988 0.334558
C29   C     C_R   0.451577 0.440825 0.180919 -0.157967
C30   C     C_R   0.548410 0.559184 0.819080 -0.157967
C31   C     C_R   0.502325 0.498667 0.146471 -0.086569
C32   C     C_R   0.497676 0.501331 0.853528 -0.086568
C33   C     C_R   0.553673 0.556123 0.185420 -0.159722
C34   C     C_R   0.446342 0.443865 0.814579 -0.159718
C35   C     C_R   0.553963 0.556465 0.257588 0.333006
C36   C     C_R   0.446052 0.443523 0.742411 0.332992
C37   C     C_R   0.502201 0.498763 0.291924 -0.183786
C38   C     C_R   0.497799 0.501236 0.708075 -0.183778
C39   C     C_R   0.498694 0.500750 0.929816 0.464948
C40   C     C_R   0.501307 0.499248 0.070183 0.464949
Cu1   Cu    Cu3+1 0.415220 0.496180 0.496660 1.058389
Cu2   Cu    Cu3+1 0.584780 0.503820 0.503340 1.058389
H1    H     H_    0.126328 0.573861 0.565706 0.196160
H2    H     H_    0.873672 0.426140 0.434293 0.196160
H3    H     H_    0.881891 0.606464 0.593808 0.178786
H4    H     H_    0.118109 0.393535 0.406193 0.178789
H5    H     H_    0.725026 0.598752 0.586711 0.196032
H6    H     H_    0.274974 0.401246 0.413291 0.196042
H7    H     H_    0.412058 0.395468 0.151971 0.203141
H8    H     H_    0.587917 0.604550 0.848028 0.203140
H9    H     H_    0.593235 0.601426 0.159953 0.202719
H10   H     H_    0.406793 0.398553 0.840046 0.202719
H11   H     H_    0.378869 0.742095 0.492969 0.194106
H12   H     H_    0.621130 0.257906 0.507046 0.194099
H13   H     H_    0.386846 0.884147 0.493623 0.166989
H14   H     H_    0.613153 0.115854 0.506393 0.166988
H15   H     H_    0.339259 0.102401 0.490407 0.156731
H16   H     H_    0.660742 0.897599 0.509579 0.156732
H17   H     H_    0.347158 0.245790 0.490940 0.178378
H18   H     H_    0.652843 0.754210 0.509046 0.178381
N1    N     N_R   0.550061 0.555075 0.036466 -0.217707
N2    N     N_R   0.449941 0.444924 0.963532 -0.217706
N3    N     N_R   0.548803 0.555787 0.967675 -0.218221
N4    N     N_R   0.451198 0.444212 0.032324 -0.218220
N5    N     N_2   0.465765 0.014972 0.497844 -0.247032
N6    N     N_2   0.534236 0.985028 0.502156 -0.247032
N7    N     N_R   0.712130 0.509560 0.508360 -0.207908
N8    N     N_R   0.287870 0.490440 0.491640 -0.207910
N9    N     N_2   0.982640 0.522601 0.519912 -0.208643
N10   N     N_2   0.017360 0.477399 0.480088 -0.208642
O1    O     O_R   0.420530 0.382500 0.496880 -0.579963
O2    O     O_R   0.579470 0.617500 0.503120 -0.579962
O3    O     O_R   0.563720 0.388950 0.502520 -0.562276
O4    O     O_R   0.436280 0.611050 0.497480 -0.562275
O5    O     O_R   0.428380 0.496760 0.397320 -0.576662
O6    O     O_R   0.571620 0.503240 0.602680 -0.576672
O7    O     O_R   0.571570 0.503220 0.402960 -0.504472
O8    O     O_R   0.428430 0.496780 0.597040 -0.504476
Cl1   Cl    Cl    0.388700 0.364017 0.292629 -0.609657
Cl2   Cl    Cl    0.611268 0.636004 0.707368 -0.609642
Cl3   Cl    Cl    0.617162 0.632458 0.303056 -0.575711
Cl4   Cl    Cl    0.382872 0.367518 0.696942 -0.575725
Cl5   Cl    Cl    0.300042 0.605056 0.594052 -0.570872
Cl6   Cl    Cl    0.699958 0.394944 0.405947 -0.570867

loop_
_geom_bond_atom_site_label_1
_geom_bond_atom_site_label_2
_ccdc_geom_bond_type
C27   C29   A    
Cu1   Cu2   S    
C25   N7    A    
C35   Cl3   S    
C29   H7    S    
C1    O1    A    
C35   C37   A    
C27   Cl1   S    
C31   C40   S    
C7    C9    A    
C32   C39   S    
N1    N3    A    
N2    N4    A    
C17   C19   A    
Cu1   O4    S    
C36   Cl4   S    
C24   C38   S    
C31   C33   A    
C16   N8    A    
C25   H5    S    
C34   C36   A    
C3    C13   A    
C26   H6    S    
Cu1   O1    S    
C12   H16   S    
C30   H8    S    
C20   N10   S    
C7    H14   S    
C2    O2    A    
C8    H13   S    
Cu1   N8    S    
C21   H3    S    
C10   N6    S    
C5    H12   S    
C4    C6    A    
C23   O5    A    
Cu1   O8    S    
C5    C7    A    
C24   O6    A    
C6    C8    A    
C23   C37   S    
C16   Cl5   S    
C40   N1    A    
C1    C3    S    
C32   C34   A    
C2    C4    S    
Cu1   O5    S    
C28   C38   A    
C15   N7    A    
Cu2   O2    S    
C23   O7    A    
C9    C11   A    
C10   C12   A    
C24   O8    A    
C22   H4    S    
C20   C22   A    
Cu2   N7    S    
C19   N9    S    
C6    H11   S    
C39   N3    A    
C15   C17   A    
C39   N2    A    
C21   C25   A    
Cu2   O3    S    
C19   C21   A    
Cu2   O6    S    
C8    C10   A    
C12   C14   A    
C3    C5    A    
C2    O4    A    
C15   Cl6   S    
C13   H17   S    
C33   H9    S    
C14   H18   S    
C34   H10   S    
C40   N4    A    
C1    O3    A    
C28   C30   A    
C17   H2    S    
C26   N8    A    
C29   C31   A    
C18   H1    S    
C30   C32   A    
C11   C13   A    
C27   C37   A    
C36   C38   A    
C33   C35   A    
C18   C20   A    
C4    C14   A    
N9    N10   D    
C28   Cl2   S    
C9    N5    S    
Cu2   O7    S    
C16   C18   A    
N5    N6    D    
C22   C26   A    
C11   H15   S    
