data_mof_unit_9713.cif
_audit_creation_date              2012-12-10T17:37:32-0500
_audit_creation_method            fapswitch 2.2
_symmetry_space_group_name_H-M    P1
_symmetry_Int_Tables_number       1
_space_group_crystal_system       triclinic
_cell_length_a                    12.037361
_cell_length_b                    12.913844
_cell_length_c                    16.676549
_cell_angle_alpha                 91.961284
_cell_angle_beta                  79.083846
_cell_angle_gamma                 93.430345
_cell_volume                      2540.1847702

loop_
_atom_site_label
_atom_site_type_symbol
_atom_type_description
_atom_site_fract_x
_atom_site_fract_y
_atom_site_fract_z
_atom_type_partial_charge
C1    C     C_R   0.523713 0.700271 0.493290 0.897699
C2    C     C_R   0.555426 0.132875 0.512779 -0.291954
C3    C     C_R   0.446974 0.973195 0.499947 0.098427
C4    C     C_R   0.552732 0.026533 0.500627 0.097865
C5    C     C_R   0.975798 0.436369 0.404735 -0.382522
C6    C     C_R   0.024282 0.564816 0.594749 -0.378787
C7    C     C_R   0.856970 0.436689 0.415823 0.142600
C8    C     C_R   0.142986 0.563340 0.584155 0.141109
C9    C     C_R   0.848233 0.523265 0.544277 -0.051126
C10   C     C_R   0.151878 0.477912 0.455257 -0.050397
C11   C     C_R   0.967819 0.522425 0.535069 0.070233
C12   C     C_R   0.476267 0.299653 0.506510 0.895381
C13   C     C_R   0.032324 0.479154 0.464279 0.073018
C14   C     C_R   0.482792 0.503792 0.653990 0.871030
C15   C     C_R   0.517372 0.496772 0.345969 0.874567
C16   C     C_R   0.470437 0.523942 0.740727 -0.054948
C17   C     C_R   0.532035 0.484995 0.258329 -0.060573
C18   C     C_R   0.530601 0.608933 0.770584 0.002847
C19   C     C_R   0.469424 0.407208 0.222338 -0.000218
C20   C     C_R   0.521719 0.623896 0.854204 -0.219027
C21   C     C_R   0.484435 0.399257 0.137907 -0.213992
C22   C     C_R   0.453070 0.555427 0.907586 0.056455
C23   C     C_R   0.458915 0.187885 0.515503 -0.129055
C24   C     C_R   0.561350 0.467642 0.089732 0.056098
C25   C     C_R   0.384525 0.475797 0.878285 0.041735
C26   C     C_R   0.630416 0.540744 0.125260 0.038001
C27   C     C_R   0.395150 0.460020 0.794098 -0.265097
C28   C     C_R   0.613924 0.549301 0.210165 -0.262808
C29   C     C_2   0.477369 0.551070 0.989511 -0.054527
C30   C     C_2   0.546074 0.478624 0.006162 -0.053764
C31   C     C_1   0.602172 0.681216 0.716777 0.149099
C32   C     C_1   0.389934 0.334867 0.270538 0.149079
C33   C     C_R   0.194070 0.613441 0.650169 0.167059
C34   C     C_R   0.540847 0.811977 0.484295 -0.126781
C35   C     C_R   0.243049 0.714373 0.640789 -0.100600
C36   C     C_R   0.280051 0.767844 0.706011 -0.152671
C37   C     C_R   0.262491 0.722719 0.782644 -0.115666
C38   C     C_R   0.207384 0.624532 0.793957 -0.135078
C39   C     C_R   0.173871 0.569670 0.727955 -0.162820
C40   C     C_R   0.805472 0.384486 0.350822 0.165770
C41   C     C_R   0.757294 0.283508 0.361988 -0.101209
C42   C     C_R   0.718579 0.228363 0.298171 -0.152368
C43   C     C_R   0.733666 0.271907 0.221072 -0.118306
C44   C     C_R   0.788482 0.369966 0.207822 -0.130692
C45   C     C_R   0.654200 0.973167 0.485658 -0.032454
C46   C     C_R   0.823917 0.426399 0.272443 -0.163921
C47   C     C_1   0.596836 0.403855 0.945317 0.160092
C48   C     C_1   0.427503 0.626476 0.050123 0.161698
C49   C     C_R   0.305912 0.406342 0.934646 0.107980
C50   C     C_R   0.309528 0.297990 0.924841 -0.159462
C51   C     C_R   0.236048 0.232996 0.978715 -0.142771
C52   C     C_R   0.158128 0.275507 0.042404 -0.111471
C53   C     C_R   0.153307 0.383116 0.052221 -0.134206
C54   C     C_R   0.226689 0.448372 0.998558 -0.163660
C55   C     C_R   0.717503 0.609753 0.074980 0.109683
C56   C     C_R   0.345592 0.026531 0.514258 -0.032807
C57   C     C_R   0.798613 0.567789 0.012299 -0.162310
C58   C     C_R   0.881464 0.632568 0.965450 -0.134179
C59   C     C_R   0.884334 0.739603 0.980938 -0.109900
C60   C     C_R   0.804539 0.781987 0.043453 -0.138384
C61   C     C_R   0.721564 0.717464 0.090499 -0.158684
C62   C     C_R   0.244478 0.189950 0.548056 0.160268
C63   C     C_R   0.166594 0.192753 0.495307 -0.109917
C64   C     C_R   0.062999 0.238065 0.521698 -0.123175
C65   C     C_R   0.036637 0.281133 0.600568 -0.096502
C66   C     C_R   0.114113 0.279367 0.653119 -0.144419
C67   C     C_R   0.648674 0.864783 0.475550 -0.048887
C68   C     C_R   0.217796 0.234068 0.627070 -0.118703
C69   C     C_R   0.754688 0.809921 0.446722 0.159784
C70   C     C_R   0.775546 0.765670 0.367504 -0.123502
C71   C     C_R   0.877426 0.718844 0.337900 -0.144829
C72   C     C_R   0.958988 0.715573 0.387115 -0.099679
C73   C     C_R   0.938755 0.759196 0.466036 -0.124596
C74   C     C_R   0.836972 0.806153 0.495947 -0.105936
C75   C     C_1   0.764139 0.028934 0.476943 0.119251
C76   C     C_1   0.235619 0.970639 0.523024 0.121304
C77   C     C_R   0.351145 0.135022 0.523129 -0.054741
C78   C     C_R   0.444138 0.866882 0.488031 -0.293512
H1    H     H_    0.023682 0.401076 0.349974 0.156189
H2    H     H_    0.799230 0.559296 0.597978 0.147869
H3    H     H_    0.248072 0.752714 0.583878 0.133175
H4    H     H_    0.319315 0.845321 0.697673 0.141890
H5    H     H_    0.289572 0.764533 0.833563 0.132734
H6    H     H_    0.190652 0.590871 0.853862 0.133284
H7    H     H_    0.130056 0.494302 0.737838 0.117471
H8    H     H_    0.753991 0.246622 0.419292 0.132694
H9    H     H_    0.679803 0.150891 0.307956 0.142102
H10   H     H_    0.705183 0.228851 0.171225 0.133374
H11   H     H_    0.803621 0.402223 0.147464 0.135310
H12   H     H_    0.976358 0.599937 0.649572 0.157016
H13   H     H_    0.867482 0.501642 0.261082 0.117792
H14   H     H_    0.370101 0.263899 0.876218 0.134871
H15   H     H_    0.239649 0.149615 0.971160 0.132172
H16   H     H_    0.101314 0.225077 0.084030 0.130506
H17   H     H_    0.092514 0.415972 0.101307 0.131434
H18   H     H_    0.221133 0.531597 0.006427 0.128164
H19   H     H_    0.798636 0.484854 0.000378 0.127632
H20   H     H_    0.943752 0.599732 0.917360 0.130533
H21   H     H_    0.948587 0.789644 0.944657 0.128062
H22   H     H_    0.806978 0.864905 0.055482 0.130877
H23   H     H_    0.664751 0.606095 0.238956 0.135824
H24   H     H_    0.660022 0.751528 0.138489 0.132352
H25   H     H_    0.185455 0.158484 0.434429 0.145711
H26   H     H_    0.003116 0.239841 0.480984 0.154354
H27   H     H_    0.956202 0.315898 0.620917 0.137554
H28   H     H_    0.093236 0.311837 0.714408 0.122102
H29   H     H_    0.276529 0.231837 0.668742 0.106449
H30   H     H_    0.713520 0.768812 0.328432 0.104311
H31   H     H_    0.893614 0.686238 0.276454 0.123002
H32   H     H_    0.037926 0.679387 0.364087 0.136542
H33   H     H_    0.001993 0.756537 0.504052 0.154478
H34   H     H_    0.345732 0.397564 0.770008 0.133511
H35   H     H_    0.822852 0.840615 0.556863 0.146927
H36   H     H_    0.431461 0.343933 0.109470 0.159271
H37   H     H_    0.573877 0.684638 0.877819 0.153828
H38   H     H_    0.634207 0.174002 0.518555 0.172411
H39   H     H_    0.365161 0.825687 0.482836 0.172754
H40   H     H_    0.200857 0.442118 0.401470 0.150181
N1    N     N_R   0.206400 0.519440 0.514690 -0.113633
N2    N     N_R   0.793600 0.480560 0.485310 -0.113397
N3    N     N_1   0.659308 0.739306 0.673783 -0.227898
N4    N     N_1   0.326434 0.276764 0.309081 -0.232418
N5    N     N_1   0.637314 0.344250 0.896733 -0.220838
N6    N     N_1   0.387734 0.686589 0.098543 -0.219808
N7    N     N_1   0.851964 0.072823 0.469937 -0.224835
N8    N     N_1   0.147869 0.926573 0.530087 -0.224166
O1    O     O_R   0.421320 0.658850 0.503920 -0.632095
O2    O     O_R   0.578680 0.341150 0.496080 -0.630507
O3    O     O_R   0.609840 0.646370 0.494500 -0.601999
O4    O     O_R   0.390160 0.353630 0.505500 -0.603722
O5    O     O_R   0.394600 0.506990 0.621070 -0.608209
O6    O     O_R   0.605400 0.493010 0.378930 -0.608452
O7    O     O_R   0.583120 0.494520 0.611640 -0.621783
O8    O     O_R   0.416880 0.505480 0.388360 -0.621842
Zn1   Zn    Zn3+2 0.374120 0.508330 0.506290 0.958861
Zn2   Zn    Zn3+2 0.625880 0.491670 0.493710 0.959485

loop_
_geom_bond_atom_site_label_1
_geom_bond_atom_site_label_2
_ccdc_geom_bond_type
C66   C68   A    
C56   C76   S    
C22   C29   S    
C53   H17   S    
C59   H21   S    
C41   C42   A    
C62   C77   S    
O4    Zn1   S    
C58   H20   S    
C26   C55   S    
C35   H3    S    
C15   O8    A    
C53   C54   A    
C40   C46   A    
C41   H8    S    
C12   C23   S    
C29   C30   D    
C12   O4    A    
C43   H10   S    
C36   C37   A    
C19   C21   A    
C37   C38   A    
O1    Zn1   S    
C1    O3    A    
O2    Zn2   S    
C38   C39   A    
C49   C54   A    
C71   H31   S    
C76   N8    T    
C15   C17   S    
C73   C74   A    
C10   N1    A    
C17   C19   A    
C2    H38   S    
C28   H23   S    
C15   O6    A    
C35   C36   A    
C36   H4    S    
C22   C25   A    
C45   C67   A    
O7    Zn2   S    
C7    C40   S    
C52   H16   S    
C70   C71   A    
C68   H29   S    
C5    H1    S    
C5    C13   A    
C14   O5    A    
C16   C27   A    
C59   C60   A    
C66   H28   S    
C19   C32   S    
C65   H27   S    
C26   C28   A    
C44   C46   A    
C1    C34   S    
C73   H33   S    
C24   C30   S    
C4    C45   A    
C72   H32   S    
C29   C48   S    
C51   C52   A    
C32   N4    T    
C30   C47   S    
C78   H39   S    
C31   N3    T    
C63   H25   S    
C6    C11   A    
C5    C7    A    
C21   H36   S    
C6    C8    A    
C46   H13   S    
C58   C59   A    
C6    H12   S    
C74   H35   S    
N1    Zn1   S    
C56   C77   A    
C60   C61   A    
C67   C69   S    
C9    H2    S    
C2    C4    A    
C43   C44   A    
C62   C63   A    
C10   H40   S    
O3    Zn2   S    
C3    C56   A    
C47   N5    T    
O6    Zn2   S    
C57   H19   S    
C50   C51   A    
C69   C74   A    
C33   C39   A    
C23   C77   A    
C9    C11   A    
C51   H15   S    
C50   H14   S    
C40   C41   A    
C20   C22   A    
C27   H34   S    
C49   C50   A    
C55   C57   A    
C14   C16   S    
C42   C43   A    
C39   H7    S    
C3    C4    A    
C75   N7    T    
C52   C53   A    
C64   H26   S    
C38   H6    S    
C17   C28   A    
C54   H18   S    
C7    N2    A    
C1    O1    A    
C24   C26   A    
C72   C73   A    
C60   H22   S    
C10   C13   A    
C34   C67   A    
C48   N6    T    
C20   H37   S    
O8    Zn1   S    
C12   O2    A    
C14   O7    A    
C25   C27   A    
O5    Zn1   S    
C62   C68   A    
C45   C75   S    
C64   C65   A    
C61   H24   S    
C71   C72   A    
C70   H30   S    
C34   C78   A    
C11   C13   A    
C57   C58   A    
C55   C61   A    
C33   C35   A    
C18   C20   A    
C8    C33   S    
C69   C70   A    
C25   C49   S    
C42   H9    S    
C63   C64   A    
C16   C18   A    
C65   C66   A    
C21   C24   A    
C2    C23   A    
C9    N2    A    
C37   H5    S    
C18   C31   S    
N2    Zn2   S    
C3    C78   A    
C44   H11   S    
C8    N1    A    
