data_mof_unit_27908.cif
_audit_creation_date              2013-03-05T15:39:55-0500
_audit_creation_method            fapswitch 2.2
_symmetry_space_group_name_H-M    P1
_symmetry_Int_Tables_number       1
_space_group_crystal_system       triclinic
_cell_length_a                    28.045199
_cell_length_b                    18.885448
_cell_length_c                    16.817816
_cell_angle_alpha                 89.963597
_cell_angle_beta                  62.58213
_cell_angle_gamma                 90.037926
_cell_volume                      7906.92289307

loop_
_atom_site_label
_atom_site_type_symbol
_atom_site_description
_atom_site_fract_x
_atom_site_fract_y
_atom_site_fract_z
_atom_type_partial_charge
O1    O     O_R   0.255040 0.869590 0.478480 -0.510514
O2    O     O_R   0.744960 0.130410 0.521520 -0.504990
O3    O     O_R   0.744960 0.869590 0.521520 -0.509937
O4    O     O_R   0.255040 0.130410 0.478480 -0.504445
O5    O     O_R   0.755040 0.369590 0.478480 -0.510486
O6    O     O_R   0.244960 0.630410 0.521520 -0.504958
O7    O     O_R   0.244960 0.369590 0.521520 -0.509953
O8    O     O_R   0.755040 0.630410 0.478480 -0.504436
O9    O     O_R   0.182050 0.796550 0.624440 -0.589988
O10   O     O_R   0.817950 0.203450 0.375560 -0.580255
O11   O     O_R   0.817950 0.796550 0.375560 -0.590424
O12   O     O_R   0.182050 0.203450 0.624440 -0.580617
O13   O     O_R   0.682050 0.296550 0.624440 -0.589992
O14   O     O_R   0.317950 0.703450 0.375560 -0.580271
O15   O     O_R   0.317950 0.296550 0.375560 -0.590451
O16   O     O_R   0.682050 0.703450 0.624440 -0.580765
Cu1   Cu    Cu3+1 0.209920 0.785290 0.495070 1.038113
Cu2   Cu    Cu3+1 0.790080 0.214710 0.504930 1.040307
Cu3   Cu    Cu3+1 0.790080 0.785290 0.504930 1.035657
Cu4   Cu    Cu3+1 0.209920 0.214710 0.495070 1.039114
Cu5   Cu    Cu3+1 0.709920 0.285290 0.495070 1.038131
Cu6   Cu    Cu3+1 0.290080 0.714710 0.504930 1.040350
Cu7   Cu    Cu3+1 0.290080 0.285290 0.504930 1.035659
Cu8   Cu    Cu3+1 0.709920 0.714710 0.495070 1.038802
C1    C     C_R   0.294913 0.728174 0.329639 0.817677
C2    C     C_R   0.705102 0.271850 0.670354 0.794703
C3    C     C_R   0.705260 0.727708 0.670268 0.818016
C4    C     C_R   0.294735 0.272303 0.329734 0.795399
C5    C     C_R   0.794895 0.228132 0.329646 0.817692
C6    C     C_R   0.205091 0.771833 0.670360 0.794696
C7    C     C_R   0.205259 0.227710 0.670269 0.818098
C8    C     C_R   0.794736 0.772301 0.329734 0.795454
O17   O     O_R   0.250530 0.763330 0.367210 -0.580176
O18   O     O_R   0.749470 0.236670 0.632790 -0.590388
O19   O     O_R   0.749470 0.763330 0.632790 -0.580787
O20   O     O_R   0.250530 0.236670 0.367210 -0.590494
O21   O     O_R   0.750530 0.263330 0.367210 -0.580147
O22   O     O_R   0.249470 0.736670 0.632790 -0.590335
O23   O     O_R   0.249470 0.263330 0.632790 -0.580802
O24   O     O_R   0.750530 0.736670 0.367210 -0.590474
O25   O     O_R   0.177260 0.690030 0.513710 -0.612436
O26   O     O_R   0.822740 0.309970 0.486290 -0.611071
O27   O     O_R   0.822740 0.690030 0.486290 -0.614040
O28   O     O_R   0.177260 0.309970 0.513710 -0.611363
O29   O     O_R   0.677260 0.190030 0.513710 -0.612464
O30   O     O_R   0.322740 0.809970 0.486290 -0.611112
O31   O     O_R   0.322740 0.190030 0.486290 -0.614059
O32   O     O_R   0.677260 0.809970 0.513710 -0.611469
C9    C     C_R   0.196572 0.632024 0.527836 0.822742
C10   C     C_R   0.800761 0.369024 0.481840 0.823099
C11   C     C_R   0.803416 0.632033 0.472227 0.823373
C12   C     C_R   0.199233 0.369028 0.518182 0.823506
C13   C     C_R   0.696572 0.132024 0.527837 0.822656
C14   C     C_R   0.300761 0.869024 0.481839 0.822987
C15   C     C_R   0.303416 0.132033 0.472227 0.823302
C16   C     C_R   0.699233 0.869028 0.518181 0.823425
C17   C     C_R   0.047946 0.502977 0.508015 0.043892
C18   C     C_R   0.951964 0.503019 0.492341 0.043405
C19   C     C_R   0.547951 0.002977 0.508001 0.043869
C20   C     C_R   0.451969 0.003018 0.492327 0.043397
C21   C     C_R   0.021800 0.567364 0.510533 0.036584
C22   C     C_R   0.974011 0.439082 0.503260 0.039402
C23   C     C_R   0.978128 0.567402 0.489951 0.036209
C24   C     C_R   0.025861 0.439076 0.497029 0.041120
C25   C     C_R   0.521804 0.067364 0.510522 0.036563
C26   C     C_R   0.474018 0.939081 0.503239 0.039386
C27   C     C_R   0.478132 0.067402 0.489940 0.036219
C28   C     C_R   0.525869 0.939077 0.497008 0.041091
C29   C     C_R   0.125696 0.438615 0.502111 0.016125
C30   C     C_R   0.884933 0.565633 0.463406 0.011178
C31   C     C_R   0.874198 0.438657 0.498163 0.014482
C32   C     C_R   0.115003 0.565515 0.536989 0.011362
C33   C     C_R   0.625700 0.938616 0.502101 0.016080
C34   C     C_R   0.384935 0.065633 0.463400 0.011186
C35   C     C_R   0.374203 0.938656 0.498152 0.014460
C36   C     C_R   0.615004 0.065515 0.536984 0.011323
C37   C     C_R   0.171114 0.436590 0.519691 -0.232379
C38   C     C_R   0.834667 0.565569 0.461100 -0.218726
C39   C     C_R   0.828844 0.436621 0.480444 -0.232014
C40   C     C_R   0.165303 0.565502 0.539115 -0.218787
C41   C     C_R   0.671116 0.936591 0.519687 -0.232470
C42   C     C_R   0.334667 0.065570 0.461098 -0.218738
C43   C     C_R   0.328846 0.936621 0.480440 -0.232029
C44   C     C_R   0.665304 0.065502 0.539114 -0.218794
C45   C     C_R   0.189436 0.500414 0.540358 0.257827
C46   C     C_R   0.810557 0.500453 0.459744 0.257656
C47   C     C_R   0.689436 0.000414 0.540358 0.257790
C48   C     C_R   0.310557 0.000453 0.459744 0.257626
C49   C     C_R   0.096196 0.502278 0.516393 0.074071
C50   C     C_R   0.903717 0.502352 0.483946 0.073709
C51   C     C_R   0.596200 0.002278 0.516383 0.074027
C52   C     C_R   0.403721 0.002351 0.483935 0.073687
C53   C     C_R   0.608052 0.879607 0.470584 -0.148211
C54   C     C_R   0.417702 0.126653 0.445069 -0.132882
C55   C     C_R   0.391774 0.879607 0.529730 -0.144655
C56   C     C_R   0.582239 0.126465 0.555529 -0.131047
C57   C     C_R   0.108044 0.379604 0.470601 -0.148031
C58   C     C_R   0.917701 0.626652 0.445073 -0.132790
C59   C     C_R   0.891765 0.379609 0.529749 -0.144684
C60   C     C_R   0.082238 0.626466 0.555532 -0.130973
C61   C     C_R   0.557500 0.878117 0.474722 -0.204703
C62   C     C_R   0.461319 0.128714 0.463283 -0.201938
C63   C     C_R   0.442331 0.878093 0.525541 -0.202108
C64   C     C_R   0.538616 0.128587 0.537350 -0.201352
C65   C     C_R   0.057491 0.378115 0.474745 -0.204439
C66   C     C_R   0.961318 0.628714 0.463289 -0.201873
C67   C     C_R   0.942322 0.378095 0.525566 -0.201969
C68   C     C_R   0.038614 0.628588 0.537356 -0.201302
H1    H     H_    0.632569 0.834172 0.439318 0.179466
H2    H     H_    0.411697 0.173214 0.413671 0.178650
H3    H     H_    0.367186 0.834159 0.561081 0.181463
H4    H     H_    0.588284 0.172921 0.587022 0.178466
H5    H     H_    0.132559 0.334169 0.439335 0.179433
H6    H     H_    0.911698 0.673213 0.413672 0.178691
H7    H     H_    0.867176 0.334162 0.561100 0.181417
H8    H     H_    0.088285 0.672923 0.587023 0.178476
H9    H     H_    0.544984 0.830220 0.454157 0.155325
H10   H     H_    0.483729 0.177664 0.450722 0.155089
H11   H     H_    0.454800 0.830161 0.546109 0.156973
H12   H     H_    0.516211 0.177493 0.550050 0.153831
H13   H     H_    0.044973 0.330218 0.454186 0.155323
H14   H     H_    0.983728 0.677663 0.450726 0.155122
H15   H     H_    0.954788 0.330163 0.546138 0.157076
H16   H     H_    0.016210 0.677494 0.550053 0.153832
H17   H     H_    0.249032 0.874903 0.954649 0.160345
H18   H     H_    0.751718 0.125943 0.044630 0.160595
H19   H     H_    0.842048 0.702297 0.946586 0.157873
H20   H     H_    0.157804 0.297888 0.053568 0.158236
H21   H     H_    0.749370 0.375451 0.954296 0.160564
H22   H     H_    0.251162 0.625390 0.045157 0.160579
H23   H     H_    0.342029 0.202340 0.946599 0.157838
H24   H     H_    0.657827 0.797860 0.053548 0.158177
C69   C     C_R   0.222892 0.767706 0.950551 0.118243
C70   C     C_R   0.777846 0.233149 0.048674 0.117163
C71   C     C_R   0.778665 0.765026 0.047869 0.130711
C72   C     C_R   0.221199 0.235186 0.952263 0.129687
C73   C     C_R   0.723269 0.268229 0.950209 0.118176
C74   C     C_R   0.277303 0.732585 0.049258 0.118854
C75   C     C_R   0.278643 0.265061 0.047887 0.130628
C76   C     C_R   0.721219 0.735153 0.952247 0.129663
C77   C     C_R   0.223991 0.697354 0.975925 -0.123267
C78   C     C_R   0.776698 0.303502 0.023340 -0.123515
C79   C     C_R   0.726484 0.791471 0.077618 -0.144696
C80   C     C_R   0.273376 0.208736 0.922527 -0.142788
C81   C     C_R   0.724456 0.197874 0.975500 -0.123770
C82   C     C_R   0.276209 0.802939 0.023878 -0.123167
C83   C     C_R   0.226461 0.291503 0.077638 -0.144462
C84   C     C_R   0.773395 0.708698 0.922513 -0.142734
H25   H     H_    0.203400 0.656347 0.958571 0.153730
H26   H     H_    0.797268 0.344526 0.040709 0.153936
H27   H     H_    0.708227 0.824348 0.136932 0.138410
H28   H     H_    0.291632 0.175850 0.863223 0.140957
H29   H     H_    0.703857 0.156844 0.958199 0.153778
H30   H     H_    0.296797 0.843945 0.041239 0.153430
H31   H     H_    0.208203 0.324377 0.136955 0.138470
H32   H     H_    0.791649 0.675810 0.863211 0.140979
C85   C     C_R   0.250854 0.679931 0.025449 -0.087545
C86   C     C_R   0.749742 0.320909 0.973941 -0.089652
C87   C     C_R   0.698003 0.776873 0.029893 -0.074994
C88   C     C_R   0.301855 0.223334 0.970250 -0.075127
C89   C     C_R   0.751393 0.180477 0.024912 -0.088443
C90   C     C_R   0.249344 0.820363 0.974353 -0.089204
C91   C     C_R   0.197981 0.276904 0.029912 -0.074870
C92   C     C_R   0.801874 0.723295 0.970235 -0.074918
C93   C     C_R   0.146584 0.831048 0.944367 0.325389
C94   C     C_R   0.854194 0.170149 0.055025 0.325709
C95   C     C_R   0.857291 0.824759 0.052410 0.326145
C96   C     C_R   0.142624 0.175363 0.947659 0.326220
C97   C     C_R   0.646856 0.331469 0.944157 0.325405
C98   C     C_R   0.353567 0.669192 0.055504 0.325103
C99   C     C_R   0.357268 0.324796 0.052426 0.326355
C100  C     C_R   0.642641 0.675337 0.947648 0.326308
C101  C     C_R   0.119281 0.853566 0.895512 -0.169387
C102  C     C_R   0.881102 0.147001 0.104222 -0.168337
C103  C     C_R   0.883304 0.849452 0.102457 -0.160248
C104  C     C_R   0.116663 0.150590 0.897569 -0.159899
C105  C     C_R   0.619400 0.353735 0.895436 -0.169410
C106  C     C_R   0.380783 0.646528 0.104438 -0.169045
C107  C     C_R   0.383293 0.349468 0.102463 -0.160226
C108  C     C_R   0.616671 0.650579 0.897565 -0.159970
C109  C     C_R   0.137595 0.830968 0.807194 -0.251225
C110  C     C_R   0.862489 0.169118 0.192790 -0.248087
C111  C     C_R   0.863638 0.829057 0.191904 -0.258177
C112  C     C_R   0.136352 0.170948 0.808104 -0.254048
C113  C     C_R   0.637628 0.330996 0.807194 -0.251301
C114  C     C_R   0.362419 0.669042 0.192800 -0.247960
C115  C     C_R   0.363634 0.329060 0.191904 -0.258294
C116  C     C_R   0.636355 0.670944 0.808103 -0.254703
H33   H     H_    0.117535 0.848936 0.769111 0.201302
H34   H     H_    0.882321 0.150775 0.231071 0.202373
H35   H     H_    0.883376 0.847546 0.230269 0.199769
H36   H     H_    0.116659 0.152377 0.769702 0.201033
H37   H     H_    0.617465 0.348787 0.769200 0.201261
H38   H     H_    0.382413 0.650959 0.230938 0.202317
H39   H     H_    0.383381 0.347536 0.230263 0.199736
H40   H     H_    0.616657 0.652384 0.769706 0.200827
C117  C     C_R   0.182858 0.787888 0.766104 -0.051802
C118  C     C_R   0.817226 0.212216 0.233832 -0.058781
C119  C     C_R   0.817204 0.788110 0.233854 -0.050849
C120  C     C_R   0.182754 0.211957 0.766181 -0.057594
C121  C     C_R   0.682930 0.287994 0.766061 -0.051634
C122  C     C_R   0.317187 0.712182 0.233860 -0.058496
C123  C     C_R   0.317198 0.288118 0.233858 -0.050787
C124  C     C_R   0.682760 0.711948 0.766177 -0.057446
C125  C     C_R   0.209386 0.765091 0.814813 -0.237290
C126  C     C_R   0.790855 0.235231 0.184945 -0.232209
C127  C     C_R   0.790093 0.766696 0.185594 -0.235792
C128  C     C_R   0.209801 0.233486 0.814505 -0.232610
C129  C     C_R   0.709574 0.265388 0.814662 -0.237613
C130  C     C_R   0.290736 0.735107 0.185078 -0.233085
C131  C     C_R   0.290080 0.266717 0.185604 -0.235786
C132  C     C_R   0.709813 0.733466 0.814495 -0.232647
H41   H     H_    0.245042 0.732411 0.783355 0.186158
H42   H     H_    0.755120 0.267765 0.216409 0.187487
H43   H     H_    0.753184 0.736425 0.218106 0.184603
H44   H     H_    0.246681 0.263818 0.782027 0.186051
H45   H     H_    0.745244 0.232737 0.783174 0.185978
H46   H     H_    0.255101 0.767827 0.216508 0.187408
H47   H     H_    0.253171 0.236445 0.218117 0.184583
H48   H     H_    0.746695 0.763795 0.782016 0.186021
C133  C     C_R   0.191849 0.787131 0.903072 -0.043829
C134  C     C_R   0.808739 0.213700 0.096397 -0.044589
C135  C     C_R   0.809779 0.784716 0.095384 -0.048075
C136  C     C_R   0.190100 0.215479 0.904726 -0.048343
C137  C     C_R   0.692142 0.287582 0.902835 -0.043719
C138  C     C_R   0.308319 0.713139 0.096777 -0.043908
C139  C     C_R   0.309758 0.284749 0.095401 -0.048112
C140  C     C_R   0.690118 0.715450 0.904712 -0.048374
O33   O     O_R   0.051640 0.926880 0.885090 -0.587115
O34   O     O_R   0.948360 0.073120 0.114910 -0.586514
O35   O     O_R   0.948360 0.926880 0.114910 -0.595993
O36   O     O_R   0.051640 0.073120 0.885090 -0.594682
O37   O     O_R   0.551640 0.426880 0.885090 -0.587077
O38   O     O_R   0.448360 0.573120 0.114910 -0.586377
O39   O     O_R   0.448360 0.426880 0.114910 -0.596176
O40   O     O_R   0.551640 0.573120 0.885090 -0.595310
Cu9   Cu    Cu3+1 0.495240 0.500000 0.924150 1.116587
Cu10  Cu    Cu3+1 0.504760 0.500000 0.075850 1.116402
Cu11  Cu    Cu3+1 0.995240 0.000000 0.924150 1.117103
Cu12  Cu    Cu3+1 0.004760 0.000000 0.075850 1.116409
C141  C     C_R   0.927065 0.902147 0.065867 0.803641
C142  C     C_R   0.072928 0.097860 0.934138 0.804818
C143  C     C_R   0.074064 0.903798 0.933188 0.801341
C144  C     C_R   0.926096 0.096429 0.066684 0.802120
C145  C     C_R   0.427061 0.402152 0.065870 0.803926
C146  C     C_R   0.572930 0.597857 0.934137 0.804558
C147  C     C_R   0.574103 0.403850 0.933159 0.801397
C148  C     C_R   0.425956 0.596230 0.066795 0.802107
O41   O     O_R   0.940620 0.926560 0.986760 -0.517520
O42   O     O_R   0.059380 0.073440 0.013240 -0.516954
O43   O     O_R   0.059380 0.926560 0.013240 -0.527460
O44   O     O_R   0.940620 0.073440 0.986760 -0.526637
O45   O     O_R   0.440620 0.426560 0.986760 -0.516872
O46   O     O_R   0.559380 0.573440 0.013240 -0.516671
O47   O     O_R   0.559380 0.426560 0.013240 -0.527510
O48   O     O_R   0.440620 0.573440 0.986760 -0.527081
N1    N     N_R   0.231784 0.499361 0.565856 0.153747
O49   O     O_R   0.281817 0.498518 0.504747 -0.324479
O50   O     O_R   0.220435 0.509048 0.649275 -0.343780
N2    N     N_R   0.768276 0.499390 0.434087 0.153496
O51   O     O_R   0.779718 0.509174 0.350625 -0.343384
O52   O     O_R   0.718216 0.498424 0.495087 -0.324420
N3    N     N_R   0.731781 0.999361 0.565862 0.153750
O53   O     O_R   0.781815 0.998517 0.504757 -0.324514
O54   O     O_R   0.720430 0.009054 0.649281 -0.343906
N4    N     N_R   0.268274 0.999390 0.434093 0.153490
O55   O     O_R   0.279711 0.009174 0.350633 -0.343511
O56   O     O_R   0.218215 0.998425 0.495099 -0.324401
N5    N     N_R   0.129061 0.852186 0.035513 0.126852
O57   O     O_R   0.107675 0.805674 0.099453 -0.347532
O58   O     O_R   0.142740 0.913934 0.052756 -0.326236
N6    N     N_R   0.872556 0.150409 0.963222 0.127297
O59   O     O_R   0.858089 0.089996 0.943837 -0.327705
O60   O     O_R   0.897042 0.196843 0.900061 -0.345288
N7    N     N_R   0.877641 0.841807 0.959267 0.123742
O61   O     O_R   0.922282 0.813558 0.900342 -0.359599
O62   O     O_R   0.849838 0.881557 0.932674 -0.320108
N8    N     N_R   0.122266 0.158315 0.040803 0.123730
O63   O     O_R   0.150076 0.118592 0.067411 -0.318956
O64   O     O_R   0.077600 0.186518 0.099713 -0.356436
N9    N     N_R   0.629468 0.352835 0.035187 0.126846
O65   O     O_R   0.608248 0.306440 0.099313 -0.347361
O66   O     O_R   0.643081 0.414741 0.052119 -0.326027
N10   N     N_R   0.371177 0.648199 0.964285 0.126845
O67   O     O_R   0.357442 0.586562 0.946835 -0.326416
O68   O     O_R   0.392727 0.694768 0.900451 -0.346123
N11   N     N_R   0.377600 0.341873 0.959294 0.123908
O69   O     O_R   0.422226 0.313616 0.900334 -0.359790
O70   O     O_R   0.349790 0.381652 0.932747 -0.318790
N12   N     N_R   0.622292 0.658275 0.040787 0.123777
O71   O     O_R   0.650105 0.618538 0.067373 -0.318579
O72   O     O_R   0.577635 0.686487 0.099713 -0.356647

loop_
_geom_bond_atom_site_label_1
_geom_bond_atom_site_label_2
_geom_bond_distance
_ccdc_geom_bond_type
C118  C126  1.404219 A    
Cu2   Cu5   2.684250 S    
C33   C53   1.417565 A    
C99   C107  1.422546 A    
C10   C39   1.494046 S    
C93   C133  1.404266 A    
C16   C41   1.494497 S    
C73   C86   1.404552 A    
Cu10  O46   1.971984 S    
N10   O67   1.301343 A    
O35   C141  1.307244 A    
C101  C109  1.396650 A    
C76   C87   1.403181 A    
C58   H6    1.077933 S    
Cu11  O41   1.971984 S    
Cu6   O22   1.959423 S    
C6    O22   1.290998 A    
N3    O54   1.300834 A    
C34   C52   1.411744 A    
C21   C23   1.417877 A    
O37   Cu9   1.971669 S    
C22   C24   1.408973 A    
Cu11  Cu12  2.684688 S    
N6    O59   1.301656 A    
N11   O70   1.301178 A    
O3    Cu3   1.972756 S    
C80   C88   1.395845 A    
C83   H31   1.083316 S    
C57   C65   1.387336 A    
C126  H42   1.083851 S    
C79   H27   1.083316 S    
C43   C48   1.414974 A    
C120  C128  1.403173 A    
C36   C44   1.427502 A    
C78   C86   1.395782 A    
C33   C41   1.434647 A    
C14   C43   1.494048 S    
C107  C145  1.475576 S    
C94   C102  1.421320 A    
C76   C140  1.476644 S    
C35   C55   1.417561 A    
O40   C146  1.307232 A    
C141  O41   1.288523 A    
C28   C61   1.395895 A    
C53   C61   1.387338 A    
C132  H48   1.083893 S    
C3    O19   1.290659 A    
C145  O45   1.288511 A    
C84   C92   1.395856 A    
C101  C143  1.473735 S    
C82   H30   1.083190 S    
O12   Cu4   1.955235 S    
O13   Cu5   1.955648 S    
C19   C51   1.423642 A    
C93   N5    1.434523 S    
C77   C85   1.395509 A    
C98   C106  1.421796 A    
C97   C105  1.422037 A    
C12   C37   1.494498 S    
C103  C111  1.396564 A    
Cu9   O45   1.971984 S    
C104  C112  1.396572 A    
C98   C138  1.404243 A    
C26   C63   1.395759 A    
O2    C13   1.311895 A    
C17   C21   1.410933 A    
C71   C135  1.476617 S    
C58   C66   1.391662 A    
C9    C40   1.492767 S    
C129  H45   1.083872 S    
C11   C38   1.493105 S    
Cu3   O19   1.958526 S    
C36   C56   1.415819 A    
C81   C89   1.395480 A    
O10   Cu2   1.955648 S    
C97   N9    1.434524 S    
O34   C144  1.306808 A    
O4    Cu4   1.972758 S    
O5    Cu5   1.971119 S    
C54   C62   1.391664 A    
Cu12  O43   1.974351 S    
C110  H34   1.083339 S    
C45   N1    1.436601 S    
C127  C135  1.396425 A    
H19   C92   1.083021 S    
Cu9   O48   1.974348 S    
C29   C37   1.434650 A    
H17   C90   1.083086 S    
O32   C16   1.292773 A    
C35   C43   1.434299 A    
C102  C110  1.396638 A    
C31   C39   1.434296 A    
C114  C122  1.394688 A    
C100  N12   1.434900 S    
H22   C85   1.083088 S    
O7    C12   1.309255 A    
C8    C119  1.466181 S    
Cu2   O26   1.976461 S    
C113  C121  1.394602 A    
O40   Cu9   1.969615 S    
C74   C138  1.473234 S    
N1    O49   1.302829 A    
C73   C137  1.473436 S    
C20   C27   1.410705 A    
C112  C120  1.394072 A    
O33   Cu11  1.971669 S    
C102  C144  1.473674 S    
O28   C12   1.292769 A    
O16   C3    1.299882 A    
C71   C79   1.402981 A    
C37   C45   1.414878 A    
Cu9   Cu10  2.684688 S    
C130  C138  1.395445 A    
C123  C131  1.403127 A    
C29   C49   1.416455 A    
C121  C129  1.403990 A    
H21   C86   1.083066 S    
Cu4   O28   1.977927 S    
C55   C63   1.387188 A    
Cu5   O29   1.976461 S    
C20   C52   1.423668 A    
C60   C68   1.391523 A    
H24   C87   1.083017 S    
C143  O43   1.287354 A    
Cu8   O32   1.977927 S    
C2    C121  1.466115 S    
O37   C147  1.307102 A    
C116  C124  1.394068 A    
O35   Cu12  1.969615 S    
C132  C140  1.396485 A    
C98   N10   1.434516 S    
C106  C114  1.396651 A    
C72   C136  1.476643 S    
Cu4   Cu7   2.682876 S    
C66   H14   1.082091 S    
Cu1   O17   1.959422 S    
C46   N2    1.436604 S    
N4    O56   1.302828 A    
O9    C6    1.300543 A    
O26   C10   1.293320 A    
O11   C8    1.299886 A    
O12   C7    1.299879 A    
O39   Cu10  1.969615 S    
O13   C2    1.300570 A    
C47   N3    1.436599 S    
C104  C142  1.475545 S    
C96   C104  1.422529 A    
Cu11  O44   1.974348 S    
C4    C123  1.466174 S    
C114  H38   1.083341 S    
N2    O51   1.300813 A    
N9    O66   1.301399 A    
C131  H47   1.083907 S    
O1    Cu1   1.971119 S    
C70   C89   1.404330 A    
Cu10  O47   1.974351 S    
O14   Cu6   1.955648 S    
Cu7   O31   1.977927 S    
N10   O68   1.300696 A    
C32   C40   1.427505 A    
C83   C91   1.395926 A    
C19   C25   1.410933 A    
C31   C50   1.416170 A    
C126  C134  1.395613 A    
C42   C48   1.408230 A    
O8    Cu8   1.972758 S    
C95   C103  1.422543 A    
C36   C51   1.411508 A    
C125  H41   1.083868 S    
N6    O60   1.301961 A    
C5    C118  1.466481 S    
C96   N8    1.434901 S    
N8    O63   1.301181 A    
C53   H1    1.074194 S    
C29   C57   1.417568 A    
C18   C22   1.406883 A    
Cu12  O42   1.971984 S    
C34   C54   1.415894 A    
C117  C125  1.403987 A    
N7    O61   1.301170 A    
C60   H8    1.078014 S    
C67   H15   1.082945 S    
C69   C90   1.404456 A    
C94   C134  1.403911 A    
N3    O53   1.302828 A    
C82   C90   1.395573 A    
O11   Cu3   1.955235 S    
C17   C49   1.423642 A    
O36   C142  1.307227 A    
C73   C81   1.399930 A    
C30   C38   1.428006 A    
C68   H16   1.082093 S    
C99   N11   1.434907 S    
C59   H7    1.074239 S    
C107  C115  1.396560 A    
O6    Cu6   1.971117 S    
C115  C123  1.394063 A    
C105  C113  1.396614 A    
C75   C139  1.476611 S    
N12   O71   1.301183 A    
O38   Cu10  1.971666 S    
O25   C9    1.291817 A    
C7    C120  1.466384 S    
C108  C116  1.396570 A    
O38   C148  1.306987 A    
C96   C136  1.407382 A    
C109  H33   1.083346 S    
C25   C27   1.417878 A    
O36   Cu11  1.969615 S    
C69   C133  1.473215 S    
C112  H36   1.083339 S    
H18   C89   1.083103 S    
C100  C108  1.422534 A    
C20   C26   1.406883 A    
N5    O57   1.300676 A    
C129  C137  1.395361 A    
C34   C42   1.428009 A    
Cu3   O27   1.977927 S    
C142  O42   1.288518 A    
C22   C67   1.395765 A    
C146  O46   1.288510 A    
C54   H2    1.077931 S    
C40   C45   1.408403 A    
C70   C78   1.399948 A    
N11   O69   1.301167 A    
O30   C14   1.293317 A    
C127  H43   1.083907 S    
C23   C66   1.399571 A    
C18   C50   1.423663 A    
C95   C135  1.407418 A    
C41   C47   1.414879 A    
Cu6   O30   1.976461 S    
C99   C139  1.407406 A    
C75   C88   1.403141 A    
C13   C44   1.492766 S    
O4    C15   1.311951 A    
C97   C137  1.404354 A    
O5    C10   1.309281 A    
C128  C136  1.396490 A    
C94   N6    1.434103 S    
C79   C87   1.395920 A    
C59   C67   1.387189 A    
C69   C77   1.399922 A    
Cu1   Cu6   2.684250 S    
C61   H9    1.082949 S    
C78   H26   1.083177 S    
Cu3   Cu8   2.682876 S    
C72   C80   1.402943 A    
C100  C140  1.407376 A    
O10   C5    1.300526 A    
O27   C11   1.291087 A    
O15   C4    1.299889 A    
C105  C147  1.473823 S    
C31   C59   1.417561 A    
C109  C117  1.394664 A    
O14   C1    1.300521 A    
Cu4   O20   1.958524 S    
Cu5   O21   1.959422 S    
C4    O20   1.290651 A    
C80   H28   1.083291 S    
C5    O21   1.291035 A    
C84   H32   1.083291 S    
C39   C46   1.414974 A    
C64   H12   1.082091 S    
C72   C91   1.403188 A    
C147  O47   1.287286 A    
C26   C28   1.408975 A    
O2    Cu2   1.971117 S    
C71   C92   1.403146 A    
O34   Cu12  1.971666 S    
C110  C118  1.394791 A    
C44   C47   1.408405 A    
C76   C84   1.402945 A    
C77   H25   1.083193 S    
C24   C65   1.395895 A    
C56   H4    1.078015 S    
C75   C83   1.402978 A    
N7    O62   1.301182 A    
C74   C82   1.399948 A    
O33   C143  1.307005 A    
O7    Cu7   1.972756 S    
C93   C101  1.421845 A    
C21   C68   1.399496 A    
C2    O18   1.290936 A    
C62   H10   1.082091 S    
C81   H29   1.083198 S    
C38   C46   1.408230 A    
O15   Cu7   1.955235 S    
C128  H44   1.083892 S    
C131  C139  1.396418 A    
C124  C132  1.403177 A    
C30   C50   1.411744 A    
C122  C130  1.404038 A    
C3    C124  1.466378 S    
C56   C64   1.391524 A    
C33   C51   1.416455 A    
N2    O52   1.302827 A    
C1    C122  1.466372 S    
C95   N7    1.434912 S    
C70   C134  1.473150 S    
N9    O65   1.300763 A    
H20   C91   1.083017 S    
C111  C119  1.394062 A    
N1    O50   1.300834 A    
O1    C14   1.309285 A    
C19   C28   1.406693 A    
O3    C16   1.309250 A    
C119  C127  1.403125 A    
C65   H13   1.082949 S    
C15   C42   1.493108 S    
Cu2   O18   1.959423 S    
O8    C11   1.311951 A    
C35   C52   1.416171 A    
C106  C148  1.473708 S    
O9    Cu1   1.955648 S    
N8    O64   1.301161 A    
C57   H5    1.074192 S    
C17   C24   1.406695 A    
O31   C15   1.291088 A    
C32   C60   1.415820 A    
C18   C23   1.410706 A    
C103  C141  1.475588 S    
C144  O44   1.287592 A    
C115  H39   1.083346 S    
C63   H11   1.082947 S    
C113  H37   1.083359 S    
C111  H35   1.083345 S    
C148  O48   1.287366 A    
C130  H46   1.083857 S    
N5    O58   1.301343 A    
C55   H3    1.074234 S    
C32   C49   1.411512 A    
C74   C85   1.404434 A    
C48   N4    1.436606 S    
Cu7   O23   1.958526 S    
C125  C133  1.395388 A    
Cu8   O24   1.958524 S    
C7    O23   1.290665 A    
N12   O72   1.301161 A    
C8    O24   1.290657 A    
O6    C9    1.311898 A    
H23   C88   1.083020 S    
Cu1   O25   1.976461 S    
N4    O55   1.300813 A    
O29   C13   1.291818 A    
C6    C117  1.466183 S    
C116  H40   1.083340 S    
O16   Cu8   1.955235 S    
C1    O17   1.291007 A    
C25   C64   1.399498 A    
O39   C145  1.307252 A    
C30   C58   1.415892 A    
C27   C62   1.399569 A    
C108  C146  1.475544 S    
