data_mof_unit_48493.cif
_audit_creation_date              2012-12-11T14:37:56-0500
_audit_creation_method            fapswitch 2.2
_symmetry_space_group_name_H-M    P1
_symmetry_Int_Tables_number       1
_space_group_crystal_system       triclinic
_cell_length_a                    14.516735
_cell_length_b                    15.838851
_cell_length_c                    6.955635
_cell_angle_alpha                 89.999034
_cell_angle_beta                  80.525292
_cell_angle_gamma                 89.999952
_cell_volume                      1577.4810002

loop_
_atom_site_label
_atom_site_type_symbol
_atom_type_description
_atom_site_fract_x
_atom_site_fract_y
_atom_site_fract_z
_atom_type_partial_charge
O1    O     O_R   0.337080 0.165770 0.524980 -0.535341
O2    O     O_R   0.662920 0.834230 0.475020 -0.532427
O3    O     O_R   0.662920 0.665770 0.475020 -0.535373
O4    O     O_R   0.337080 0.334230 0.524980 -0.532467
O5    O     O_R   0.348340 0.341430 0.191390 -0.549294
O6    O     O_R   0.651660 0.658570 0.808610 -0.547120
O7    O     O_R   0.651660 0.841430 0.808610 -0.549336
O8    O     O_R   0.348340 0.158570 0.191390 -0.547144
O9    O     O_R   0.165780 0.339950 0.082750 -0.541839
O10   O     O_R   0.834220 0.660050 0.917250 -0.540551
O11   O     O_R   0.834220 0.839950 0.917250 -0.541824
O12   O     O_R   0.165780 0.160050 0.082750 -0.540551
C1    C     C_R   0.370165 0.364550 0.355679 0.660457
C2    C     C_R   0.629939 0.635420 0.644300 0.650361
C3    C     C_R   0.629836 0.864550 0.644319 0.660468
C4    C     C_R   0.370060 0.135419 0.355703 0.650420
O13   O     O_3   0.191540 0.250000 0.407620 -0.359642
O14   O     O_3   0.808460 0.750000 0.592380 -0.359643
V1    V     V_3+5 0.262540 0.250000 0.108780 1.484325
V2    V     V_3+5 0.737460 0.750000 0.891220 1.484342
O15   O     O_R   0.154530 0.164290 0.756910 -0.529835
O16   O     O_R   0.845470 0.835710 0.243090 -0.527926
O17   O     O_R   0.845470 0.664290 0.243090 -0.529873
O18   O     O_R   0.154530 0.335710 0.756910 -0.527943
C5    C     C_R   0.132705 0.133273 0.932044 0.783262
C6    C     C_R   0.867702 0.866426 0.067821 0.775882
C7    C     C_R   0.867294 0.633272 0.067958 0.783145
C8    C     C_R   0.132298 0.366426 0.932177 0.775777
V3    V     V_3+5 0.240320 0.250000 0.616280 1.509410
V4    V     V_3+5 0.759680 0.750000 0.383720 1.509381
O19   O     O_3   0.311330 0.250000 0.867310 -0.387238
O20   O     O_3   0.688670 0.750000 0.132690 -0.387212
C9    C     C_3   0.039479 0.486933 0.160895 -0.274674
C10   C     C_3   0.959494 0.512377 0.839226 -0.265247
C11   C     C_3   0.960499 0.986958 0.839125 -0.274695
C12   C     C_3   0.040529 0.012354 0.160754 -0.265226
C13   C     C_3   0.041533 0.569331 0.041272 0.147253
C14   C     C_3   0.957565 0.429984 0.958599 0.154052
C15   C     C_3   0.958462 0.069339 0.958798 0.147192
C16   C     C_3   0.042442 0.929977 0.041332 0.154006
H1    H     H_    0.072146 0.477912 0.292903 0.204926
H2    H     H_    0.926819 0.521371 0.707193 0.203201
H3    H     H_    0.927815 0.977955 0.707137 0.204991
H4    H     H_    0.073222 0.021328 0.292766 0.203260
C17   C     C_3   0.936794 0.562305 0.034244 -0.181595
C18   C     C_3   0.062316 0.437053 0.965729 -0.186700
C19   C     C_3   0.063207 0.062306 0.965763 -0.181581
C20   C     C_3   0.937685 0.937053 0.034265 -0.186715
C21   C     C_3   0.933636 0.479015 0.150930 0.413430
C22   C     C_3   0.065298 0.520306 0.848939 0.404952
C23   C     C_3   0.066348 0.979033 0.849028 0.413463
C24   C     C_3   0.934719 0.020289 0.151105 0.404940
C25   C     C_2   0.579355 0.443715 0.462216 0.272086
C26   C     C_2   0.369152 0.558284 0.726675 0.343512
C27   C     C_2   0.420844 0.943587 0.537473 0.271843
C28   C     C_2   0.630882 0.058461 0.273236 0.343446
C29   C     C_2   0.510600 0.467712 0.606133 0.084494
C30   C     C_2   0.437792 0.534347 0.582654 0.094144
C31   C     C_2   0.489512 0.967758 0.393554 0.084678
C32   C     C_2   0.562261 0.034424 0.417199 0.094255
N1    N     N_3   0.354355 0.524956 0.920007 -0.717077
H5    H     H_    0.354259 0.576392 0.013924 0.236245
H6    H     H_    0.286978 0.499717 0.945071 0.241534
N2    N     N_3   0.592956 0.476160 0.268086 -0.721660
H7    H     H_    0.593813 0.424198 0.175416 0.237574
H8    H     H_    0.659680 0.502726 0.241481 0.265806
N3    N     N_3   0.645724 0.025206 0.079837 -0.717131
H9    H     H_    0.645753 0.076670 0.986017 0.236289
H10   H     H_    0.713131 0.000035 0.054723 0.241564
N4    N     N_3   0.407304 0.975843 0.731765 -0.721791
H11   H     H_    0.406633 0.923802 0.824149 0.237544
H12   H     H_    0.340524 0.002285 0.758710 0.265865
N5    N     N_3   0.438020 0.576941 0.400645 -0.652849
H13   H     H_    0.430095 0.532538 0.293704 0.251725
H14   H     H_    0.501090 0.609208 0.362284 0.255232
N6    N     N_3   0.510913 0.426143 0.788973 -0.663699
H15   H     H_    0.518429 0.471481 0.894361 0.256035
H16   H     H_    0.448036 0.393529 0.827462 0.274146
N7    N     N_3   0.561976 0.076961 0.599294 -0.652874
H17   H     H_    0.570010 0.032535 0.706120 0.251801
H18   H     H_    0.498842 0.109114 0.637772 0.255192
N8    N     N_3   0.489156 0.926353 0.210542 -0.663779
H19   H     H_    0.481601 0.971787 0.105380 0.256075
H20   H     H_    0.552037 0.893768 0.171838 0.274165
N9    N     N_3   0.088191 0.646580 0.085345 -0.579451
H21   H     H_    0.158449 0.631825 0.084117 0.261447
H22   H     H_    0.060457 0.663538 0.228374 0.251426
N10   N     N_3   0.911095 0.352669 0.914267 -0.578312
H23   H     H_    0.840885 0.367368 0.914693 0.267709
H24   H     H_    0.939170 0.335622 0.771479 0.249641
N11   N     N_3   0.911801 0.146599 0.914809 -0.579457
H25   H     H_    0.841527 0.131863 0.916183 0.261417
H26   H     H_    0.939481 0.163549 0.771743 0.251458
N12   N     N_3   0.088917 0.852652 0.085583 -0.578290
H27   H     H_    0.159133 0.867342 0.085104 0.267718
H28   H     H_    0.060865 0.835593 0.228377 0.249643
Cl1   Cl    Cl    0.846530 0.449466 0.350737 -0.682292
Cl2   Cl    Cl    0.150409 0.549847 0.645862 -0.679323
Cl3   Cl    Cl    0.153442 0.949510 0.649175 -0.682242
Cl4   Cl    Cl    0.849624 0.049805 0.354232 -0.679368

loop_
_geom_bond_atom_site_label_1
_geom_bond_atom_site_label_2
_ccdc_geom_bond_type
O10   C7    A    
C32   N7    S    
C27   C31   D    
O13   V3    S    
N5    H13   S    
C10   H2    S    
C31   N8    S    
V1    O19   S    
C14   C21   S    
N9    H21   S    
C8    C18   S    
C29   N6    S    
C13   N9    S    
N6    H16   S    
C26   C30   D    
C25   N2    S    
N11   H26   S    
C9    C21   S    
C12   C19   S    
O4    C1    A    
N1    H6    S    
O18   V3    S    
O9    V1    S    
O10   V2    S    
N4    H11   S    
O14   V4    S    
O17   C7    A    
C11   H3    S    
C5    C19   S    
O5    C1    A    
O4    V3    S    
C12   C24   S    
C6    C20   S    
C7    C17   S    
O7    C3    A    
C15   C24   S    
C31   C32   S    
O8    C4    A    
C9    C18   S    
N5    H14   S    
N12   H27   S    
C11   C20   S    
C15   N11   S    
N9    H22   S    
C23   Cl3   S    
O11   V2    S    
C10   C22   S    
O8    V1    S    
C22   Cl2   S    
N3    H9    S    
O17   V4    S    
C12   C16   S    
N6    H15   S    
N11   H25   S    
C10   C17   S    
C25   C29   D    
C19   C23   S    
O11   C6    A    
C15   C19   S    
O15   V3    S    
C24   Cl4   S    
C9    C13   S    
C28   C32   D    
C14   N10   S    
N3    H10   S    
N2    H8    S    
O3    V4    S    
C11   C15   S    
O6    C2    A    
C17   C21   S    
O1    V3    S    
O1    C4    A    
N12   H28   S    
O2    C3    A    
O3    C2    A    
N10   H24   S    
O7    V2    S    
N8    H20   S    
C11   C23   S    
C12   H4    S    
C13   C17   S    
C28   N3    S    
N7    H18   S    
V2    O20   S    
C16   C20   S    
O15   C5    A    
O16   V4    S    
C10   C14   S    
O18   C8    A    
C16   N12   S    
O5    V1    S    
C26   N1    S    
C16   C23   S    
O6    V2    S    
C18   C22   S    
O12   C5    A    
O2    V4    S    
C9    H1    S    
N2    H7    S    
V3    O19   S    
V4    O20   S    
C13   C22   S    
C29   C30   S    
O12   V1    S    
O13   V1    S    
O14   V2    S    
N1    H5    S    
C14   C18   S    
C27   N4    S    
C21   Cl1   S    
N7    H17   S    
C20   C24   S    
N10   H23   S    
O9    C8    A    
N8    H19   S    
O16   C6    A    
N4    H12   S    
C30   N5    S    
