data_mof_unit_32260.cif
_audit_creation_date              2012-10-26T19:58:20-0400
_audit_creation_method            fapswitch 2.2
_symmetry_space_group_name_H-M    P1
_symmetry_Int_Tables_number       1
_space_group_crystal_system       triclinic
_cell_length_a                    7.43207
_cell_length_b                    8.694345
_cell_length_c                    13.385602
_cell_angle_alpha                 94.028085
_cell_angle_beta                  77.339141
_cell_angle_gamma                 103.128831
_cell_volume                      821.657060462

loop_
_atom_site_label
_atom_site_type_symbol
_atom_type_description
_atom_site_fract_x
_atom_site_fract_y
_atom_site_fract_z
_atom_type_partial_charge
C1    C     C_R   0.545259 0.800189 0.503112 0.574172
C2    C     C_R   0.336606 0.499111 0.806846 0.009642
C3    C     C_2   0.570731 0.968044 0.504727 -0.136646
C4    C     C_R   0.399567 0.499330 0.694478 0.594634
C5    C     C_2   0.429058 0.031942 0.495671 -0.152690
C6    C     C_R   0.454642 0.199812 0.497067 0.544949
C7    C     C_R   0.601735 0.510927 0.305760 0.532678
C8    C     C_R   0.877988 0.681488 0.053497 -0.125690
C9    C     C_R   0.662886 0.537048 0.195380 -0.004632
C10   C     C_R   0.152720 0.417299 0.848639 -0.143714
C11   C     C_R   0.099046 0.385154 0.952248 -0.132557
C12   C     C_R   0.417430 0.509570 0.975493 -0.017075
C13   C     C_R   0.230037 0.426736 0.014770 -0.117352
C14   C     C_R   0.464203 0.560142 0.872553 0.029644
C15   C     C_R   0.558883 0.546210 0.035412 0.010369
C16   C     C_R   0.737530 0.643910 0.995095 -0.013926
C17   C     C_R   0.771419 0.708737 0.898784 -0.097961
C18   C     C_R   0.635442 0.671523 0.839252 0.365605
C19   C     C_R   0.528207 0.489297 0.134629 -0.116539
C20   C     C_R   0.840437 0.629146 0.153557 -0.135918
Cu1   Cu    Cu3+1 0.321300 0.483160 0.488710 0.962293
Cu2   Cu    Cu3+1 0.678700 0.516840 0.511290 1.013892
F1    F     F_    0.666613 0.755860 0.753178 -0.634730
H1    H     H_    0.946272 0.667080 0.199583 0.130509
H2    H     H_    0.956351 0.322576 0.983796 0.133390
H3    H     H_    0.707275 0.039399 0.513320 0.141123
H4    H     H_    0.292498 0.960576 0.487111 0.137123
H5    H     H_    0.010836 0.617749 0.579372 0.257460
H6    H     H_    0.989098 0.382202 0.420680 0.235443
H7    H     H_    0.902850 0.791569 0.870036 0.137859
H8    H     H_    0.014727 0.755876 0.022914 0.121850
H9    H     H_    0.398075 0.410374 0.168152 0.115935
H10   H     H_    0.051673 0.373033 0.800488 0.144985
H11   H     H_    0.178240 0.395652 0.093987 0.107864
N1    N     N_2   0.947230 0.542220 0.528320 -0.248283
N2    N     N_2   0.052770 0.457780 0.471680 -0.265741
O1    O     O_R   0.383920 0.714220 0.492660 -0.511764
O2    O     O_R   0.685730 0.742660 0.511730 -0.460879
O3    O     O_R   0.275440 0.478800 0.636790 -0.516654
O4    O     O_R   0.577250 0.507240 0.655860 -0.435530
O5    O     O_R   0.314270 0.257340 0.488270 -0.497761
O6    O     O_R   0.616080 0.285780 0.507340 -0.512079
O7    O     O_R   0.422750 0.492760 0.344140 -0.506895
O8    O     O_R   0.724560 0.521200 0.363210 -0.516401

loop_
_geom_bond_atom_site_label_1
_geom_bond_atom_site_label_2
_ccdc_geom_bond_type
Cu2   O6    S    
C2    C4    S    
C4    O3    A    
C4    O4    A    
Cu2   N1    S    
C7    O7    A    
C14   C18   A    
C9    C20   A    
N1    N2    D    
Cu1   O3    S    
C12   C15   A    
C1    O1    A    
Cu2   O4    S    
C17   C18   A    
C13   H11   S    
C8    C16   A    
Cu1   N2    S    
Cu1   O7    S    
C7    O8    A    
C15   C19   A    
C17   H7    S    
C11   C13   A    
H6    N2    S    
C8    C20   A    
C1    O2    A    
Cu1   O5    S    
C19   H9    S    
Cu1   Cu2   S    
C12   C14   A    
C10   H10   S    
C5    C6    S    
C2    C14   A    
C10   C11   A    
C11   H2    S    
C15   C16   A    
C2    C10   A    
C20   H1    S    
Cu1   O1    S    
C12   C13   A    
C6    O6    A    
C7    C9    S    
C3    C5    D    
C5    H4    S    
C8    H8    S    
C9    C19   A    
C3    H3    S    
Cu2   O8    S    
C18   F1    S    
H5    N1    S    
C16   C17   A    
C1    C3    S    
C6    O5    A    
Cu2   O2    S    
