data_mof_unit_40595.cif
_audit_creation_date              2012-12-10T16:59:15-0500
_audit_creation_method            fapswitch 2.2
_symmetry_space_group_name_H-M    P1
_symmetry_Int_Tables_number       1
_space_group_crystal_system       triclinic
_cell_length_a                    7.83572
_cell_length_b                    8.530949
_cell_length_c                    27.460393
_cell_angle_alpha                 90.217562
_cell_angle_beta                  85.107595
_cell_angle_gamma                 94.367486
_cell_volume                      1823.61534407

loop_
_atom_site_label
_atom_site_type_symbol
_atom_type_description
_atom_site_fract_x
_atom_site_fract_y
_atom_site_fract_z
_atom_type_partial_charge
C1    C     C_R   0.545242 0.794485 0.498521 0.910809
C2    C     C_R   0.454781 0.205464 0.501226 0.907135
C3    C     C_R   0.337709 0.561579 0.901330 -0.140195
C4    C     C_R   0.358551 0.587305 0.104986 -0.140044
C5    C     C_R   0.408924 0.684002 0.870176 -0.128336
C6    C     C_R   0.318565 0.449503 0.132667 -0.123852
C7    C     C_R   0.476506 0.825263 0.890233 0.254927
C8    C     C_R   0.221512 0.321858 0.113885 0.235545
C9    C     C_R   0.282553 0.416170 0.881084 -0.117239
C10   C     C_R   0.430752 0.722882 0.127813 -0.125129
C11   C     C_R   0.489326 0.473968 0.647700 -0.300094
C12   C     C_R   0.492522 0.511366 0.352602 -0.308644
C13   C     C_R   0.409232 0.718130 0.025216 0.038902
C14   C     C_R   0.232852 0.459631 0.982143 0.031618
C15   C     C_R   0.246727 0.454921 0.033381 -0.009754
C16   C     C_R   0.398685 0.718457 0.973589 -0.007186
C17   C     C_R   0.333911 0.588118 0.054504 0.068657
C18   C     C_R   0.324146 0.580449 0.952634 0.070206
C19   C     C_R   0.511756 0.834005 0.048131 -0.210690
C20   C     C_R   0.128514 0.348709 0.958270 -0.204443
C21   C     C_R   0.508002 0.847372 0.098548 0.440687
C22   C     C_R   0.167541 0.312809 0.909510 0.452896
C23   C     C_R   0.499405 0.494151 0.594161 0.951167
C24   C     C_R   0.498753 0.501011 0.405873 0.946256
C25   C     C_R   0.460800 0.847742 0.941392 0.085718
C26   C     C_R   0.190753 0.319289 0.064040 0.092697
C27   C     C_2   0.560428 0.955959 0.488663 0.126014
C28   C     C_2   0.439644 0.043827 0.510791 0.133530
C29   C     C_R   0.405544 0.659053 0.819475 0.659912
C30   C     C_R   0.382873 0.443798 0.178650 0.642226
C31   C     C_R   0.337473 0.386120 0.832377 0.629810
C32   C     C_R   0.435881 0.720811 0.178941 0.636105
C33   C     C_R   0.301930 0.411066 0.721843 0.179827
C34   C     C_R   0.603408 0.617982 0.272684 0.179318
C35   C     C_R   0.336937 0.398853 0.671274 0.304200
C36   C     C_R   0.623663 0.596269 0.322624 0.330824
C37   C     C_R   0.618567 0.540003 0.676064 0.091546
C38   C     C_R   0.342946 0.449722 0.332191 0.097197
C39   C     C_R   0.588929 0.539981 0.727228 0.374027
C40   C     C_R   0.312452 0.492985 0.285134 0.392206
C41   C     C_R   0.427674 0.483416 0.750083 0.012462
C42   C     C_R   0.444785 0.570320 0.254244 0.003473
H1    H     H_    0.607922 0.908333 0.027571 0.209239
H2    H     H_    0.013928 0.292283 0.976631 0.206848
N1    N     N_R   0.389557 0.509142 0.801632 -0.335210
N2    N     N_R   0.422997 0.579856 0.202862 -0.337816
N3    N     N_2   0.950320 0.457960 0.486880 0.134339
N4    N     N_2   0.049680 0.542040 0.513120 0.137381
O1    O     O_R   0.389250 0.738570 0.503220 -0.582327
O2    O     O_R   0.610750 0.261430 0.496780 -0.580915
O3    O     O_R   0.678390 0.711630 0.494810 -0.551220
O4    O     O_R   0.321610 0.288370 0.505190 -0.548745
O5    O     O_R   0.355440 0.513440 0.575450 -0.559143
O6    O     O_R   0.644560 0.486560 0.424550 -0.550049
O7    O     O_R   0.644590 0.486500 0.567040 -0.603576
O8    O     O_R   0.355410 0.513500 0.432960 -0.616271
O9    O     O_2   0.414945 0.781283 0.788171 -0.448375
O10   O     O_2   0.408701 0.304683 0.198912 -0.440674
O11   O     O_2   0.454791 0.855702 0.204307 -0.420986
O12   O     O_2   0.339796 0.237152 0.815955 -0.439245
Zn1   Zn    Zn3+2 0.306940 0.517990 0.505620 1.178068
Zn2   Zn    Zn3+2 0.693060 0.482010 0.494380 1.183529
I1    I     I_    0.854073 0.652975 0.643734 0.023919
I2    I     I_    0.173835 0.269245 0.367971 0.043910
Cl1   Cl    Cl    0.985312 0.261363 0.487444 -0.324977
Cl2   Cl    Cl    0.007971 0.736866 0.517473 -0.328108
Cl3   Cl    Cl    0.751452 0.619162 0.763227 -0.488359
Cl4   Cl    Cl    0.107107 0.447010 0.264465 -0.469896
I3    I     I_    0.638502 0.991898 0.844674 0.065780
I4    I     I_    0.092006 0.146882 0.164098 0.052010
Cl5   Cl    Cl    0.812047 0.678731 0.347054 -0.410354
Cl6   Cl    Cl    0.186919 0.286460 0.637825 -0.418481
I5    I     I_    0.815263 0.715948 0.225100 -0.007021
I6    I     I_    0.049748 0.332635 0.753251 0.031612
Cl7   Cl    Cl    0.629359 0.009446 0.121698 -0.461548
Cl8   Cl    Cl    0.054928 0.148063 0.885315 -0.471408
I7    I     I_    0.496284 0.091845 0.962835 -0.251707
I8    I     I_    0.091198 0.088224 0.040705 -0.228959
Cl9   Cl    Cl    0.694704 0.014112 0.435396 -0.436101
Cl10  Cl    Cl    0.305560 0.984781 0.563963 -0.419461

loop_
_geom_bond_atom_site_label_1
_geom_bond_atom_site_label_2
_ccdc_geom_bond_type
C8    C26   A    
C14   C18   A    
C34   C42   A    
C22   Cl8   S    
N3    Zn2   S    
C39   C41   A    
C26   I8    S    
C25   I7    S    
C19   C21   A    
C27   Cl9   S    
O4    Zn1   S    
C9    C22   A    
C24   O6    A    
O7    Zn2   S    
C3    C18   A    
C42   N2    S    
C11   C37   A    
C2    O2    A    
C37   I1    S    
O5    Zn1   S    
C12   C36   A    
C5    C29   A    
C36   Cl5   S    
C40   C42   A    
O3    Zn2   S    
C39   Cl3   S    
C20   H2    S    
C19   H1    S    
C23   O5    A    
C38   I2    S    
C10   C21   A    
O1    Zn1   S    
C13   C19   A    
C14   C20   A    
C4    C6    A    
C5    C7    A    
C15   C26   A    
C6    C8    A    
O6    Zn2   S    
C29   N1    A    
C31   O12   S    
C3    C9    A    
N3    N4    D    
C1    O3    A    
C2    O4    A    
C4    C17   A    
C6    C30   A    
C29   O9    S    
C35   Cl6   S    
C31   N1    A    
O2    Zn2   S    
C4    C10   A    
C16   C25   A    
C15   C17   A    
C21   Cl7   S    
C14   C15   A    
C32   N2    A    
C30   N2    A    
C20   C22   A    
C3    C5    A    
C7    I3    S    
C23   O7    A    
C24   O8    A    
C12   C24   S    
C8    I4    S    
C7    C25   A    
C13   C17   A    
C33   C41   A    
C11   C35   A    
C37   C39   A    
C38   C40   A    
N4    Zn1   S    
C30   O10   S    
C11   C23   S    
C33   C35   A    
C34   C36   A    
C12   C38   A    
C28   Cl10  S    
C9    C31   A    
C34   I5    S    
C10   C32   A    
C33   I6    S    
C16   C18   A    
C40   Cl4   S    
C13   C16   A    
C27   C28   D    
C1    C27   S    
C41   N1    S    
O8    Zn1   S    
C2    C28   S    
C32   O11   S    
N4    Cl2   S    
C1    O1    A    
N3    Cl1   S    
