data_mof_unit_40179.cif
_audit_creation_date              2013-03-05T15:41:35-0500
_audit_creation_method            fapswitch 2.2
_symmetry_space_group_name_H-M    P1
_symmetry_Int_Tables_number       1
_space_group_crystal_system       triclinic
_cell_length_a                    24.782232
_cell_length_b                    17.599541
_cell_length_c                    15.722711
_cell_angle_alpha                 89.873353
_cell_angle_beta                  129.754547
_cell_angle_gamma                 90.305882
_cell_volume                      5271.94423831

loop_
_atom_site_label
_atom_site_type_symbol
_atom_site_description
_atom_site_fract_x
_atom_site_fract_y
_atom_site_fract_z
_atom_type_partial_charge
C1    C     C_R   0.344378 0.366885 0.230295 -0.090764
C2    C     C_R   0.340331 0.625178 0.215120 -0.122173
C3    C     C_R   0.838657 0.877871 0.213084 -0.150710
C4    C     C_R   0.843544 0.130808 0.224633 -0.082282
H1    H     H_    0.295474 0.356451 0.213866 0.144713
H2    H     H_    0.287897 0.631344 0.186891 0.166212
H3    H     H_    0.785336 0.876125 0.182573 0.160753
H4    H     H_    0.794651 0.142759 0.207333 0.149031
N1    N     N_R   0.389430 0.421450 0.294590 -0.068017
N2    N     N_R   0.389430 0.578550 0.294590 -0.071521
N3    N     N_R   0.889430 0.921450 0.294590 -0.068879
N4    N     N_R   0.889430 0.078550 0.294590 -0.066772
C5    C     C_R   0.665403 0.386369 0.792946 -0.101940
C6    C     C_R   0.658403 0.629063 0.773220 -0.131845
C7    C     C_R   0.163774 0.881462 0.786443 -0.140191
C8    C     C_R   0.163781 0.118695 0.788992 -0.113930
H5    H     H_    0.716161 0.381424 0.815544 0.149058
H6    H     H_    0.708347 0.638818 0.792712 0.138351
H7    H     H_    0.212314 0.871806 0.801946 0.146548
H8    H     H_    0.217490 0.119527 0.821188 0.143877
N5    N     N_R   0.612200 0.424040 0.705410 -0.064386
N6    N     N_R   0.612200 0.575960 0.705410 -0.061341
N7    N     N_R   0.112200 0.924040 0.705410 -0.059818
N8    N     N_R   0.112200 0.075960 0.705410 -0.063641
C9    C     C_R   0.598548 0.364246 0.410965 -0.135032
C10   C     C_R   0.617472 0.597239 0.411195 -0.104430
C11   C     C_R   0.117272 0.903941 0.410746 -0.105610
C12   C     C_R   0.095344 0.139243 0.411197 -0.136438
H9    H     H_    0.577762 0.353173 0.328091 0.147941
H10   H     H_    0.599967 0.587033 0.329811 0.150091
H11   H     H_    0.099792 0.915165 0.329505 0.152065
H12   H     H_    0.073342 0.152277 0.328196 0.145875
N9    N     N_R   0.581780 0.422390 0.443390 -0.049989
N10   N     N_R   0.581780 0.577610 0.443390 -0.049801
N11   N     N_R   0.081780 0.922390 0.443390 -0.049786
N12   N     N_R   0.081780 0.077610 0.443390 -0.049757
C13   C     C_R   0.387126 0.398297 0.591491 0.039573
C14   C     C_R   0.406994 0.638114 0.589820 -0.044065
C15   C     C_R   0.911885 0.858963 0.591792 -0.041417
C16   C     C_R   0.885497 0.098761 0.589959 0.038852
H13   H     H_    0.407391 0.403372 0.674907 0.136279
H14   H     H_    0.435107 0.653822 0.673348 0.179256
H15   H     H_    0.941971 0.843927 0.676885 0.177291
H16   H     H_    0.903237 0.088971 0.671356 0.137218
N13   N     N_R   0.419850 0.423100 0.556610 -0.061781
N14   N     N_R   0.419850 0.576900 0.556610 -0.069062
N15   N     N_R   0.919850 0.923100 0.556610 -0.067680
N16   N     N_R   0.919850 0.076900 0.556610 -0.061249
C17   C     C_R   0.670224 0.365357 0.595316 -0.022542
C18   C     C_R   0.689735 0.600977 0.593806 -0.105243
C19   C     C_R   0.189644 0.899876 0.593272 -0.105581
C20   C     C_R   0.167174 0.137638 0.595262 -0.030337
H17   H     H_    0.711429 0.354911 0.680861 0.125726
H18   H     H_    0.736000 0.602614 0.679923 0.159615
H19   H     H_    0.235967 0.897991 0.679369 0.160466
H20   H     H_    0.207309 0.149369 0.680744 0.126421
N17   N     N_R   0.627410 0.423100 0.556610 -0.058805
N18   N     N_R   0.627410 0.576900 0.556610 -0.053747
N19   N     N_R   0.127410 0.923100 0.556610 -0.053688
N20   N     N_R   0.127410 0.076900 0.556610 -0.058250
C21   C     C_R   0.313945 0.392298 0.408441 -0.000045
C22   C     C_R   0.330549 0.634600 0.406556 0.006258
C23   C     C_R   0.836135 0.859930 0.408385 -0.011002
C24   C     C_R   0.813621 0.106499 0.407512 0.000595
H21   H     H_    0.266595 0.388861 0.323070 0.131893
H22   H     H_    0.287820 0.643250 0.321217 0.155826
H23   H     H_    0.796225 0.846673 0.323580 0.149813
H24   H     H_    0.766876 0.110496 0.321732 0.134087
N21   N     N_R   0.374220 0.422390 0.443390 -0.062098
N22   N     N_R   0.374220 0.577610 0.443390 -0.068267
N23   N     N_R   0.874220 0.922390 0.443390 -0.064779
N24   N     N_R   0.874220 0.077610 0.443390 -0.061159
C25   C     C_R   0.578522 0.389473 0.800615 0.261378
C26   C     C_R   0.573313 0.624664 0.786723 0.199633
C27   C     C_R   0.079678 0.889303 0.801098 0.210404
C28   C     C_R   0.073598 0.122707 0.789007 0.267936
N25   N     N_R   0.555000 0.424040 0.705410 -0.080852
N26   N     N_R   0.555000 0.575960 0.705410 -0.088626
N27   N     N_R   0.055000 0.924040 0.705410 -0.090771
N28   N     N_R   0.055000 0.075960 0.705410 -0.084017
C29   C     C_R   0.428747 0.370526 0.215398 0.187794
C30   C     C_R   0.429292 0.624367 0.211512 0.218745
C31   C     C_R   0.928651 0.873341 0.212633 0.216188
C32   C     C_R   0.929185 0.124900 0.212333 0.181103
N29   N     N_R   0.446630 0.421450 0.294590 -0.076480
N30   N     N_R   0.446630 0.578550 0.294590 -0.081745
N31   N     N_R   0.946630 0.921450 0.294590 -0.080290
N32   N     N_R   0.946630 0.078550 0.294590 -0.075848
C33   C     C_R   0.368610 0.331413 0.182628 0.082025
C34   C     C_R   0.365473 0.656958 0.166214 0.065537
C35   C     C_R   0.863609 0.842074 0.166969 0.094405
C36   C     C_R   0.868654 0.162653 0.175277 0.071450
C37   C     C_R   0.646832 0.364508 0.854880 -0.005751
C38   C     C_R   0.634565 0.661764 0.822763 0.006642
C39   C     C_R   0.146687 0.860773 0.850845 -0.011060
C40   C     C_R   0.139744 0.151769 0.837719 -0.001231
C41   C     C_R   0.653715 0.326880 0.505864 0.144286
C42   C     C_R   0.684518 0.615705 0.503188 0.110540
C43   C     C_R   0.184079 0.885300 0.502178 0.112858
C44   C     C_R   0.149541 0.177645 0.506245 0.153355
C45   C     C_R   0.321830 0.374723 0.501292 0.102596
C46   C     C_R   0.349537 0.674949 0.497300 0.077626
C47   C     C_R   0.856386 0.819294 0.499974 0.081637
C48   C     C_R   0.820596 0.123014 0.499567 0.102112
Ni1   Ni    Ni4+2 0.382890 0.500000 0.370170 0.263806
Ni2   Ni    Ni4+2 0.882890 0.000000 0.370170 0.267894
Ni3   Ni    Ni4+2 0.618740 0.500000 0.629830 0.251137
Ni4   Ni    Ni4+2 0.118740 0.000000 0.629830 0.249672
Ni5   Ni    Ni4+2 0.514090 0.500000 0.370170 0.264292
Ni6   Ni    Ni4+2 0.014090 0.000000 0.370170 0.265511
Ni7   Ni    Ni4+2 0.487550 0.500000 0.629830 0.278845
Ni8   Ni    Ni4+2 0.987550 0.000000 0.629830 0.278328
C49   C     C_3   0.294998 0.328538 0.622988 -0.023148
C50   C     C_3   0.347625 0.813581 0.547114 0.007899
C51   C     C_3   0.852335 0.682625 0.555343 0.011323
C52   C     C_3   0.795119 0.172494 0.621205 -0.023878
H25   H     H_    0.351379 0.317704 0.688591 0.164497
H26   H     H_    0.357288 0.835304 0.492451 0.182153
H27   H     H_    0.863606 0.657915 0.504393 0.186315
H28   H     H_    0.851882 0.182284 0.686406 0.166031
C53   C     C_3   0.804278 0.623443 0.554070 0.325713
C54   C     C_3   0.757636 0.237395 0.631644 0.293407
C55   C     C_3   0.255784 0.265173 0.633142 0.289874
C56   C     C_3   0.301234 0.874564 0.545973 0.324328
H29   H     H_    0.763444 0.726597 0.650961 0.231262
H30   H     H_    0.625377 0.174912 0.452491 0.266291
H31   H     H_    0.126272 0.330305 0.455839 0.266923
H32   H     H_    0.263114 0.776369 0.652880 0.230995
C57   C     C_3   0.196482 0.349998 0.415909 0.187068
C58   C     C_3   0.286064 0.704164 0.567534 0.188706
C59   C     C_3   0.789496 0.794932 0.565874 0.187070
C60   C     C_3   0.695875 0.151193 0.414311 0.187172
C61   C     C_3   0.285146 0.239978 0.479672 0.510647
C62   C     C_3   0.235191 0.751072 0.371629 0.459469
C63   C     C_3   0.741793 0.742420 0.374256 0.457712
C64   C     C_3   0.786710 0.259134 0.476803 0.508240
C65   C     C_3   0.275659 0.325399 0.505376 -0.250202
C66   C     C_3   0.306859 0.734595 0.497048 -0.222543
C67   C     C_3   0.812439 0.760988 0.500116 -0.221279
C68   C     C_3   0.775573 0.174340 0.503402 -0.249836
C69   C     C_3   0.732821 0.663982 0.502746 -0.018901
C70   C     C_3   0.698838 0.270358 0.510531 -0.010926
C71   C     C_3   0.196119 0.232746 0.511664 -0.011791
C72   C     C_3   0.230264 0.834744 0.500350 -0.014682
C73   C     C_3   0.742779 0.738101 0.565523 -0.439524
C74   C     C_3   0.652057 0.204971 0.426806 -0.424697
C75   C     C_3   0.151220 0.298610 0.428706 -0.424077
C76   C     C_3   0.240908 0.762630 0.567236 -0.443327
C77   C     C_3   0.696440 0.687674 0.381676 -0.540529
C78   C     C_3   0.734054 0.311615 0.469967 -0.574479
C79   C     C_3   0.230314 0.189713 0.470809 -0.578141
C80   C     C_3   0.191308 0.807340 0.379725 -0.547009
H33   H     H_    0.681486 0.637130 0.328848 0.224761
H34   H     H_    0.759535 0.364929 0.517791 0.237318
H35   H     H_    0.253573 0.135623 0.517227 0.236661
H36   H     H_    0.175281 0.856279 0.323994 0.225220
H37   H     H_    0.645000 0.714264 0.344846 0.235973
H38   H     H_    0.692917 0.332105 0.384113 0.236602
H39   H     H_    0.188733 0.170573 0.384205 0.236559
H40   H     H_    0.140341 0.780932 0.347083 0.237294
H41   H     H_    0.179277 0.339004 0.332581 0.144530
H42   H     H_    0.253975 0.652428 0.526503 0.184158
H43   H     H_    0.757917 0.846005 0.521247 0.183571
H44   H     H_    0.678947 0.160804 0.330890 0.145986
H45   H     H_    0.690665 0.764841 0.524250 0.199625
H46   H     H_    0.608963 0.228118 0.343455 0.178711
H47   H     H_    0.106943 0.276205 0.345333 0.177653
H48   H     H_    0.188874 0.736301 0.529208 0.196961
H49   H     H_    0.324774 0.785011 0.189575 0.225350
H50   H     H_    0.303095 0.221423 0.196632 0.223392
H51   H     H_    0.804279 0.276191 0.184043 0.209278
H52   H     H_    0.789405 0.740762 0.170069 0.225647
C81   C     C_2   0.693177 0.324463 0.960588 0.161373
C82   C     C_2   0.677845 0.713227 0.914818 0.124938
C83   C     C_2   0.194708 0.820680 0.956047 0.173222
C84   C     C_2   0.182712 0.202172 0.932172 0.150283
C85   C     C_2   0.763495 0.336111 0.032631 0.156077
C86   C     C_2   0.732607 0.685338 0.013224 0.200239
C87   C     C_2   0.264839 0.833620 0.024734 0.150554
C88   C     C_2   0.236358 0.173578 0.031365 0.162078
H53   H     H_    0.320550 0.712536 0.007356 0.185954
H54   H     H_    0.325411 0.265196 0.031032 0.201810
H55   H     H_    0.840306 0.232392 0.035476 0.207187
H56   H     H_    0.826628 0.772670 0.020432 0.186519
C89   C     C_2   0.331176 0.717826 0.085713 -0.154148
C90   C     C_2   0.330020 0.268601 0.104424 -0.144704
C91   C     C_2   0.837873 0.227511 0.101901 -0.128334
C92   C     C_2   0.826010 0.779711 0.088421 -0.153550
C93   C     C_2   0.311228 0.778602 0.109643 -0.091865
C94   C     C_2   0.293330 0.221927 0.118961 -0.127332
C95   C     C_2   0.806487 0.280205 0.117448 -0.110354
C96   C     C_2   0.786518 0.735540 0.099198 -0.099899
I1    I     I_    0.785337 0.527254 0.448008 -0.154163
I2    I     I_    0.840558 0.321707 0.747516 -0.146918
I3    I     I_    0.336811 0.179907 0.749277 -0.157841
I4    I     I_    0.280598 0.967084 0.433572 -0.144071
N33   N     N_R   0.228014 0.294368 0.686804 0.250053
O1    O     O_R   0.270939 0.307474 0.792877 -0.335949
O2    O     O_R   0.161229 0.304177 0.632593 -0.360739
N34   N     N_R   0.337067 0.909229 0.656307 0.255103
O3    O     O_R   0.348928 0.982069 0.671060 -0.296614
O4    O     O_R   0.356427 0.868887 0.740838 -0.318706
N35   N     N_R   0.838050 0.592192 0.665473 0.253225
O5    O     O_R   0.848558 0.519517 0.683984 -0.307042
O6    O     O_R   0.857203 0.635562 0.747376 -0.321387
N36   N     N_R   0.729187 0.209886 0.685284 0.249142
O7    O     O_R   0.771637 0.197945 0.791590 -0.340342
O8    O     O_R   0.662311 0.199323 0.630367 -0.361993
N37   N     N_R   0.183605 0.431946 0.416580 0.275354
O9    O     O_R   0.210183 0.481604 0.390943 -0.355098
O10   O     O_R   0.136183 0.455378 0.422158 -0.292026
N38   N     N_R   0.343899 0.679602 0.681574 0.240340
O11   O     O_R   0.348313 0.608466 0.707615 -0.346258
O12   O     O_R   0.385031 0.727751 0.760961 -0.278224
N39   N     N_R   0.845978 0.822459 0.679114 0.242305
O13   O     O_R   0.849712 0.894450 0.700813 -0.348802
O14   O     O_R   0.886899 0.776465 0.761380 -0.276826
N40   N     N_R   0.680965 0.069886 0.415597 0.274648
O15   O     O_R   0.706311 0.018704 0.390251 -0.347283
O16   O     O_R   0.633017 0.048491 0.421406 -0.295038
N41   N     N_R   0.697335 0.810296 0.310764 0.223925
O17   O     O_R   0.666132 0.847529 0.339793 -0.345682
O18   O     O_R   0.674933 0.822451 0.211032 -0.313869
N42   N     N_R   0.773259 0.262329 0.370147 0.221036
O19   O     O_R   0.709935 0.262827 0.275118 -0.412052
O20   O     O_R   0.825552 0.269760 0.370067 -0.360184
N43   N     N_R   0.273278 0.235515 0.374465 0.221623
O21   O     O_R   0.210605 0.236521 0.278243 -0.419791
O22   O     O_R   0.326433 0.226530 0.377040 -0.360882
N44   N     N_R   0.190420 0.682278 0.312468 0.226937
O23   O     O_R   0.160504 0.646880 0.345503 -0.343787
O24   O     O_R   0.166534 0.667250 0.212589 -0.297313
N45   N     N_R   0.355660 0.207046 0.567416 0.257732
O25   O     O_R   0.366563 0.135993 0.559830 -0.254150
O26   O     O_R   0.410469 0.248647 0.639149 -0.380240
N46   N     N_R   0.249496 0.786936 0.301766 0.231275
O27   O     O_R   0.197984 0.815562 0.205920 -0.304728
O28   O     O_R   0.310481 0.782810 0.326513 -0.466380
N47   N     N_R   0.758001 0.704104 0.308614 0.224310
O29   O     O_R   0.820792 0.704191 0.339362 -0.451500
O30   O     O_R   0.707029 0.676424 0.211343 -0.317331
N48   N     N_R   0.858323 0.290842 0.563080 0.258069
O31   O     O_R   0.911884 0.248707 0.635820 -0.384122
O32   O     O_R   0.871183 0.360967 0.554246 -0.258376
I5    I     I_    0.824464 0.421233 0.030513 -0.223214
I6    I     I_    0.737138 0.571737 0.062085 -0.159002
I7    I     I_    0.319235 0.925336 0.019278 -0.224159
I8    I     I_    0.232020 0.062093 0.078309 -0.177420
I9    I     I_    0.646982 0.229694 0.980006 -0.137899
I10   I     I_    0.662533 0.831071 0.874482 -0.197470
I11   I     I_    0.151330 0.725900 0.979558 -0.122043
I12   I     I_    0.165472 0.320276 0.894286 -0.116644
I13   I     I_    0.536609 0.403149 0.882186 -0.186067
I14   I     I_    0.541672 0.619064 0.884799 -0.100774
I15   I     I_    0.041889 0.909778 0.887686 -0.113935
I16   I     I_    0.028486 0.133093 0.866030 -0.184363
I17   I     I_    0.457896 0.377316 0.114821 -0.236479
I18   I     I_    0.473171 0.627677 0.132231 -0.214970
I19   I     I_    0.974481 0.862514 0.137086 -0.216376
I20   I     I_    0.960769 0.111387 0.115614 -0.239364
I21   I     I_    0.289715 0.440953 0.675567 -0.030790
I22   I     I_    0.458208 0.816884 0.690568 -0.088065
I23   I     I_    0.962374 0.681086 0.701011 -0.092460
I24   I     I_    0.787079 0.061086 0.674332 -0.022198

loop_
_geom_bond_atom_site_label_1
_geom_bond_atom_site_label_2
_geom_bond_distance
_ccdc_geom_bond_type
C51   I23   2.166813 S    
C31   N31   1.357330 A    
N35   O5    1.301333 A    
C80   H40   1.113747 S    
C7    H7    1.078100 S    
C61   C65   1.614539 S    
C85   C95   1.438679 S    
C30   I18   2.114768 S    
C33   C90   1.462618 S    
C26   C38   1.393757 A    
C58   N38   1.473902 S    
N47   O29   1.301151 A    
C61   C79   1.547273 S    
C25   C37   1.394927 A    
C35   C92   1.456482 S    
C24   N24   1.324929 A    
N5    N25   1.417544 A    
N42   O19   1.302447 A    
N5    Ni3   1.860799 S    
C12   C44   1.386227 A    
H30   C74   1.103148 S    
C36   C91   1.446969 S    
C27   C39   1.402661 A    
N31   Ni6   1.886764 S    
C73   H45   1.115258 S    
H52   C96   1.074069 S    
C71   C75   1.560097 S    
N35   O6    1.298035 A    
C11   C43   1.369273 A    
C18   H18   1.078422 S    
C58   C66   1.582873 S    
C52   C54   1.549741 S    
N27   Ni8   1.862716 S    
C51   C53   1.568445 S    
C24   H24   1.080771 S    
N11   N19   1.368602 A    
C54   I2    2.221456 S    
C14   H14   1.056340 S    
C3    H3    1.079858 S    
C27   I15   2.120542 S    
C70   C74   1.562612 S    
N39   O14   1.297362 A    
C7    C39   1.371990 A    
H49   C93   1.079572 S    
N10   N18   1.368641 A    
N36   O8    1.301539 A    
N1    Ni1   1.898821 S    
N6    Ni3   1.865809 S    
N46   O28   1.299896 A    
C17   N17   1.308363 A    
N46   O27   1.302855 A    
C22   N22   1.311514 A    
C3    C35   1.372810 A    
N18   Ni3   1.873376 S    
C46   C66   1.492342 S    
C37   C81   1.462928 S    
C4    H4    1.080435 S    
C2    C34   1.378205 A    
C39   C83   1.461581 S    
C77   H33   1.106616 S    
C20   N20   1.307207 A    
N1    N29   1.417544 A    
C86   I6    2.117852 S    
C83   I11   2.135692 S    
C64   C68   1.618197 S    
N8    N28   1.417544 A    
C85   I5    2.137368 S    
C80   H36   1.105715 S    
N3    N31   1.417544 A    
N34   O3    1.301420 A    
C87   C93   1.443839 S    
H50   C94   1.082572 S    
N48   O32   1.302182 A    
C28   N28   1.357500 A    
C31   I19   2.113279 S    
N26   Ni7   1.853654 S    
N8    Ni4   1.865809 S    
C79   H35   1.111692 S    
C4    N4    1.325048 A    
C40   C84   1.448912 S    
N45   O25   1.302490 A    
C82   C86   1.339682 D    
C16   H16   1.068187 S    
C91   C95   1.332915 D    
N20   Ni4   1.873376 S    
C72   C76   1.558579 S    
C14   C46   1.385761 A    
N32   Ni6   1.895970 S    
C58   H42   1.102884 S    
C7    N7    1.319705 A    
C74   H46   1.111827 S    
C49   C55   1.549077 S    
C8    N8    1.331265 A    
N14   Ni7   1.875869 S    
C10   N10   1.313998 A    
C19   C43   1.372859 A    
C55   I3    2.224580 S    
C84   I12   2.129884 S    
C2    H2    1.077465 S    
N7    N27   1.417544 A    
N16   N24   1.368640 A    
C28   I16   2.117675 S    
C53   I1    2.206759 S    
C10   C42   1.371476 A    
C1    C33   1.376130 A    
N9    N17   1.368602 A    
N48   O31   1.298040 A    
C19   N19   1.321601 A    
C9    H9    1.068974 S    
C55   N33   1.482483 S    
C63   N41   1.496506 S    
C23   H23   1.059592 S    
C18   C42   1.370043 A    
C8    C40   1.367474 A    
C45   C65   1.466291 S    
N4    N32   1.417544 A    
N13   N21   1.368602 A    
C18   N18   1.321363 A    
C61   N43   1.485573 S    
C43   C72   1.468211 S    
C12   H12   1.069045 S    
N30   Ni5   1.895970 S    
C1    N1    1.319078 A    
C53   N35   1.482111 S    
C23   C47   1.382744 A    
C22   H22   1.062258 S    
C59   C67   1.583446 S    
H53   C89   1.086779 S    
N36   O7    1.302467 A    
C82   I10   2.131294 S    
C4    C36   1.384038 A    
C15   H15   1.067989 S    
C81   I9    2.147098 S    
C30   N30   1.349912 A    
N12   Ni6   1.875509 S    
C58   C76   1.522066 S    
C20   C44   1.364643 A    
N4    Ni2   1.893729 S    
H56   C92   1.086205 S    
C5    C37   1.370297 A    
C79   H39   1.110462 S    
C90   C94   1.345644 D    
C21   C45   1.377999 A    
N39   O13   1.300208 A    
C60   H44   1.104966 S    
C59   N39   1.474134 S    
H54   C90   1.086218 S    
N41   O17   1.301474 A    
C52   I24   2.187096 S    
C57   N37   1.480311 S    
C53   C69   1.574611 S    
C16   C48   1.367462 A    
C86   C96   1.440714 S    
C87   I7    2.134063 S    
N40   O16   1.302298 A    
N43   O21   1.302413 A    
C64   N42   1.487012 S    
C81   C85   1.354417 D    
C8    H8    1.079891 S    
C62   C80   1.539057 S    
C11   N11   1.312882 A    
N28   Ni8   1.853654 S    
N3    Ni2   1.898821 S    
N37   O9    1.300767 A    
N11   Ni6   1.884825 S    
C5    N5    1.325356 A    
N47   O30   1.302982 A    
C61   N45   1.488878 S    
C30   C34   1.380165 A    
N44   O24   1.302956 A    
N45   O26   1.298735 A    
N15   N23   1.368602 A    
N25   Ni7   1.862716 S    
C50   H26   1.096789 S    
C26   I14   2.132467 S    
C75   H47   1.111671 S    
C89   C93   1.332422 D    
C38   C82   1.440654 S    
C21   H21   1.080447 S    
C49   H25   1.100572 S    
C88   I8    2.121077 S    
C9    C41   1.387119 A    
N17   Ni3   1.878703 S    
N24   Ni2   1.887751 S    
C10   H10   1.071447 S    
C51   H27   1.094473 S    
C11   H11   1.072549 S    
C83   C87   1.354640 D    
C47   C67   1.493443 S    
C76   H48   1.115263 S    
C25   I13   2.118845 S    
N9    Ni5   1.884825 S    
C54   C70   1.594104 S    
C13   N13   1.308811 A    
C2    N2    1.332966 A    
C1    H1    1.080140 S    
C64   N48   1.488244 S    
C15   N15   1.324235 A    
C21   N21   1.325428 A    
C24   C48   1.374972 A    
C56   N34   1.482820 S    
C16   N16   1.312664 A    
N2    N30   1.417544 A    
C52   H28   1.101449 S    
N21   Ni1   1.882402 S    
C78   H38   1.110484 S    
C60   N40   1.479320 S    
N43   O22   1.302252 A    
C29   I17   2.120370 S    
C6    H6    1.080822 S    
C32   I20   2.123118 S    
H32   C76   1.107596 S    
C32   N32   1.344974 A    
C62   N44   1.494256 S    
C23   N23   1.315030 A    
N12   N20   1.368641 A    
C44   C71   1.463812 S    
N42   O20   1.302626 A    
C62   C66   1.628069 S    
C64   C78   1.549357 S    
N13   Ni7   1.866595 S    
C15   C47   1.384866 A    
C34   C89   1.449062 S    
C56   I4    2.208239 S    
C60   C68   1.576237 S    
C31   C35   1.388717 A    
N15   Ni8   1.866595 S    
C63   C67   1.628949 S    
N29   Ni5   1.886764 S    
N19   Ni4   1.878703 S    
N22   Ni1   1.887751 S    
C5    H5    1.070283 S    
C92   C96   1.339519 D    
C49   C65   1.587095 S    
C60   C74   1.548621 S    
C70   C78   1.548792 S    
N33   O2    1.301423 A    
C50   I22   2.166587 S    
C50   C56   1.568645 S    
N44   O23   1.301413 A    
C72   C80   1.555247 S    
C63   C77   1.536524 S    
C28   C40   1.386484 A    
C14   N14   1.324282 A    
C13   C45   1.364617 A    
C49   I21   2.182482 S    
C6    N6    1.323948 A    
N40   O15   1.300968 A    
C69   C77   1.554233 S    
N6    N26   1.417544 A    
C27   N27   1.354382 A    
C42   C69   1.467866 S    
C17   H17   1.062935 S    
N7    Ni4   1.860799 S    
C57   H41   1.105210 S    
C71   C79   1.552262 S    
C69   C73   1.558025 S    
N37   O10   1.302336 A    
C63   N47   1.489109 S    
C59   C73   1.523254 S    
C19   H19   1.078917 S    
C50   C66   1.595431 S    
C29   C33   1.403182 A    
C13   H13   1.066725 S    
N33   O1    1.302391 A    
H51   C95   1.084989 S    
C41   C70   1.466983 S    
N14   N22   1.368640 A    
C3    N3    1.321134 A    
N38   O12   1.297403 A    
C54   N36   1.482487 S    
C17   C41   1.367220 A    
C6    C38   1.371565 A    
C48   C68   1.470238 S    
C84   C88   1.343436 D    
C57   C65   1.578745 S    
N38   O11   1.299580 A    
C12   N12   1.325566 A    
C25   N25   1.354367 A    
N41   O18   1.303497 A    
C59   H43   1.102332 S    
C78   H34   1.110878 S    
N23   Ni2   1.882402 S    
C55   C71   1.594915 S    
C57   C75   1.547137 S    
N10   Ni5   1.875509 S    
C62   N46   1.491064 S    
N16   Ni8   1.875869 S    
C56   C72   1.573052 S    
N2    Ni1   1.893729 S    
C88   C94   1.455884 S    
C32   C36   1.386462 A    
C52   C68   1.587037 S    
C51   C67   1.595250 S    
C77   H37   1.113755 S    
C9    N9    1.325737 A    
H29   C73   1.108054 S    
N34   O4    1.297923 A    
C29   N29   1.358262 A    
H55   C91   1.087118 S    
C20   H20   1.061855 S    
H31   C75   1.103399 S    
C22   C46   1.379683 A    
C26   N26   1.354166 A    
