data_mof_unit_20004.cif
_audit_creation_date              2012-12-11T14:49:45-0500
_audit_creation_method            fapswitch 2.2
_symmetry_space_group_name_H-M    P1
_symmetry_Int_Tables_number       1
_space_group_crystal_system       triclinic
_cell_length_a                    11.133107
_cell_length_b                    11.296072
_cell_length_c                    18.815202
_cell_angle_alpha                 90.127824
_cell_angle_beta                  90.779454
_cell_angle_gamma                 121.65602
_cell_volume                      2013.84052103

loop_
_atom_site_label
_atom_site_type_symbol
_atom_type_description
_atom_site_fract_x
_atom_site_fract_y
_atom_site_fract_z
_atom_type_partial_charge
Br1   Br    Br    0.612341 0.255045 0.512098 -0.509095
Br2   Br    Br    0.066741 0.262268 0.427250 -0.207794
Br3   Br    Br    0.782746 0.734572 0.093832 -0.211755
Br4   Br    Br    0.201511 0.906708 0.445957 -0.229863
Br5   Br    Br    0.340997 0.672007 0.504518 -0.575144
Br6   Br    Br    0.188557 0.264507 0.062707 -0.217625
Br7   Br    Br    0.825933 0.590459 0.388287 -0.311034
Br8   Br    Br    0.802781 0.124022 0.103330 -0.244142
Br9   Br    Br    0.364086 0.225053 0.390995 -0.258422
Br10  Br    Br    0.791139 0.418858 0.124818 -0.328983
Br11  Br    Br    0.688895 0.361905 0.957031 -0.513206
Br12  Br    Br    0.797900 0.756199 0.921530 -0.214262
Br13  Br    Br    0.271579 0.186024 0.558249 -0.205504
Br14  Br    Br    0.807470 0.075227 0.937460 -0.213801
Br15  Br    Br    0.934520 0.724103 0.554894 -0.226393
Br16  Br    Br    0.201026 0.321283 0.897231 -0.261777
Br17  Br    Br    0.759054 0.061157 0.535257 -0.248712
Br18  Br    Br    0.092134 0.322215 0.602688 -0.251302
Br19  Br    Br    0.222843 0.958842 0.910576 -0.239518
Br20  Br    Br    0.688691 0.774224 0.609175 -0.265780
Br21  Br    Br    0.263730 0.655700 0.865296 -0.383087
Br22  Br    Br    0.369879 0.701285 0.033294 -0.546882
Br23  Br    Br    0.738281 0.814243 0.431179 -0.201283
Br24  Br    Br    0.213560 0.970729 0.082626 -0.229894
C1    C     C_R   0.527282 0.461778 0.645127 0.602162
C2    C     C_R   0.469458 0.531636 0.353765 0.601945
C3    C     C_R   0.475050 0.946130 0.149390 0.607126
C4    C     C_R   0.061484 0.530449 0.352930 0.591646
C5    C     C_R   0.457057 0.066863 0.523947 0.167039
C6    C     C_R   0.623506 0.613486 0.963538 0.178899
C7    C     C_R   0.017909 0.403339 0.540065 0.194574
C8    C     C_R   0.391126 0.004090 0.965101 0.172281
C9    C     C_R   0.592917 0.617965 0.543612 0.172526
C10   C     C_R   0.129513 0.570004 0.941138 0.189132
C11   C     C_R   0.173517 0.591276 0.012124 0.097239
C12   C     C_R   0.936240 0.471918 0.853257 0.616900
C13   C     C_R   0.600590 0.634746 0.469608 0.179639
C14   C     C_R   0.384730 0.001735 0.039538 0.159600
C15   C     C_R   0.025267 0.394810 0.465860 0.182782
C16   C     C_R   0.615591 0.608143 0.037860 0.184116
C17   C     C_R   0.401761 0.995674 0.459540 0.229494
C18   C     C_R   0.459563 0.919775 0.434584 0.029414
C19   C     C_R   0.488528 0.508616 0.070459 0.000886
C20   C     C_R   0.993520 0.477164 0.421788 0.000566
C21   C     C_R   0.500204 0.017802 0.080821 0.005369
C22   C     C_R   0.512683 0.517659 0.425106 0.006290
C23   C     C_R   0.533792 0.064047 0.645725 0.587684
C24   C     C_R   0.073345 0.538086 0.066561 0.030266
C25   C     C_R   0.985550 0.490586 0.925560 0.042516
C26   C     C_R   0.503645 0.486184 0.571825 0.000199
C27   C     C_R   0.515068 0.028884 0.931491 0.012456
C28   C     C_R   0.973288 0.487337 0.569564 -0.000093
C29   C     C_R   0.506050 0.514796 0.921576 0.008462
C30   C     C_R   0.491359 0.999973 0.575269 0.018885
C31   C     C_R   0.494801 0.855171 0.486155 0.109583
C32   C     C_R   0.369274 0.412951 0.027090 0.161286
C33   C     C_R   0.930378 0.542609 0.450967 0.184784
C34   C     C_R   0.527100 0.470999 0.851692 0.609764
C35   C     C_R   0.629076 0.059363 0.047867 0.188193
C36   C     C_R   0.433791 0.385531 0.453701 0.194190
C37   C     C_R   0.928652 0.469393 0.050502 0.214399
C38   C     C_R   0.885091 0.444680 0.979642 0.128698
C39   C     C_R   0.414673 0.370552 0.526362 0.194149
C40   C     C_R   0.633146 0.051492 0.974218 0.177753
C41   C     C_R   0.938358 0.564833 0.523809 0.165933
C42   C     C_R   0.375515 0.426089 0.953667 0.180530
C43   C     C_R   0.558501 0.935121 0.546810 0.223541
C44   C     C_R   0.931189 0.470353 0.644464 0.591215
C45   C     C_R   0.537104 0.067138 0.855604 0.608757
C46   C     C_R   0.464542 0.528269 0.145239 0.607493
C47   C     C_R   0.446510 0.876797 0.360731 0.570090
C48   C     C_R   0.120211 0.569374 0.139816 0.591740
Cr1   Cr    Cr6+3 0.776430 0.541680 0.750000 1.192903
Cr2   Cr    Cr6+3 0.765250 0.223570 0.750000 1.201070
Cr3   Cr    Cr6+3 0.458320 0.234750 0.750000 1.195010
Cr4   Cr    Cr6+3 0.541680 0.776430 0.250000 1.189882
Cr5   Cr    Cr6+3 0.223570 0.765250 0.250000 1.195402
Cr6   Cr    Cr6+3 0.234750 0.458320 0.250000 1.190671
O1    O     O_R   0.916700 0.566820 0.669930 -0.461996
O2    O     O_R   0.566820 0.916700 0.330070 -0.447925
O3    O     O_R   0.083300 0.650120 0.169930 -0.428137
O4    O     O_R   0.349880 0.433180 0.330070 -0.445248
O5    O     O_R   0.649840 0.534790 0.674920 -0.463062
O6    O     O_R   0.884950 0.350160 0.825080 -0.457061
O7    O     O_R   0.465210 0.115050 0.674920 -0.473391
O8    O     O_R   0.649840 0.534790 0.825080 -0.459734
O9    O     O_R   0.884950 0.350160 0.674920 -0.453154
O10   O     O_R   0.465210 0.115050 0.825080 -0.459307
O11   O     O_R   0.534790 0.649840 0.174920 -0.452165
O12   O     O_R   0.650120 0.083300 0.830070 -0.454879
O13   O     O_R   0.350160 0.884950 0.325080 -0.455414
O14   O     O_R   0.115050 0.465210 0.174920 -0.446594
O15   O     O_R   0.534790 0.649840 0.325080 -0.480632
O16   O     O_R   0.350160 0.884950 0.174920 -0.474597
O17   O     O_R   0.115050 0.465210 0.325080 -0.473266
O18   O     O_3   0.666667 0.333333 0.750000 -0.337468
O19   O     O_3   0.333333 0.666667 0.250000 -0.377186
O20   O     O_R   0.433180 0.349880 0.669930 -0.457410
O21   O     O_R   0.916700 0.566820 0.830070 -0.448690
O22   O     O_R   0.650120 0.083300 0.669930 -0.447394
O23   O     O_R   0.433180 0.349880 0.830070 -0.448559
O24   O     O_R   0.566820 0.916700 0.169930 -0.441800
O25   O     O_R   0.083300 0.650120 0.330070 -0.434482
O26   O     O_R   0.349880 0.433180 0.169930 -0.462224

loop_
_geom_bond_atom_site_label_1
_geom_bond_atom_site_label_2
_ccdc_geom_bond_type
C17   C18   A    
C19   C32   A    
C7    C28   A    
Br11  C38   S    
C5    C17   A    
Br22  C11   S    
C35   C40   A    
C4    O17   A    
C23   O7    A    
Br8   C35   S    
C18   C31   A    
C46   O26   A    
C5    C30   A    
C11   C24   A    
Br15  C41   S    
Cr5   O16   S    
C10   C11   A    
C28   C41   A    
C1    C26   S    
C14   C21   A    
Br2   C15   S    
Cr3   O7    S    
C16   C19   A    
Cr5   O13   S    
Br24  C14   S    
C32   C42   A    
Cr5   O19   S    
C8    C14   A    
Cr2   O9    S    
Cr6   O17   S    
C48   O3    A    
C28   C44   S    
Cr4   O11   S    
Br12  C6    S    
C3    C21   S    
C2    O15   A    
C2    O4    A    
C26   C39   A    
C24   C48   S    
Br19  C8    S    
C34   O8    A    
C47   O2    A    
Cr3   O18   S    
Cr4   O24   S    
C6    C29   A    
Br17  C43   S    
Cr6   O26   S    
Cr2   O18   S    
Br6   C32   S    
Cr2   O22   S    
C30   C43   A    
Cr6   O14   S    
C9    C26   A    
Br23  C13   S    
C4    C20   S    
Cr3   O20   S    
C9    C13   A    
C23   O22   A    
C8    C27   A    
Cr4   O15   S    
Cr6   O4    S    
C1    O20   A    
Br13  C39   S    
Cr5   O3    S    
C20   C33   A    
Br14  C40   S    
Cr6   O19   S    
Br1   C5    S    
Cr1   O1    S    
C6    C16   A    
C34   O23   A    
C29   C42   A    
C45   O10   A    
C23   C30   S    
Br20  C9    S    
Br3   C16   S    
C19   C46   S    
C36   C39   A    
Cr5   O25   S    
C46   O11   A    
Br16  C42   S    
C45   O12   A    
C1    O5    A    
Cr1   O21   S    
C21   C35   A    
C10   C25   A    
C25   C38   A    
C22   C36   A    
Cr2   O6    S    
Br5   C31   S    
C27   C40   A    
Cr4   O2    S    
C33   C41   A    
C31   C43   A    
C29   C34   S    
C15   C20   A    
Br21  C10   S    
C3    O24   A    
Br9   C36   S    
Cr2   O12   S    
Cr4   O19   S    
C4    O25   A    
C24   C37   A    
C12   O6    A    
C48   O14   A    
C18   C47   S    
C7    C15   A    
C12   O21   A    
C37   C38   A    
Br7   C33   S    
Cr1   O8    S    
C2    C22   S    
Br10  C37   S    
Cr3   O10   S    
C47   O13   A    
C44   O1    A    
Br4   C17   S    
Cr3   O23   S    
C44   O9    A    
C3    O16   A    
Br18  C7    S    
C27   C45   S    
Cr1   O18   S    
C13   C22   A    
Cr1   O5    S    
C12   C25   S    
