data_mof_unit_51417.cif
_audit_creation_date              2012-12-10T20:25:43-0500
_audit_creation_method            fapswitch 2.2
_symmetry_space_group_name_H-M    P1
_symmetry_Int_Tables_number       1
_space_group_crystal_system       triclinic
_cell_length_a                    8.596898
_cell_length_b                    10.722134
_cell_length_c                    9.97161
_cell_angle_alpha                 87.633042
_cell_angle_beta                  98.456893
_cell_angle_gamma                 92.316669
_cell_volume                      907.83535644

loop_
_atom_site_label
_atom_site_type_symbol
_atom_type_description
_atom_site_fract_x
_atom_site_fract_y
_atom_site_fract_z
_atom_type_partial_charge
C1    C     C_R   0.511632 0.260464 0.502994 0.991321
C2    C     C_R   0.364563 0.475677 0.913472 0.014879
C3    C     C_3   0.259923 0.360607 0.905443 0.620522
C4    C     C_R   0.201955 0.499154 0.465130 0.879790
C5    C     C_3   0.248444 0.370833 0.055781 0.535939
C6    C     C_R   0.509887 0.740087 0.498507 0.899962
C7    C     C_R   0.798176 0.506543 0.534406 0.934742
C8    C     C_2   0.037552 0.484027 0.452143 0.418384
C9    C     C_2   0.961970 0.533711 0.544855 -0.243976
C10   C     C_R   0.564288 0.058540 0.627005 -0.312497
C11   C     C_R   0.551227 0.130681 0.507162 -0.212887
C12   C     C_R   0.576880 0.944512 0.383011 -0.023892
C13   C     C_R   0.581063 0.074049 0.388369 0.734703
C14   C     C_R   0.545743 0.872257 0.499099 -0.193374
C15   C     C_R   0.559501 0.930898 0.622528 -0.146084
C16   C     C_3   0.467872 0.913178 0.738600 1.083733
C17   C     C_3   0.473956 0.054485 0.744017 0.651600
C18   C     C_R   0.363135 0.479288 0.054750 -0.055065
C19   C     C_R   0.625548 0.546810 0.086597 0.218797
C20   C     C_R   0.625964 0.546857 0.943482 0.144404
F1    F     F_    0.966944 0.400435 0.360958 -0.658573
F2    F     F_    0.337180 0.256928 0.882112 -0.556718
F3    F     F_    0.307208 0.270101 0.136545 -0.539442
F4    F     F_    0.602569 0.142310 0.274139 -0.567316
F5    F     F_    0.317339 0.862957 0.701551 -0.631234
F6    F     F_    0.550203 0.851669 0.850128 -0.702285
F7    F     F_    0.326794 0.104503 0.710556 -0.551240
H1    H     H_    0.726073 0.659511 0.809618 0.263071
H2    H     H_    0.493978 0.847407 0.214653 0.244255
H3    H     H_    0.673866 0.058500 0.888605 0.178278
H4    H     H_    0.596497 0.196910 0.848393 0.231789
H5    H     H_    0.777090 0.691458 0.137052 0.185827
H6    H     H_    0.855843 0.549795 0.160840 0.219445
H7    H     H_    0.827531 0.527518 0.868762 0.198424
H8    H     H_    0.061877 0.457229 0.829592 0.149859
H9    H     H_    0.036159 0.300485 0.830729 0.208211
H10   H     H_    0.037123 0.327506 0.122371 0.280934
H11   H     H_    0.102287 0.476302 0.148998 0.220528
H12   H     H_    0.954326 0.659779 0.693588 0.197973
H13   H     H_    0.066721 0.704561 0.576421 0.223545
H14   H     H_    0.688347 0.827448 0.278607 0.197168
N1    N     N_R   0.498950 0.499140 0.142680 -0.075575
N2    N     N_R   0.498950 0.499180 0.857030 -0.100414
N3    N     N_3   0.761360 0.600236 0.893140 -0.458266
N4    N     N_3   0.113718 0.374481 0.811467 -0.396383
N5    N     N_3   0.092075 0.405149 0.080010 -0.543485
N6    N     N_3   0.035303 0.627574 0.635825 -0.425824
N7    N     N_3   0.598917 0.891459 0.257998 -0.349721
N8    N     N_3   0.566485 0.103107 0.867661 -0.307425
N9    N     N_3   0.757385 0.599824 0.172077 -0.397707
O1    O     O_R   0.500020 0.316790 0.614690 -0.585230
O2    O     O_R   0.500000 0.316760 0.385350 -0.497262
O3    O     O_R   0.271760 0.500010 0.587850 -0.582445
O4    O     O_R   0.271740 0.499970 0.358500 -0.623620
O5    O     O_R   0.500000 0.683240 0.614650 -0.577151
O6    O     O_R   0.499980 0.683210 0.385310 -0.659993
O7    O     O_R   0.728260 0.500030 0.641500 -0.685930
O8    O     O_R   0.728240 0.499990 0.412150 -0.550498
Zn1   Zn    Zn3+2 0.500010 0.500020 0.653130 1.023294
Zn2   Zn    Zn3+2 0.499990 0.499980 0.346870 1.060134

loop_
_geom_bond_atom_site_label_1
_geom_bond_atom_site_label_2
_ccdc_geom_bond_type
H13   N6    S    
H8    N4    S    
C8    F1    S    
O5    Zn1   S    
C4    O3    A    
C2    C18   A    
C11   C13   A    
C5    N5    S    
C2    N2    A    
C7    O8    A    
C19   C20   A    
C5    F3    S    
C19   N1    A    
N2    Zn1   S    
C6    O5    A    
C12   N7    S    
C2    C3    S    
O3    Zn1   S    
H7    N3    S    
H9    N4    S    
O4    Zn2   S    
C6    O6    A    
C16   F6    S    
C1    O1    A    
C19   N9    S    
H5    N9    S    
O2    Zn2   S    
H4    N8    S    
H6    N9    S    
C20   N3    S    
H3    N8    S    
H1    N3    S    
C9    N6    S    
C10   C15   A    
C18   N1    A    
H14   N7    S    
C1    O2    A    
C7    O7    A    
H11   N5    S    
O7    Zn1   S    
C6    C14   S    
C10   C11   A    
H2    N7    S    
O8    Zn2   S    
C15   C16   S    
C17   F7    S    
C16   F5    S    
C20   N2    A    
O1    Zn1   S    
C12   C13   A    
H12   N6    S    
N1    Zn2   S    
C4    C8    S    
C7    C9    S    
C14   C15   A    
C8    C9    D    
C3    F2    S    
C5    C18   S    
C10   C17   S    
C4    O4    A    
H10   N5    S    
C3    N4    S    
C17   N8    S    
O6    Zn2   S    
C13   F4    S    
C12   C14   A    
C16   C17   S    
C3    C5    S    
C1    C11   S    
