data_mof_unit_40460.cif
_audit_creation_date              2012-12-10T16:56:35-0500
_audit_creation_method            fapswitch 2.2
_symmetry_space_group_name_H-M    P1
_symmetry_Int_Tables_number       1
_space_group_crystal_system       triclinic
_cell_length_a                    10.983382
_cell_length_b                    10.903746
_cell_length_c                    9.88308
_cell_angle_alpha                 88.50064
_cell_angle_beta                  89.693686
_cell_angle_gamma                 88.640552
_cell_volume                      1182.84623802

loop_
_atom_site_label
_atom_site_type_symbol
_atom_type_description
_atom_site_fract_x
_atom_site_fract_y
_atom_site_fract_z
_atom_type_partial_charge
C1    C     C_R   0.510068 0.265824 0.500709 0.744161
C2    C     C_3   0.877084 0.487210 0.501476 -0.071568
C3    C     C_3   0.925378 0.619048 0.483060 -0.381887
C4    C     C_3   0.933675 0.398433 0.388615 0.257849
C5    C     C_2   0.493464 0.937021 0.389680 -0.077495
C6    C     C_2   0.474437 0.865588 0.498669 -0.263142
C7    C     C_2   0.479364 0.069827 0.401224 -0.297195
C8    C     C_2   0.533809 0.133349 0.498619 0.354025
C9    C     C_2   0.496018 0.404604 0.931929 0.457597
C10   C     C_2   0.531851 0.411597 0.075387 -0.059423
C11   C     C_R   0.260552 0.493773 0.499534 0.730817
C12   C     C_R   0.493965 0.733964 0.498759 0.826718
C13   C     C_R   0.739308 0.493106 0.500222 0.827630
C14   C     C_3   0.071864 0.411660 0.626913 -0.126605
C15   C     C_3   0.928696 0.432146 0.639906 -0.103969
C16   C     C_3   0.067336 0.622235 0.491453 -0.100342
C17   C     C_3   0.072584 0.422646 0.367586 -0.190670
C18   C     C_3   0.121908 0.486946 0.496966 -0.004301
Cu1   Cu    Cu3+1 0.500030 0.500020 0.638630 1.044383
Cu2   Cu    Cu3+1 0.499970 0.499980 0.361370 1.102196
H1    H     H_    0.113174 0.453104 0.716260 0.188009
H2    H     H_    0.094424 0.667765 0.395011 0.160772
H3    H     H_    0.895842 0.655750 0.381944 0.189650
H4    H     H_    0.515259 0.898844 0.291857 0.221654
H5    H     H_    0.443384 0.905805 0.592508 0.186941
H6    H     H_    0.419403 0.116281 0.328369 0.175116
H7    H     H_    0.547689 0.570821 0.879106 0.226532
H8    H     H_    0.568877 0.328415 0.122772 0.211310
H9    H     H_    0.886434 0.341705 0.642782 0.157401
H10   H     H_    0.880248 0.678723 0.556969 0.191618
H11   H     H_    0.117116 0.332850 0.367302 0.187362
H12   H     H_    0.931417 0.304604 0.434806 0.120007
N1    N     N_2   0.498630 0.498660 0.846910 -0.288788
N2    N     N_2   0.498590 0.498630 0.153040 -0.018465
O1    O     O_R   0.500020 0.321960 0.617040 -0.479668
O2    O     O_R   0.499980 0.321920 0.382900 -0.605459
O3    O     O_R   0.317710 0.500000 0.617070 -0.557935
O4    O     O_R   0.317670 0.499960 0.382930 -0.566322
O5    O     O_R   0.500020 0.678080 0.617100 -0.576812
O6    O     O_R   0.499980 0.678040 0.382960 -0.501844
O7    O     O_R   0.682330 0.500040 0.617070 -0.611599
O8    O     O_R   0.682290 0.500000 0.382930 -0.488308
S1    S     S_3+6 0.850834 0.362864 0.236347 -0.024541
O9    O     O_2   0.929960 0.287244 0.144611 -0.321646
O10   O     O_2   0.743559 0.286779 0.276166 -0.271994
O11   O     O_3   0.803603 0.491347 0.152273 -0.551237
H13   H     H_    0.778663 0.463374 0.062370 0.348114
S2    S     S_3+6 0.662093 0.071915 0.589679 0.034166
O12   O     O_2   0.623760 0.982549 0.699202 -0.266879
O13   O     O_2   0.746865 0.007186 0.493645 -0.294065
O14   O     O_3   0.736437 0.185891 0.661136 -0.552818
H14   H     H_    0.799634 0.144260 0.718192 0.362660
S3    S     S_3+6 0.438996 0.259984 0.895705 -0.007650
O15   O     O_2   0.340091 0.273005 0.793302 -0.357585
O16   O     O_2   0.540576 0.179017 0.845597 -0.203009
O17   O     O_3   0.381756 0.194760 0.037780 -0.599662
H15   H     H_    0.345537 0.117545 0.008427 0.378604
C19   C     C_3   0.102190 0.266953 0.639205 -0.388826
C20   C     C_3   0.207876 0.203596 0.559161 -0.275261
C21   C     C_3   0.168104 0.117924 0.446349 -0.902371
H16   H     H_    0.210353 0.025282 0.462056 0.250703
H17   H     H_    0.067904 0.108736 0.440535 0.284645
H18   H     H_    0.201698 0.150936 0.346179 0.239477
H19   H     H_    0.272648 0.269338 0.517480 0.202044
H20   H     H_    0.260698 0.143488 0.630808 0.249209
H21   H     H_    0.118920 0.246641 0.748085 0.207444
H22   H     H_    0.021133 0.211155 0.622656 0.188542
S4    S     S_3+6 0.423697 0.634721 0.094379 0.063455
O18   O     O_2   0.518141 0.726262 0.053316 -0.295986
O19   O     O_2   0.339731 0.616872 0.977787 -0.345039
O20   O     O_3   0.335725 0.697793 0.214688 -0.523586
H23   H     H_    0.310660 0.779717 0.177436 0.348152
C22   C     C_3   0.882200 0.472836 0.784063 -0.323994
C23   C     C_3   0.900661 0.604663 0.830292 -0.437951
C24   C     C_3   0.785820 0.685971 0.830826 -0.673222
H24   H     H_    0.738513 0.687274 0.732329 0.272186
H25   H     H_    0.724357 0.654377 0.912854 0.255586
H26   H     H_    0.810753 0.781585 0.852471 0.255685
H27   H     H_    0.934820 0.601999 0.935759 0.227194
H28   H     H_    0.969014 0.648704 0.769292 0.246145
H29   H     H_    0.787358 0.445786 0.805689 0.231144
H30   H     H_    0.929815 0.411438 0.857760 0.176116
C25   C     C_3   0.126585 0.708527 0.595141 -0.387695
C26   C     C_3   0.062403 0.834273 0.612346 -0.365999
C27   C     C_3   0.129124 0.909051 0.716020 -0.787975
H31   H     H_    0.127286 0.861423 0.816757 0.264990
H32   H     H_    0.225343 0.921889 0.685015 0.252405
H33   H     H_    0.083297 0.000228 0.725249 0.252459
H34   H     H_    0.059380 0.884190 0.513194 0.238603
H35   H     H_    0.967618 0.826536 0.648976 0.243097
H36   H     H_    0.143755 0.661561 0.694012 0.216915
H37   H     H_    0.219749 0.728690 0.557035 0.194314
C28   C     C_3   0.104679 0.483842 0.227043 -0.331528
C29   C     C_3   0.178300 0.395984 0.135971 -0.227929
C30   C     C_3   0.157843 0.425374 0.986729 -0.677662
H38   H     H_    0.118966 0.518718 0.968302 0.229395
H39   H     H_    0.244411 0.422227 0.931426 0.296413
H40   H     H_    0.099311 0.354931 0.945051 0.230093
H41   H     H_    0.276406 0.402177 0.159229 0.250840
H42   H     H_    0.155265 0.298459 0.155109 0.233425
H43   H     H_    0.022264 0.520658 0.175537 0.248993
H44   H     H_    0.159659 0.565998 0.234740 0.232949

loop_
_geom_bond_atom_site_label_1
_geom_bond_atom_site_label_2
_ccdc_geom_bond_type
C11   C18   S    
C28   C29   S    
C11   O4    A    
C1    C8    S    
C22   C23   S    
C14   C18   S    
C3    H3    S    
Cu1   Cu2   S    
C24   H24   S    
C13   O7    A    
C30   H40   S    
C7    C8    D    
S3    O15   D    
H7    N1    S    
C25   H37   S    
C20   H19   S    
C7    H6    S    
C21   H18   S    
C14   H1    S    
C6    C12   S    
C5    C6    D    
Cu2   O6    S    
C27   H33   S    
C6    H5    S    
O17   H15   S    
C21   H17   S    
C11   O3    A    
C2    C13   S    
Cu1   O3    S    
C19   H21   S    
S2    O14   S    
C30   H38   S    
S4    O18   D    
C9    C10   S    
Cu2   N2    S    
C27   H32   S    
C20   C21   S    
C23   H28   S    
C9    N1    D    
C26   H35   S    
C22   H29   S    
C13   O8    A    
S1    O11   S    
C15   H9    S    
S3    O16   D    
C14   C19   S    
C23   C24   S    
O14   H14   S    
C26   C27   S    
Cu1   N1    S    
N2    S4    S    
C5    C7    S    
C19   C20   S    
C27   H31   S    
C16   C25   S    
C21   H16   S    
C12   O6    A    
C3    H10   S    
C2    C4    S    
S1    O9    D    
C8    S2    S    
Cu2   O4    S    
C25   C26   S    
C29   H42   S    
C17   C18   S    
C10   N2    D    
C2    C15   S    
S1    O10   D    
C4    H12   S    
Cu1   O5    S    
C4    C17   S    
C16   C18   S    
S2    O12   D    
C15   C22   S    
C23   H27   S    
C17   H11   S    
C17   C28   S    
C26   H34   S    
C28   H43   S    
C22   H30   S    
C1    O1    A    
S3    O17   S    
C10   H8    S    
O11   H13   S    
C16   H2    S    
C28   H44   S    
Cu2   O8    S    
C30   H39   S    
C4    S1    S    
C25   H36   S    
C12   O5    A    
C2    C3    S    
O20   H23   S    
Cu1   O1    S    
C20   H20   S    
C5    H4    S    
C29   H41   S    
S4    O20   S    
S2    O13   D    
C29   C30   S    
C24   H26   S    
Cu2   O2    S    
C19   H22   S    
C9    S3    S    
S4    O19   D    
C24   H25   S    
C14   C15   S    
C3    C16   S    
Cu1   O7    S    
C1    O2    A    
