data_mof_unit_62618.cif
_audit_creation_date              2012-12-10T19:25:23-0500
_audit_creation_method            fapswitch 2.2
_symmetry_space_group_name_H-M    P1
_symmetry_Int_Tables_number       1
_space_group_crystal_system       triclinic
_cell_length_a                    18.688658
_cell_length_b                    18.603325
_cell_length_c                    18.817389
_cell_angle_alpha                 109.342382
_cell_angle_beta                  109.246802
_cell_angle_gamma                 109.135051
_cell_volume                      5078.62308814

loop_
_atom_site_label
_atom_site_type_symbol
_atom_type_description
_atom_site_fract_x
_atom_site_fract_y
_atom_site_fract_z
_atom_type_partial_charge
C1    C     C_R   0.880058 0.380008 0.999875 0.875902
C2    C     C_R   0.183534 0.497865 0.182686 -0.092324
C3    C     C_R   0.175036 0.417891 0.176998 -0.218013
C4    C     C_R   0.882272 0.502521 0.880807 0.929034
C5    C     C_R   0.239276 0.417988 0.241775 -0.209015
C6    C     C_R   0.312739 0.497940 0.310250 -0.102297
C7    C     C_R   0.319336 0.574601 0.311571 0.130544
C8    C     C_3   0.372995 0.671698 0.361695 -0.481511
C9    C     C_3   0.300978 0.671638 0.291681 -0.497723
C10   C     C_R   0.255705 0.758794 0.078157 0.052598
C11   C     C_R   0.188229 0.684617 0.000442 -0.062169
C12   C     C_R   0.814848 0.313229 0.998821 -0.053715
C13   C     C_R   0.190887 0.669757 0.923360 -0.197851
C14   C     C_R   0.254470 0.734668 0.923244 -0.209885
C15   C     C_R   0.315767 0.813196 0.000432 -0.041254
C16   C     C_R   0.120015 0.620072 0.999662 0.875265
C17   C     C_R   0.318627 0.822715 0.078043 0.065739
C18   C     C_3   0.322068 0.894455 0.148135 -0.049570
C19   C     C_3   0.253443 0.823235 0.148978 -0.462023
C20   C     C_R   0.497829 0.379685 0.377752 0.876561
C21   C     C_R   0.616122 0.497523 0.614599 0.929805
C22   C     C_R   0.495904 0.619856 0.616054 0.882517
C23   C     C_R   0.837506 0.265886 0.037608 -0.211213
C24   C     C_R   0.377747 0.499809 0.377308 0.884132
C25   C     C_R   0.500651 0.879670 0.880918 0.873434
C26   C     C_R   0.620266 0.119749 0.999129 0.900062
C27   C     C_R   0.499407 0.120528 0.119047 0.924284
C28   C     C_R   0.119137 0.499645 0.118792 0.881631
C29   C     C_R   0.380187 0.880570 0.000882 0.894404
C30   C     C_R   0.492196 0.318456 0.238089 0.064281
C31   C     C_R   0.495590 0.312566 0.310864 -0.068286
C32   C     C_R   0.488593 0.236724 0.314838 -0.186846
C33   C     C_R   0.490147 0.173048 0.251530 -0.168032
C34   C     C_R   0.773043 0.199910 0.035766 -0.190080
C35   C     C_R   0.495940 0.184390 0.183293 -0.048505
C36   C     C_R   0.492586 0.255039 0.174986 0.082684
C37   C     C_3   0.550432 0.320641 0.161410 -0.061791
C38   C     C_3   0.548940 0.390463 0.230722 -0.467428
C39   C     C_R   0.572564 0.757727 0.750700 0.130129
C40   C     C_2   0.756973 0.506378 0.679927 -0.148646
C41   C     C_R   0.495624 0.684688 0.682151 -0.102407
C42   C     C_R   0.417069 0.674350 0.680961 -0.215175
C43   C     C_R   0.418371 0.738759 0.747220 -0.215031
C44   C     C_R   0.498414 0.811702 0.815826 -0.088436
C45   C     C_R   0.686203 0.181067 0.993905 -0.095072
C46   C     C_R   0.574029 0.817635 0.815834 0.125381
C47   C     C_3   0.670128 0.874254 0.861786 -0.497027
C48   C     C_3   0.668644 0.804759 0.787595 -0.469923
C49   C     C_2   0.679699 0.489185 0.675124 -0.340106
C50   C     C_2   0.818446 0.495014 0.741360 -0.150016
C51   C     C_2   0.821897 0.511181 0.817500 -0.335434
C52   C     C_R   0.727995 0.285820 0.947284 0.096185
C53   C     C_R   0.664123 0.220337 0.944876 0.142154
C54   C     C_3   0.610267 0.264637 0.943361 -0.444842
C55   C     C_3   0.681271 0.337257 0.946591 -0.502496
C56   C     C_R   0.256446 0.574639 0.251269 0.133164
H1    H     H_    0.773613 0.525011 0.636214 0.170213
H2    H     H_    0.254640 0.724660 0.863204 0.145080
H3    H     H_    0.385887 0.932363 0.208537 0.141278
H4    H     H_    0.659154 0.460982 0.711790 0.157030
H5    H     H_    0.278294 0.819439 0.209293 0.176846
H6    H     H_    0.189634 0.821549 0.127812 0.238555
H7    H     H_    0.486363 0.228933 0.368772 0.157737
H8    H     H_    0.488444 0.116191 0.256518 0.156497
H9    H     H_    0.516741 0.312586 0.096089 0.147231
H10   H     H_    0.612860 0.436786 0.290721 0.237655
H11   H     H_    0.513751 0.421788 0.204948 0.184166
H12   H     H_    0.716391 0.400433 0.007766 0.227638
H13   H     H_    0.355371 0.617999 0.628587 0.162892
H14   H     H_    0.863221 0.477093 0.725597 0.166121
H15   H     H_    0.357679 0.731673 0.745101 0.154326
H16   H     H_    0.689234 0.937949 0.862751 0.201352
H17   H     H_    0.702473 0.878191 0.925282 0.214010
H18   H     H_    0.687723 0.828685 0.746336 0.212525
H19   H     H_    0.699440 0.767907 0.807979 0.203824
H20   H     H_    0.784238 0.538763 0.837342 0.157352
H21   H     H_    0.904835 0.282412 0.072096 0.140796
H22   H     H_    0.791559 0.166529 0.069774 0.171459
H23   H     H_    0.118688 0.356373 0.124062 0.157320
H24   H     H_    0.548178 0.227130 0.881186 0.200573
H25   H     H_    0.603534 0.285646 0.002258 0.221706
H26   H     H_    0.660032 0.341838 0.886446 0.198728
H27   H     H_    0.232065 0.356460 0.238139 0.166649
H28   H     H_    0.377492 0.699403 0.426198 0.201938
H29   H     H_    0.435871 0.695230 0.361682 0.212225
H30   H     H_    0.264313 0.699832 0.315898 0.214050
H31   H     H_    0.321962 0.694505 0.250715 0.198597
H32   H     H_    0.141576 0.610273 0.862923 0.158930
I1    I     I_    0.274414 0.972246 0.106782 -0.390397
I2    I     I_    0.678102 0.334097 0.199711 -0.403919
O1    O     O_R   0.908050 0.460100 0.051390 -0.615118
O2    O     O_R   0.551950 0.908320 0.960240 -0.623927
O3    O     O_R   0.540220 0.091590 0.948580 -0.627247
O4    O     O_R   0.908730 0.356680 0.948620 -0.623225
O5    O     O_R   0.643000 0.091540 0.051310 -0.617593
O6    O     O_R   0.448050 0.091580 0.039660 -0.613430
O7    O     O_R   0.550830 0.091520 0.142390 -0.612871
O8    O     O_R   0.357000 0.908370 0.948590 -0.604611
O9    O     O_R   0.459780 0.908310 0.051320 -0.632538
O10   O     O_R   0.908630 0.551710 0.960350 -0.621634
O11   O     O_R   0.909310 0.448290 0.857570 -0.617354
O12   O     O_R   0.445680 0.356610 0.405790 -0.622317
O13   O     O_R   0.091270 0.643320 0.051380 -0.622171
O14   O     O_R   0.091950 0.539900 0.948610 -0.629497
O15   O     O_R   0.090690 0.551710 0.142430 -0.620080
O16   O     O_R   0.091370 0.448290 0.039650 -0.622934
O17   O     O_R   0.549120 0.460050 0.405790 -0.624028
O18   O     O_R   0.639540 0.551640 0.587850 -0.615572
O19   O     O_R   0.536110 0.448210 0.587860 -0.623856
O20   O     O_R   0.547900 0.643240 0.587840 -0.623156
O21   O     O_R   0.444470 0.539800 0.587850 -0.622504
O22   O     O_R   0.457480 0.551640 0.405780 -0.622887
O23   O     O_R   0.354050 0.448210 0.405780 -0.622772
O24   O     O_R   0.449170 0.908380 0.857510 -0.627038
Zn1   Zn    Zn3+2 0.999540 0.569060 0.068630 0.964404
Zn2   Zn    Zn3+2 0.000460 0.430940 0.931370 0.957893
Zn3   Zn    Zn3+2 0.565860 0.568990 0.496810 0.953182
Zn4   Zn    Zn3+2 0.427730 0.430860 0.496820 0.962676
Zn5   Zn    Zn3+2 0.431370 0.999990 0.931350 0.974421
Zn6   Zn    Zn3+2 0.568630 0.999910 0.068550 0.969057

loop_
_geom_bond_atom_site_label_1
_geom_bond_atom_site_label_2
_ccdc_geom_bond_type
C41   C42   A    
O6    Zn5   S    
C35   C36   A    
C24   O22   A    
C3    H23   S    
C21   C49   S    
C55   H12   S    
C7    C8    S    
C39   C41   A    
C53   C54   S    
C1    C12   S    
C12   C23   A    
C30   C38   S    
C49   H4    S    
C29   O8    A    
O21   Zn4   S    
C5    C6    A    
C36   C37   S    
C18   C19   S    
C30   C31   A    
C5    H27   S    
C22   C41   S    
C20   O12   A    
C10   C17   A    
C40   C49   D    
C25   C44   S    
C17   C18   S    
C8    H29   S    
C46   C47   S    
C26   C45   S    
O9    Zn6   S    
O14   Zn2   S    
C16   O14   A    
C38   H10   S    
C28   O16   A    
C1    O4    A    
C22   O20   A    
C37   H9    S    
C28   O15   A    
O24   Zn5   S    
O12   Zn4   S    
C52   C55   S    
C20   O17   A    
C26   O3    A    
C45   C53   A    
C24   O23   A    
C1    O1    A    
C13   C14   A    
C48   H19   S    
C27   O6    A    
O10   Zn1   S    
C7    C56   A    
O20   Zn3   S    
C12   C52   A    
C44   C46   A    
O19   Zn4   S    
C15   C29   S    
C54   H24   S    
C14   H2    S    
C29   O9    A    
C4    C51   S    
C19   H6    S    
C48   H18   S    
O8    Zn5   S    
C51   H20   S    
C47   H17   S    
C9    C56   S    
O4    Zn2   S    
C8    C9    S    
C27   C35   S    
C42   H13   S    
O16   Zn2   S    
O13   Zn1   S    
C43   C44   A    
C37   C38   S    
C9    H30   S    
C11   C16   S    
C16   O13   A    
C47   C48   S    
C10   C19   S    
C23   C34   A    
C6    C24   S    
C4    O11   A    
C50   C51   D    
C34   C45   A    
C23   H21   S    
C55   H26   S    
C39   C46   A    
C37   I2    S    
C4    O10   A    
C42   C43   A    
C52   C53   A    
C26   O5    A    
C15   C17   A    
C54   C55   S    
C27   O7    A    
C25   O2    A    
C43   H15   S    
C40   H1    S    
C8    H28   S    
C18   I1    S    
O18   Zn3   S    
O15   Zn1   S    
C31   C32   A    
C32   H7    S    
C3    C5    A    
C21   O19   A    
C6    C7    A    
O5    Zn6   S    
C30   C36   A    
C32   C33   A    
O7    Zn6   S    
C2    C3    A    
C50   H14   S    
C2    C56   A    
C25   O24   A    
C9    H31   S    
C11   C13   A    
O22   Zn3   S    
C19   H5    S    
C33   H8    S    
C40   C50   S    
C13   H32   S    
C33   C35   A    
O1    Zn1   S    
O2    Zn6   S    
C47   H16   S    
C21   O18   A    
C10   C11   A    
O23   Zn4   S    
C18   H3    S    
C38   H11   S    
C22   O21   A    
O11   Zn2   S    
C14   C15   A    
C2    C28   S    
O3    Zn5   S    
O17   Zn3   S    
C54   H25   S    
C34   H22   S    
C39   C48   S    
C20   C31   S    
