data_mof_unit_63088.cif
_audit_creation_date              2012-12-10T17:49:33-0500
_audit_creation_method            fapswitch 2.2
_symmetry_space_group_name_H-M    P1
_symmetry_Int_Tables_number       1
_space_group_crystal_system       triclinic
_cell_length_a                    39.010314
_cell_length_b                    39.010394
_cell_length_c                    29.393752
_cell_angle_alpha                 90.009535
_cell_angle_beta                  90.004016
_cell_angle_gamma                 90.000299
_cell_volume                      44731.6379601

loop_
_atom_site_label
_atom_site_type_symbol
_atom_type_description
_atom_site_fract_x
_atom_site_fract_y
_atom_site_fract_z
_atom_type_partial_charge
C1    C     C_R   0.566272 1.000000 0.500001 0.934743
C2    C     C_R   0.000000 0.566272 0.499999 0.934741
C3    C     C_R   0.433728 1.000000 0.500000 0.934749
C4    C     C_R   1.000000 0.433727 0.499999 0.934756
C5    C     C_R   0.066273 0.500000 0.000002 0.934717
C6    C     C_R   0.500000 0.066273 0.999997 0.934716
C7    C     C_R   0.933728 0.499999 0.999995 0.934806
C8    C     C_R   0.499999 0.933727 0.000006 0.934749
C9    C     C_R   0.767960 0.006696 0.540602 0.314851
C10   C     C_R   0.993278 0.767962 0.540585 0.314866
C11   C     C_R   0.232046 0.993289 0.540605 0.314876
C12   C     C_R   0.006749 0.232053 0.540611 0.314856
C13   C     C_R   0.232042 0.006716 0.459403 0.314860
C14   C     C_R   0.006705 0.767951 0.459381 0.314888
C15   C     C_R   0.767951 0.993246 0.459401 0.314886
C16   C     C_R   0.993296 0.232036 0.459413 0.314805
C17   C     C_R   0.267961 0.506682 0.040614 0.314937
C18   C     C_R   0.493264 0.267963 0.040567 0.314857
C19   C     C_R   0.732050 0.493192 0.040571 0.314809
C20   C     C_R   0.506647 0.732051 0.040657 0.314767
C21   C     C_R   0.732040 0.506674 0.959386 0.314675
C22   C     C_R   0.506665 0.267950 0.959356 0.314933
C23   C     C_R   0.267952 0.493254 0.959406 0.314848
C24   C     C_R   0.493196 0.732038 0.959458 0.314788
C25   C     C_R   0.732071 0.008347 0.539935 0.316885
C26   C     C_R   0.991638 0.732072 0.539919 0.316754
C27   C     C_R   0.267935 0.991643 0.539936 0.316816
C28   C     C_R   0.008387 0.267942 0.539940 0.316681
C29   C     C_R   0.267931 0.008357 0.460070 0.316757
C30   C     C_R   0.008353 0.732062 0.460052 0.316825
C31   C     C_R   0.732061 0.991610 0.460070 0.316700
C32   C     C_R   0.991647 0.267925 0.460078 0.316868
C33   C     C_R   0.232072 0.508335 0.039947 0.316854
C34   C     C_R   0.491629 0.232073 0.039905 0.316758
C35   C     C_R   0.767940 0.491561 0.039901 0.316646
C36   C     C_R   0.508305 0.767940 0.039982 0.316830
C37   C     C_R   0.767929 0.508327 0.960054 0.316823
C38   C     C_R   0.508319 0.232062 0.960028 0.316857
C39   C     C_R   0.232062 0.491619 0.960075 0.316751
C40   C     C_R   0.491567 0.767928 0.960120 0.316718
C41   C     C_R   0.714095 0.999983 0.500003 -0.085167
C42   C     C_R   0.999998 0.714095 0.499987 -0.085181
C43   C     C_R   0.285905 0.999999 0.500003 -0.085177
C44   C     C_R   0.000014 0.285905 0.500007 -0.085153
C45   C     C_R   0.214095 0.499982 0.000011 -0.085171
C46   C     C_R   0.499980 0.214095 0.999969 -0.085207
C47   C     C_R   0.785907 0.499951 0.999977 -0.085113
C48   C     C_R   0.499946 0.785906 0.000047 -0.085144
C49   C     C_R   0.786121 0.999969 0.500000 -0.157791
C50   C     C_R   0.999990 0.786122 0.499982 -0.157723
C51   C     C_R   0.213878 0.000003 0.500004 -0.157732
C52   C     C_R   0.000024 0.213879 0.500014 -0.157851
C53   C     C_R   0.286122 0.499967 0.000008 -0.157698
C54   C     C_R   0.499962 0.286122 0.999960 -0.157724
C55   C     C_R   0.713880 0.499928 0.999979 -0.158002
C56   C     C_R   0.499917 0.713880 0.000060 -0.158019
C57   C     C_R   0.658529 0.025263 0.475518 0.274566
C58   C     C_R   0.974725 0.658522 0.475503 0.274607
C59   C     C_R   0.341471 0.974724 0.475511 0.274584
C60   C     C_R   0.025276 0.341471 0.475509 0.274624
C61   C     C_R   0.341474 0.025274 0.524492 0.274611
C62   C     C_R   0.025275 0.658532 0.524479 0.274587
C63   C     C_R   0.658525 0.974721 0.524493 0.274621
C64   C     C_R   0.974737 0.341475 0.524494 0.274561
C65   C     C_R   0.158530 0.525268 0.975534 0.274574
C66   C     C_R   0.474711 0.158518 0.975498 0.274609
C67   C     C_R   0.841483 0.474712 0.975464 0.274584
C68   C     C_R   0.525244 0.841457 0.975549 0.274618
C69   C     C_R   0.841466 0.525239 0.024488 0.274599
C70   C     C_R   0.525271 0.158537 0.024455 0.274593
C71   C     C_R   0.158525 0.474716 0.024489 0.274647
C72   C     C_R   0.474701 0.841489 0.024528 0.274567
C73   C     C_R   0.622266 0.026366 0.477432 0.212459
C74   C     C_R   0.973626 0.622259 0.477420 0.212428
C75   C     C_R   0.377735 0.973625 0.477424 0.212447
C76   C     C_R   0.026371 0.377735 0.477419 0.212417
C77   C     C_R   0.377738 0.026373 0.522578 0.212426
C78   C     C_R   0.026374 0.622268 0.522569 0.212449
C79   C     C_R   0.622262 0.973627 0.522580 0.212420
C80   C     C_R   0.973634 0.377738 0.522578 0.212460
C81   C     C_R   0.122267 0.526371 0.977446 0.212452
C82   C     C_R   0.473617 0.122255 0.977419 0.212435
C83   C     C_R   0.877746 0.473625 0.977379 0.212440
C84   C     C_R   0.526357 0.877721 0.977455 0.212419
C85   C     C_R   0.877729 0.526352 0.022576 0.212423
C86   C     C_R   0.526374 0.122273 0.022548 0.212449
C87   C     C_R   0.122262 0.473622 0.022574 0.212421
C88   C     C_R   0.473616 0.877752 0.022607 0.212466
C89   C     C_R   0.604219 0.999998 0.500005 -0.198670
C90   C     C_R   0.000000 0.604219 0.499996 -0.198672
C91   C     C_R   0.395781 0.999999 0.500000 -0.198669
C92   C     C_R   0.000001 0.395781 0.499998 -0.198665
C93   C     C_R   0.104219 0.499998 0.000008 -0.198688
C94   C     C_R   0.499998 0.104219 0.999988 -0.198684
C95   C     C_R   0.895782 0.499994 0.999982 -0.198650
C96   C     C_R   0.499993 0.895781 0.000024 -0.198672
C97   C     C_R   0.676266 0.999989 0.500005 0.066757
C98   C     C_R   0.999999 0.676266 0.499989 0.066722
C99   C     C_R   0.323734 0.999998 0.500002 0.066722
C100  C     C_R   0.000009 0.323734 0.500003 0.066758
C101  C     C_R   0.176267 0.499990 0.000012 0.066787
C102  C     C_R   0.499988 0.176267 0.999974 0.066706
C103  C     C_R   0.823735 0.499968 0.999977 0.066762
C104  C     C_R   0.499964 0.823734 0.000041 0.066764
C105  C     C_R   0.999999 0.933291 0.499997 1.032192
C106  C     C_R   0.066709 0.000001 0.500001 1.032179
C107  C     C_R   0.000000 0.066709 0.500004 1.032141
C108  C     C_R   0.933291 1.000000 0.499998 1.032151
C109  C     C_R   0.500000 0.433291 0.999996 1.032228
C110  C     C_R   0.566709 0.500000 0.000001 1.032053
C111  C     C_R   0.500005 0.566709 0.000004 1.031976
C112  C     C_R   0.433291 0.500001 0.999999 1.032259
C113  C     C_R   0.500000 0.000002 0.584708 0.794987
C114  C     C_R   0.000001 0.500000 0.584708 0.794982
C115  C     C_R   0.500000 0.999997 0.415292 0.794979
C116  C     C_R   0.999999 0.500000 0.415292 0.794990
C117  C     C_R   1.000000 0.500002 0.084708 0.794992
C118  C     C_R   0.500001 1.000000 0.084708 0.794975
C119  C     C_R   1.000000 0.499997 0.915292 0.794991
C120  C     C_R   0.499999 0.000000 0.915292 0.794976
C121  C     C_1   0.499999 0.000007 0.635956 -0.159312
C122  C     C_1   0.000003 0.499998 0.635956 -0.159321
C123  C     C_1   0.500001 0.999993 0.364044 -0.159321
C124  C     C_1   0.999997 0.500002 0.364044 -0.159311
C125  C     C_1   0.999999 0.500007 0.135956 -0.159314
C126  C     C_1   0.500003 0.999998 0.135956 -0.159319
C127  C     C_1   0.000001 0.499993 0.864044 -0.159311
C128  C     C_1   0.499997 0.000002 0.864044 -0.159322
C129  C     C_1   0.499998 0.000007 0.678411 0.007929
C130  C     C_1   0.000003 0.499997 0.678411 0.007925
C131  C     C_1   0.500001 0.999992 0.321589 0.007924
C132  C     C_1   0.999997 0.500003 0.321589 0.007930
C133  C     C_1   0.999999 0.500007 0.178411 0.007930
C134  C     C_1   0.500003 0.999996 0.178411 0.007924
C135  C     C_1   0.000001 0.499993 0.821589 0.007928
C136  C     C_1   0.499997 0.000003 0.821589 0.007927
C137  C     C_1   0.499998 0.000007 0.728772 0.010933
C138  C     C_1   0.000003 0.499995 0.728772 0.010930
C139  C     C_1   0.500002 0.999993 0.271228 0.010929
C140  C     C_1   0.999997 0.500005 0.271228 0.010934
C141  C     C_1   0.999998 0.500007 0.228772 0.010934
C142  C     C_1   0.500003 0.999995 0.228772 0.010929
C143  C     C_1   0.000002 0.499993 0.771228 0.010931
C144  C     C_1   0.499997 0.000005 0.771227 0.010933
C145  C     C_R   0.878130 0.971540 0.482823 0.244473
C146  C     C_R   0.028441 0.878122 0.482817 0.244557
C147  C     C_R   0.121874 0.028448 0.482834 0.244578
C148  C     C_R   0.971556 0.121878 0.482855 0.244767
C149  C     C_R   0.121876 0.971555 0.517170 0.244580
C150  C     C_R   0.971549 0.878128 0.517161 0.244592
C151  C     C_R   0.878120 0.028441 0.517161 0.244688
C152  C     C_R   0.028458 0.121872 0.517180 0.244508
C153  C     C_R   0.378131 0.471544 0.982814 0.244530
C154  C     C_R   0.528425 0.378118 0.982789 0.244557
C155  C     C_R   0.621889 0.528433 0.982867 0.244686
C156  C     C_R   0.471517 0.621860 0.982874 0.244830
C157  C     C_R   0.621864 0.471515 0.017131 0.244654
C158  C     C_R   0.471544 0.378132 0.017167 0.244598
C159  C     C_R   0.378120 0.528435 0.017182 0.244595
C160  C     C_R   0.528427 0.621893 0.017178 0.244490
C161  C     C_R   0.842203 0.970764 0.485024 0.348455
C162  C     C_R   0.029208 0.842196 0.485013 0.348470
C163  C     C_R   0.157801 0.029217 0.485035 0.348465
C164  C     C_R   0.970794 0.157804 0.485059 0.348595
C165  C     C_R   0.157802 0.970787 0.514969 0.348489
C166  C     C_R   0.970778 0.842201 0.514956 0.348456
C167  C     C_R   0.842194 0.029201 0.514961 0.348525
C168  C     C_R   0.029231 0.157799 0.514984 0.348504
C169  C     C_R   0.342204 0.470767 0.985017 0.348436
C170  C     C_R   0.529184 0.342191 0.984977 0.348388
C171  C     C_R   0.657814 0.529179 0.985059 0.348894
C172  C     C_R   0.470726 0.657786 0.985090 0.348614
C173  C     C_R   0.657791 0.470730 0.014923 0.348623
C174  C     C_R   0.470764 0.342206 0.014955 0.348468
C175  C     C_R   0.342193 0.529195 0.014984 0.348393
C176  C     C_R   0.529167 0.657819 0.015005 0.348786
C177  C     C_R   0.824038 0.999978 0.499992 -0.131665
C178  C     C_R   0.999992 0.824038 0.499983 -0.131599
C179  C     C_R   0.175962 0.000003 0.500003 -0.131602
C180  C     C_R   0.000015 0.175962 0.500023 -0.131703
C181  C     C_R   0.324038 0.499976 0.000002 -0.131597
C182  C     C_R   0.499969 0.324038 0.999962 -0.131585
C183  C     C_R   0.675964 0.499945 0.999987 -0.131858
C184  C     C_R   0.499934 0.675964 0.000057 -0.131852
C185  C     C_R   0.895931 0.999993 0.499995 -0.378187
C186  C     C_R   0.999996 0.895931 0.499990 -0.378158
C187  C     C_R   0.104069 0.000002 0.500003 -0.378178
C188  C     C_R   0.000005 0.104069 0.500012 -0.378256
C189  C     C_R   0.395931 0.499994 0.999996 -0.378128
C190  C     C_R   0.499990 0.395931 0.999986 -0.378153
C191  C     C_R   0.604070 0.499983 0.000001 -0.378529
C192  C     C_R   0.499984 0.604070 0.000016 -0.378477
Cu1   Cu    Cu3+1 0.500000 0.034220 0.500000 1.024079
Cu2   Cu    Cu3+1 0.965780 0.500000 0.500000 1.024080
Cu3   Cu    Cu3+1 0.500000 0.965780 0.500000 1.024079
Cu4   Cu    Cu3+1 0.034220 0.500000 0.500000 1.024077
Cu5   Cu    Cu3+1 1.000000 0.534220 0.000000 1.024074
Cu6   Cu    Cu3+1 0.465780 0.000000 0.000000 1.024086
Cu7   Cu    Cu3+1 1.000000 0.465780 0.000000 1.024075
Cu8   Cu    Cu3+1 0.534220 0.000000 0.000000 1.024080
Cu9   Cu    Cu3+1 0.000000 0.000000 0.542480 0.938370
Cu10  Cu    Cu3+1 1.000000 1.000000 0.457520 0.938370
Cu11  Cu    Cu3+1 0.500000 0.500000 0.042480 0.938349
Cu12  Cu    Cu3+1 0.500000 0.500000 0.957520 0.938355
O1    O     O_R   0.549910 0.028900 0.500020 -0.544444
O2    O     O_R   0.971100 0.549910 0.500020 -0.544452
O3    O     O_R   0.450090 0.971100 0.500020 -0.544448
O4    O     O_R   0.028900 0.450090 0.500020 -0.544461
O5    O     O_R   0.450090 0.028900 0.499980 -0.544454
O6    O     O_R   0.028900 0.549910 0.499980 -0.544445
O7    O     O_R   0.549910 0.971100 0.499980 -0.544454
O8    O     O_R   0.971100 0.450090 0.499980 -0.544450
O9    O     O_R   0.049910 0.528900 0.000020 -0.544430
O10   O     O_R   0.471100 0.049910 0.000020 -0.544440
O11   O     O_R   0.950090 0.471100 0.000020 -0.544479
O12   O     O_R   0.528900 0.950090 0.000020 -0.544451
O13   O     O_R   0.950090 0.528900 0.999980 -0.544478
O14   O     O_R   0.528900 0.049910 0.999980 -0.544431
O15   O     O_R   0.049910 0.471100 0.999980 -0.544443
O16   O     O_R   0.471100 0.950090 0.999980 -0.544450
O17   O     O_R   0.500010 0.028900 0.561980 -0.565055
O18   O     O_R   0.971100 0.500010 0.561980 -0.565043
O19   O     O_R   0.499990 0.971100 0.561980 -0.565041
O20   O     O_R   0.028900 0.499990 0.561980 -0.565061
O21   O     O_R   0.499990 0.028900 0.438020 -0.565045
O22   O     O_R   0.028900 0.500010 0.438020 -0.565048
O23   O     O_R   0.500010 0.971100 0.438020 -0.565058
O24   O     O_R   0.971100 0.499990 0.438020 -0.565049
O25   O     O_R   0.000010 0.528900 0.061980 -0.565057
O26   O     O_R   0.471100 0.000010 0.061980 -0.565030
O27   O     O_R   0.999990 0.471100 0.061980 -0.565044
O28   O     O_R   0.528900 0.999990 0.061980 -0.565069
O29   O     O_R   0.999990 0.528900 0.938020 -0.565054
O30   O     O_R   0.528900 0.000010 0.938020 -0.565060
O31   O     O_R   0.000010 0.471100 0.938020 -0.565045
O32   O     O_R   0.471100 0.999990 0.938020 -0.565043
O33   O     O_R   1.000000 0.950030 0.535800 -0.604457
O34   O     O_R   0.049970 0.000000 0.535800 -0.604471
O35   O     O_R   1.000000 0.049970 0.535800 -0.604447
O36   O     O_R   0.950030 0.000000 0.535800 -0.604503
O37   O     O_R   0.000000 0.950030 0.464200 -0.604468
O38   O     O_R   0.950030 0.000000 0.464200 -0.604448
O39   O     O_R   0.000000 0.049970 0.464200 -0.604506
O40   O     O_R   0.049970 0.000000 0.464200 -0.604456
O41   O     O_R   0.500000 0.450030 0.035800 -0.604462
O42   O     O_R   0.549970 0.500000 0.035800 -0.604334
O43   O     O_R   0.500000 0.549970 0.035800 -0.604635
O44   O     O_R   0.450030 0.500000 0.035800 -0.604459
O45   O     O_R   0.500000 0.450030 0.964200 -0.604440
O46   O     O_R   0.450030 0.500000 0.964200 -0.604453
O47   O     O_R   0.500000 0.549970 0.964200 -0.604395
O48   O     O_R   0.549970 0.500000 0.964200 -0.604585
O49   O     O_3   0.896031 0.942901 0.468444 -0.527028
C193  C     C_3   0.897054 0.942749 0.420436 0.143056
H1    H     H_    0.908883 0.966709 0.407054 0.125761
H2    H     H_    0.870880 0.939939 0.405812 0.176782
C194  C     C_3   0.918592 0.912538 0.404561 -0.795129
H3    H     H_    0.906436 0.888157 0.415434 0.237093
H4    H     H_    0.920560 0.912730 0.366879 0.187422
H5    H     H_    0.944759 0.914147 0.419297 0.254737
O50   O     O_3   0.057085 0.896015 0.468448 -0.526961
C195  C     C_3   0.057233 0.897043 0.420441 0.143066
H6    H     H_    0.033277 0.908883 0.407058 0.125738
H7    H     H_    0.060032 0.870870 0.405808 0.176772
C196  C     C_3   0.087452 0.918572 0.404579 -0.795031
H8    H     H_    0.111828 0.906406 0.415455 0.237140
H9    H     H_    0.087259 0.920542 0.366897 0.187396
H10   H     H_    0.085852 0.944739 0.419320 0.254731
O51   O     O_3   0.103977 0.057087 0.468456 -0.526965
C197  C     C_3   0.102947 0.057226 0.420449 0.143076
H11   H     H_    0.091115 0.033264 0.407067 0.125747
H12   H     H_    0.129119 0.060031 0.405822 0.176783
C198  C     C_3   0.081408 0.087435 0.404575 -0.795111
H13   H     H_    0.093567 0.111818 0.415445 0.237082
H14   H     H_    0.079433 0.087232 0.366893 0.187420
H15   H     H_    0.055243 0.085831 0.419313 0.254755
O52   O     O_3   0.942904 0.103987 0.468497 -0.526797
C199  C     C_3   0.942741 0.102948 0.420490 0.143084
H16   H     H_    0.966689 0.091097 0.407098 0.125699
H17   H     H_    0.939945 0.129118 0.405858 0.176759
C200  C     C_3   0.912510 0.081424 0.404639 -0.794852
H18   H     H_    0.888141 0.093598 0.415529 0.237228
H19   H     H_    0.912688 0.079447 0.366956 0.187344
H20   H     H_    0.914109 0.055259 0.419375 0.254708
O53   O     O_3   0.103982 0.942912 0.531536 -0.526954
C201  C     C_3   0.102953 0.942764 0.579543 0.143063
H21   H     H_    0.091113 0.966721 0.592930 0.125741
H22   H     H_    0.129125 0.939965 0.594173 0.176773
C202  C     C_3   0.081423 0.912546 0.595404 -0.795032
H23   H     H_    0.093589 0.888169 0.584523 0.237133
H24   H     H_    0.079452 0.912739 0.633086 0.187399
H25   H     H_    0.055256 0.914146 0.580665 0.254731
O54   O     O_3   0.942911 0.896026 0.531547 -0.526982
C203  C     C_3   0.942774 0.897056 0.579554 0.143067
H26   H     H_    0.966738 0.908884 0.592934 0.125750
H27   H     H_    0.939964 0.870884 0.594177 0.176793
C204  C     C_3   0.912569 0.918600 0.595437 -0.795166
H28   H     H_    0.888183 0.906444 0.584572 0.237046
H29   H     H_    0.912774 0.920575 0.633119 0.187438
H30   H     H_    0.914176 0.944765 0.580700 0.254759
O55   O     O_3   0.896009 0.057092 0.531523 -0.526829
C205  C     C_3   0.897049 0.057254 0.579530 0.143089
H31   H     H_    0.908902 0.033306 0.592916 0.125705
H32   H     H_    0.870878 0.060046 0.594165 0.176753
C206  C     C_3   0.918568 0.087486 0.595384 -0.794821
H33   H     H_    0.906392 0.111854 0.584499 0.237270
H34   H     H_    0.920544 0.087308 0.633066 0.187331
H35   H     H_    0.944734 0.085891 0.580645 0.254705
O56   O     O_3   0.057099 0.103973 0.531550 -0.526987
C207  C     C_3   0.057252 0.102949 0.579557 0.143063
H36   H     H_    0.033295 0.091115 0.592942 0.125751
H37   H     H_    0.060059 0.129123 0.594186 0.176773
C208  C     C_3   0.087469 0.081416 0.595423 -0.795090
H38   H     H_    0.111847 0.093577 0.584549 0.237101
H39   H     H_    0.087278 0.079446 0.633105 0.187412
H40   H     H_    0.085864 0.055248 0.580682 0.254734
O57   O     O_3   0.396032 0.442907 0.968429 -0.527028
C209  C     C_3   0.397053 0.442760 0.920422 0.143042
H41   H     H_    0.408877 0.466723 0.907041 0.125748
H42   H     H_    0.370880 0.439944 0.905799 0.176799
C210  C     C_3   0.418598 0.412554 0.904542 -0.795180
H43   H     H_    0.406451 0.388170 0.915417 0.237081
H44   H     H_    0.420562 0.412747 0.866859 0.187436
H45   H     H_    0.444767 0.414171 0.919273 0.254731
O58   O     O_3   0.557065 0.396006 0.968397 -0.526941
C211  C     C_3   0.557189 0.397037 0.920390 0.143103
H46   H     H_    0.533225 0.408876 0.907029 0.125731
H47   H     H_    0.559982 0.370865 0.905752 0.176775
C212  C     C_3   0.587398 0.418569 0.904503 -0.795040
H48   H     H_    0.611781 0.406402 0.915352 0.237132
H49   H     H_    0.587184 0.420545 0.866822 0.187394
H50   H     H_    0.585807 0.444734 0.919254 0.254766
O59   O     O_3   0.604011 0.557103 0.968560 -0.526628
C213  C     C_3   0.602945 0.557288 0.920555 0.143206
H51   H     H_    0.591020 0.533377 0.907160 0.125731
H52   H     H_    0.629113 0.560013 0.905891 0.176598
C214  C     C_3   0.581497 0.587584 0.904757 -0.794544
H53   H     H_    0.593762 0.611916 0.915619 0.237273
H54   H     H_    0.579471 0.587408 0.867080 0.187260
H55   H     H_    0.555345 0.586072 0.919555 0.254680
O60   O     O_3   0.442880 0.603949 0.968506 -0.526855
C215  C     C_3   0.442719 0.602923 0.920498 0.143051
H56   H     H_    0.466678 0.591097 0.907102 0.125746
H57   H     H_    0.439901 0.629095 0.905880 0.176760
C216  C     C_3   0.412507 0.581379 0.904633 -0.795024
H58   H     H_    0.388127 0.593530 0.915523 0.237106
H59   H     H_    0.412691 0.579411 0.866950 0.187397
H60   H     H_    0.414125 0.555211 0.919359 0.254718
O61   O     O_3   0.603957 0.442875 0.031480 -0.526916
C217  C     C_3   0.602933 0.442711 0.079488 0.143022
H61   H     H_    0.591099 0.466665 0.092891 0.125776
H62   H     H_    0.629107 0.439902 0.094112 0.176745
C218  C     C_3   0.581400 0.412491 0.095335 -0.795046
H63   H     H_    0.593562 0.388116 0.084445 0.237084
H64   H     H_    0.579429 0.412675 0.133018 0.187407
H65   H     H_    0.555233 0.414097 0.080598 0.254719
O62   O     O_3   0.442911 0.396036 0.031559 -0.527005
C219  C     C_3   0.442776 0.397061 0.079567 0.143050
H66   H     H_    0.466744 0.408883 0.092947 0.125753
H67   H     H_    0.439962 0.370889 0.094186 0.176804
C220  C     C_3   0.412576 0.418610 0.095455 -0.795185
H68   H     H_    0.388188 0.406463 0.084582 0.237067
H69   H     H_    0.412780 0.420578 0.133138 0.187442
H70   H     H_    0.414191 0.444777 0.080727 0.254744
O63   O     O_3   0.396010 0.557079 0.031571 -0.526913
C221  C     C_3   0.397045 0.557217 0.079578 0.143096
H71   H     H_    0.408886 0.533258 0.092947 0.125722
H72   H     H_    0.370874 0.560015 0.094210 0.176774
C222  C     C_3   0.418577 0.587433 0.095461 -0.795005
H73   H     H_    0.406410 0.611811 0.084600 0.237167
H74   H     H_    0.420553 0.587233 0.133143 0.187376
H75   H     H_    0.444742 0.585835 0.080720 0.254746
O64   O     O_3   0.557101 0.604021 0.031489 -0.526696
C223  C     C_3   0.557277 0.602939 0.079492 0.143199
H76   H     H_    0.533411 0.590912 0.092849 0.125900
H77   H     H_    0.559890 0.629111 0.094192 0.176461
C224  C     C_3   0.587658 0.581610 0.095293 -0.794439
H78   H     H_    0.611941 0.593987 0.084474 0.237379
H79   H     H_    0.587476 0.579561 0.132967 0.187243
H80   H     H_    0.586264 0.555460 0.080457 0.254583
O65   O     O_3   0.825017 0.941972 0.469692 -0.527662
C225  C     C_3   0.820352 0.919009 0.506244 0.103289
H81   H     H_    0.798274 0.927441 0.527354 0.116841
H82   H     H_    0.843633 0.916733 0.528052 0.147454
C226  C     C_3   0.812386 0.883624 0.487330 -0.770592
H83   H     H_    0.834146 0.874473 0.466182 0.253381
H84   H     H_    0.808288 0.865309 0.515732 0.192453
H85   H     H_    0.788838 0.884629 0.466121 0.243823
O66   O     O_3   0.057995 0.825006 0.469681 -0.527679
C227  C     C_3   0.080935 0.820281 0.506252 0.103408
H86   H     H_    0.072498 0.798157 0.527269 0.116921
H87   H     H_    0.083186 0.843519 0.528150 0.147106
C228  C     C_3   0.116337 0.812368 0.487365 -0.770583
H88   H     H_    0.125493 0.834175 0.466310 0.253436
H89   H     H_    0.134635 0.808224 0.515780 0.192449
H90   H     H_    0.115358 0.788862 0.466069 0.243815
O67   O     O_3   0.174987 0.058005 0.469706 -0.527667
C229  C     C_3   0.179707 0.080951 0.506276 0.103365
H91   H     H_    0.201821 0.072514 0.527314 0.116900
H92   H     H_    0.156462 0.083211 0.528152 0.147177
C230  C     C_3   0.187633 0.116348 0.487388 -0.770585
H93   H     H_    0.165835 0.125503 0.466311 0.253416
H94   H     H_    0.191773 0.134650 0.515802 0.192453
H95   H     H_    0.211146 0.115359 0.466113 0.243814
O68   O     O_3   0.941998 0.174989 0.469744 -0.527659
C231  C     C_3   0.919122 0.179821 0.506359 0.103582
H96   H     H_    0.927587 0.202017 0.527232 0.117036
H97   H     H_    0.916924 0.156655 0.528391 0.146544
C232  C     C_3   0.883682 0.187653 0.487538 -0.770532
H98   H     H_    0.874500 0.165773 0.466624 0.253527
H99   H     H_    0.865434 0.191880 0.515985 0.192430
H100  H     H_    0.884609 0.211091 0.466115 0.243796
O69   O     O_3   0.174991 0.941998 0.530294 -0.527679
C233  C     C_3   0.179720 0.919061 0.493718 0.103419
H101  H     H_    0.201851 0.927496 0.472711 0.116932
H102  H     H_    0.156487 0.916818 0.471811 0.147067
C234  C     C_3   0.187620 0.883655 0.512596 -0.770572
H103  H     H_    0.165806 0.874502 0.533641 0.253441
H104  H     H_    0.191768 0.865360 0.484177 0.192444
H105  H     H_    0.211121 0.884628 0.533900 0.243816
O70   O     O_3   0.941989 0.825016 0.530287 -0.527672
C235  C     C_3   0.919040 0.820302 0.493722 0.103362
H106  H     H_    0.927474 0.798189 0.472674 0.116890
H107  H     H_    0.916780 0.843549 0.471854 0.147205
C236  C     C_3   0.883644 0.812375 0.512617 -0.770577
H108  H     H_    0.874491 0.834171 0.533703 0.253401
H109  H     H_    0.865340 0.808239 0.484207 0.192454
H110  H     H_    0.884634 0.788860 0.533885 0.243813
O71   O     O_3   0.825006 0.057992 0.530288 -0.527651
C237  C     C_3   0.820195 0.080882 0.493688 0.103506
H111  H     H_    0.798032 0.072408 0.472761 0.116975
H112  H     H_    0.843387 0.083115 0.471709 0.146745
C238  C     C_3   0.812303 0.116305 0.512532 -0.770575
H113  H     H_    0.834147 0.125497 0.533500 0.253498
H114  H     H_    0.808094 0.134564 0.484095 0.192445
H115  H     H_    0.788840 0.115342 0.533904 0.243798
O72   O     O_3   0.058025 0.174985 0.530311 -0.527654
C239  C     C_3   0.080974 0.179674 0.493746 0.103352
H116  H     H_    0.072538 0.201772 0.472679 0.116880
H117  H     H_    0.083234 0.156411 0.471898 0.147294
C240  C     C_3   0.116369 0.187615 0.512641 -0.770585
H118  H     H_    0.125524 0.165834 0.533745 0.253402
H119  H     H_    0.134673 0.191733 0.484230 0.192449
H120  H     H_    0.115379 0.211145 0.533891 0.243821
O73   O     O_3   0.325020 0.441976 0.969678 -0.527686
C241  C     C_3   0.320344 0.419012 0.006227 0.103330
H121  H     H_    0.298248 0.427435 0.027311 0.116864
H122  H     H_    0.343612 0.416750 0.028064 0.147355
C242  C     C_3   0.312408 0.383622 0.987309 -0.770616
H123  H     H_    0.334189 0.374480 0.966190 0.253389
H124  H     H_    0.308299 0.365307 0.015708 0.192455
H125  H     H_    0.288875 0.384614 0.966069 0.243834
O74   O     O_3   0.557959 0.324996 0.969613 -0.527661
C243  C     C_3   0.580917 0.320259 0.006160 0.103347
H126  H     H_    0.572461 0.298165 0.027217 0.116874
H127  H     H_    0.583218 0.343512 0.028021 0.147243
C244  C     C_3   0.616293 0.312276 0.987239 -0.770660
H128  H     H_    0.625467 0.334051 0.966140 0.253402
H129  H     H_    0.634604 0.308125 0.015635 0.192479
H130  H     H_    0.615260 0.288754 0.965977 0.243805
O75   O     O_3   0.675002 0.557985 0.969791 -0.527587
C245  C     C_3   0.679927 0.580787 0.006474 0.103770
H131  H     H_    0.702206 0.572305 0.027173 0.117169
H132  H     H_    0.656837 0.582907 0.028662 0.145970
C246  C     C_3   0.687647 0.616280 0.987754 -0.770449
H133  H     H_    0.665689 0.625473 0.967000 0.253665
H134  H     H_    0.691934 0.634474 0.016252 0.192385
H135  H     H_    0.711019 0.615435 0.966197 0.243760
O76   O     O_3   0.441920 0.674955 0.969778 -0.527652
C247  C     C_3   0.419012 0.679709 0.006375 0.103526
H136  H     H_    0.427444 0.701877 0.027325 0.116989
H137  H     H_    0.416811 0.656504 0.028332 0.146850
C248  C     C_3   0.383581 0.687548 0.987528 -0.770541
H138  H     H_    0.374431 0.665697 0.966539 0.253473
H139  H     H_    0.365307 0.691716 0.015963 0.192418
H140  H     H_    0.384509 0.711022 0.966175 0.243836
O77   O     O_3   0.674966 0.441923 0.030216 -0.527643
C249  C     C_3   0.679673 0.419001 0.993617 0.103488
H141  H     H_    0.701814 0.427425 0.972621 0.116962
H142  H     H_    0.656440 0.416794 0.971704 0.147044
C250  C     C_3   0.687534 0.383576 0.012460 -0.770539
H143  H     H_    0.665708 0.374434 0.033493 0.253455
H144  H     H_    0.691666 0.365293 0.984023 0.192419
H145  H     H_    0.711034 0.384512 0.033769 0.243835
O78   O     O_3   0.441977 0.325025 0.030297 -0.527681
C251  C     C_3   0.419012 0.320327 0.993745 0.103351
H146  H     H_    0.427431 0.298216 0.972684 0.116886
H147  H     H_    0.416752 0.343580 0.971888 0.147254
C252  C     C_3   0.383620 0.312408 0.012659 -0.770614
H148  H     H_    0.374482 0.334203 0.033758 0.253400
H149  H     H_    0.365305 0.308283 0.984259 0.192454
H150  H     H_    0.384610 0.288888 0.033918 0.243833
O79   O     O_3   0.325001 0.557975 0.030337 -0.527658
C253  C     C_3   0.320253 0.580916 0.993779 0.103341
H151  H     H_    0.298156 0.572447 0.972726 0.116872
H152  H     H_    0.343501 0.583212 0.971917 0.147212
C254  C     C_3   0.312267 0.616299 0.012684 -0.770659
H153  H     H_    0.334044 0.625485 0.033780 0.253414
H154  H     H_    0.308109 0.634597 0.984279 0.192479
H155  H     H_    0.288749 0.615272 0.033945 0.243804
O80   O     O_3   0.557955 0.675016 0.030326 -0.527541
C255  C     C_3   0.580812 0.679892 0.993703 0.103647
H156  H     H_    0.572319 0.702093 0.972869 0.117026
H157  H     H_    0.583023 0.656742 0.971636 0.146442
C256  C     C_3   0.616251 0.687747 0.012514 -0.770517
H158  H     H_    0.625460 0.665865 0.033391 0.253566
H159  H     H_    0.634485 0.692007 0.984061 0.192423
H160  H     H_    0.615309 0.711172 0.033971 0.243778
O81   O     O_3   0.785080 0.014426 0.580522 -0.519653
C257  C     C_3   0.792499 0.983705 0.603788 0.110497
H161  H     H_    0.811229 0.968019 0.584335 0.101976
H162  H     H_    0.768787 0.968464 0.610067 0.163677
C258  C     C_3   0.808612 0.992358 0.649451 -0.780062
H163  H     H_    0.790524 0.007871 0.670136 0.256611
H164  H     H_    0.814760 0.968385 0.668112 0.193486
H165  H     H_    0.832622 0.007158 0.644184 0.235123
O82   O     O_3   0.985559 0.785085 0.580506 -0.519656
C259  C     C_3   0.016285 0.792469 0.603792 0.110457
H166  H     H_    0.032004 0.811169 0.584341 0.101918
H167  H     H_    0.031489 0.768738 0.610095 0.163807
C260  C     C_3   0.007643 0.808612 0.649440 -0.780093
H168  H     H_    0.992098 0.790555 0.670121 0.256594
H169  H     H_    0.031619 0.814732 0.668117 0.193501
H170  H     H_    0.992879 0.832641 0.644148 0.235108
O83   O     O_3   0.214931 0.985570 0.580526 -0.519636
C261  C     C_3   0.207534 0.016297 0.603803 0.110464
H171  H     H_    0.188818 0.031998 0.584352 0.101931
H172  H     H_    0.231258 0.031519 0.610097 0.163744
C262  C     C_3   0.191410 0.007655 0.649458 -0.780064
H173  H     H_    0.209484 0.992129 0.670141 0.256603
H174  H     H_    0.185280 0.031633 0.668128 0.193489
H175  H     H_    0.167390 0.992875 0.644175 0.235119
O84   O     O_3   0.014476 0.214942 0.580533 -0.519635
C263  C     C_3   0.983757 0.207582 0.603837 0.110430
H176  H     H_    0.968015 0.188891 0.584393 0.101854
H177  H     H_    0.968573 0.231326 0.610155 0.163843
C264  C     C_3   0.992410 0.191440 0.649476 -0.780067
H178  H     H_    0.007977 0.209490 0.670151 0.256580
H179  H     H_    0.968438 0.185340 0.668168 0.193499
H180  H     H_    0.007154 0.167401 0.644170 0.235114
O85   O     O_3   0.214922 0.014434 0.419482 -0.519656
C265  C     C_3   0.207541 0.983708 0.396192 0.110455
H181  H     H_    0.188840 0.967989 0.415639 0.101916
H182  H     H_    0.231275 0.968505 0.389888 0.163806
C266  C     C_3   0.191403 0.992350 0.350544 -0.780089
H183  H     H_    0.209464 0.007894 0.329865 0.256593
H184  H     H_    0.185286 0.968373 0.331863 0.193499
H185  H     H_    0.167374 0.007113 0.355836 0.235116
O86   O     O_3   0.014424 0.785061 0.419458 -0.519631
C267  C     C_3   0.983696 0.792459 0.396187 0.110466
H186  H     H_    0.968000 0.811181 0.415639 0.101939
H187  H     H_    0.968470 0.768737 0.389901 0.163725
C268  C     C_3   0.992337 0.808573 0.350527 -0.780049
H188  H     H_    0.007860 0.790492 0.329844 0.256603
H189  H     H_    0.968360 0.814703 0.331862 0.193485
H190  H     H_    0.007123 0.832591 0.355801 0.235125
O87   O     O_3   0.785065 0.985518 0.419478 -0.519630
C269  C     C_3   0.792436 0.016238 0.396184 0.110424
H191  H     H_    0.811139 0.031966 0.415625 0.101884
H192  H     H_    0.768699 0.031436 0.389883 0.163806
C270  C     C_3   0.808565 0.007584 0.350533 -0.780044
H193  H     H_    0.790502 0.992030 0.329860 0.256585
H194  H     H_    0.814674 0.031556 0.331849 0.193495
H195  H     H_    0.832597 0.992826 0.355822 0.235116
O88   O     O_3   0.985564 0.214911 0.419495 -0.519665
C271  C     C_3   0.016284 0.207496 0.396220 0.110498
H196  H     H_    0.031982 0.188780 0.415674 0.101947
H197  H     H_    0.031513 0.231212 0.389921 0.163716
C272  C     C_3   0.007629 0.191362 0.350569 -0.780088
H198  H     H_    0.992104 0.209436 0.329882 0.256608
H199  H     H_    0.031601 0.185218 0.331899 0.193492
H200  H     H_    0.992840 0.167349 0.355855 0.235107
O89   O     O_3   0.285080 0.514397 0.080539 -0.519616
C273  C     C_3   0.292498 0.483667 0.103786 0.110472
H201  H     H_    0.311225 0.467987 0.084323 0.101959
H202  H     H_    0.268784 0.468427 0.110058 0.163669
C274  C     C_3   0.308614 0.492304 0.149453 -0.780040
H203  H     H_    0.290528 0.507811 0.170149 0.256608
H204  H     H_    0.314760 0.468325 0.168100 0.193482
H205  H     H_    0.332624 0.507104 0.144193 0.235120
O90   O     O_3   0.485555 0.285086 0.080492 -0.519653
C275  C     C_3   0.516286 0.292474 0.103762 0.110455
H206  H     H_    0.531993 0.311182 0.084308 0.101934
H207  H     H_    0.531499 0.268746 0.110050 0.163797
C276  C     C_3   0.507654 0.308607 0.149420 -0.780074
H208  H     H_    0.492122 0.290542 0.170105 0.256594
H209  H     H_    0.531635 0.314731 0.168085 0.193499
H210  H     H_    0.492882 0.332633 0.144143 0.235112
O91   O     O_3   0.714935 0.485451 0.080484 -0.519609
C277  C     C_3   0.707573 0.516163 0.103815 0.110416
H211  H     H_    0.688895 0.531919 0.084376 0.101766
H212  H     H_    0.731318 0.531338 0.110165 0.163867
C278  C     C_3   0.691407 0.507496 0.149434 -0.780073
H213  H     H_    0.709443 0.491916 0.170106 0.256583
H214  H     H_    0.685304 0.531462 0.168147 0.193499
H215  H     H_    0.667365 0.492760 0.144096 0.235078
O92   O     O_3   0.514371 0.714939 0.080578 -0.519693
C279  C     C_3   0.483648 0.707565 0.103867 0.110448
H216  H     H_    0.467931 0.688852 0.084426 0.101929
H217  H     H_    0.468441 0.731298 0.110157 0.163759
C280  C     C_3   0.492297 0.691450 0.149525 -0.780044
H218  H     H_    0.507839 0.709523 0.170198 0.256594
H219  H     H_    0.468322 0.685336 0.168203 0.193491
H220  H     H_    0.507065 0.667421 0.144248 0.235145
O93   O     O_3   0.714916 0.514419 0.919478 -0.519747
C281  C     C_3   0.707538 0.483709 0.896151 0.110500
H221  H     H_    0.688851 0.467966 0.915590 0.101920
H222  H     H_    0.731275 0.468521 0.889809 0.163839
C282  C     C_3   0.691377 0.492380 0.850527 -0.780167
H223  H     H_    0.709421 0.507949 0.829857 0.256601
H224  H     H_    0.685262 0.468416 0.831817 0.193515
H225  H     H_    0.667343 0.507128 0.855857 0.235106
O94   O     O_3   0.514367 0.285060 0.919427 -0.519606
C283  C     C_3   0.483631 0.292460 0.896179 0.110466
H226  H     H_    0.467947 0.311188 0.915639 0.101951
H227  H     H_    0.468397 0.268740 0.889910 0.163694
C284  C     C_3   0.492254 0.308567 0.850508 -0.780030
H228  H     H_    0.507763 0.290480 0.829816 0.256605
H229  H     H_    0.468269 0.314699 0.831861 0.193482
H230  H     H_    0.507046 0.332583 0.855765 0.235134
O95   O     O_3   0.285064 0.485534 0.919480 -0.519682
C285  C     C_3   0.292447 0.516259 0.896203 0.110432
H231  H     H_    0.311166 0.531967 0.915648 0.101954
H232  H     H_    0.268719 0.531474 0.889924 0.163775
C286  C     C_3   0.308559 0.507613 0.850539 -0.780055
H233  H     H_    0.290482 0.492079 0.829863 0.256593
H234  H     H_    0.314678 0.531589 0.831869 0.193497
H235  H     H_    0.332585 0.492839 0.855807 0.235128
O96   O     O_3   0.485465 0.714914 0.919540 -0.519626
C287  C     C_3   0.516185 0.707519 0.896251 0.110439
H236  H     H_    0.531906 0.688822 0.915705 0.101831
H237  H     H_    0.531391 0.731247 0.889935 0.163791
C288  C     C_3   0.507529 0.691367 0.850612 -0.780053
H238  H     H_    0.491984 0.709422 0.829925 0.256590
H239  H     H_    0.531501 0.685238 0.831933 0.193491
H240  H     H_    0.492762 0.667342 0.855916 0.235085
O97   O     O_3   0.714435 0.016268 0.579344 -0.533657
C289  C     C_3   0.710835 0.052217 0.581907 0.097285
H241  H     H_    0.697297 0.062496 0.551423 0.146898
H242  H     H_    0.736331 0.064872 0.585042 0.178994
C290  C     C_3   0.689727 0.061205 0.623706 -0.773324
H243  H     H_    0.702757 0.051726 0.654860 0.255626
H244  H     H_    0.686725 0.089451 0.626168 0.197681
H245  H     H_    0.663942 0.049264 0.621224 0.251200
O98   O     O_3   0.983735 0.714437 0.579330 -0.533727
C291  C     C_3   0.947787 0.710836 0.581909 0.097311
H246  H     H_    0.937495 0.697298 0.551426 0.146893
H247  H     H_    0.935133 0.736331 0.585053 0.179019
C292  C     C_3   0.938817 0.689726 0.623708 -0.773369
H248  H     H_    0.948309 0.702756 0.654860 0.255619
H249  H     H_    0.910572 0.686724 0.626181 0.197687
H250  H     H_    0.950757 0.663942 0.621217 0.251203
O99   O     O_3   0.285578 0.983737 0.579345 -0.533687
C293  C     C_3   0.289187 0.947790 0.581909 0.097308
H251  H     H_    0.302725 0.937506 0.551425 0.146896
H252  H     H_    0.263694 0.935130 0.585043 0.178985
C294  C     C_3   0.310302 0.938819 0.623709 -0.773333
H253  H     H_    0.297272 0.948303 0.654862 0.255622
H254  H     H_    0.313310 0.910574 0.626171 0.197683
H255  H     H_    0.336083 0.950765 0.621227 0.251201
O100  O     O_3   0.016302 0.285593 0.579344 -0.533764
C295  C     C_3   0.052251 0.289190 0.581914 0.097326
H256  H     H_    0.062537 0.302715 0.551426 0.146904
H257  H     H_    0.064902 0.263694 0.585062 0.179023
C296  C     C_3   0.061233 0.310314 0.623707 -0.773392
H258  H     H_    0.051747 0.297298 0.654864 0.255616
H259  H     H_    0.089479 0.313314 0.626173 0.197690
H260  H     H_    0.049295 0.336099 0.621212 0.251205
O101  O     O_3   0.285571 0.016261 0.420661 -0.533727
C297  C     C_3   0.289170 0.052209 0.418087 0.097310
H261  H     H_    0.302705 0.062501 0.448571 0.146893
H262  H     H_    0.263675 0.064861 0.414943 0.179019
C298  C     C_3   0.310284 0.061179 0.376289 -0.773369
H263  H     H_    0.297257 0.051687 0.345136 0.255618
H264  H     H_    0.313285 0.089424 0.373820 0.197687
H265  H     H_    0.336068 0.049240 0.378781 0.251203
O102  O     O_3   0.016260 0.714415 0.420642 -0.533681
C299  C     C_3   0.052207 0.710808 0.418074 0.097312
H266  H     H_    0.062491 0.697273 0.448557 0.146893
H267  H     H_    0.064866 0.736301 0.414938 0.178983
C300  C     C_3   0.061180 0.689690 0.376273 -0.773335
H268  H     H_    0.051696 0.702716 0.345121 0.255622
H269  H     H_    0.089425 0.686682 0.373808 0.197683
H270  H     H_    0.049235 0.663908 0.378757 0.251201
O103  O     O_3   0.714415 0.983697 0.420663 -0.533753
C301  C     C_3   0.710816 0.947749 0.418086 0.097328
H271  H     H_    0.697288 0.937462 0.448571 0.146902
H272  H     H_    0.736311 0.935096 0.414937 0.179026
C302  C     C_3   0.689695 0.938770 0.376291 -0.773390
H273  H     H_    0.702715 0.948257 0.345136 0.255617
H274  H     H_    0.686694 0.910524 0.373818 0.197689
H275  H     H_    0.663910 0.950708 0.378787 0.251204
O104  O     O_3   0.983726 0.285557 0.420669 -0.533670
C303  C     C_3   0.947777 0.289159 0.418114 0.097286
H276  H     H_    0.937501 0.302702 0.448599 0.146901
H277  H     H_    0.935120 0.263664 0.414984 0.178994
C304  C     C_3   0.938789 0.310263 0.376314 -0.773326
H278  H     H_    0.948265 0.297229 0.345159 0.255625
H279  H     H_    0.910543 0.313267 0.373859 0.197683
H280  H     H_    0.950732 0.336047 0.378791 0.251202
O105  O     O_3   0.214436 0.516245 0.079360 -0.533656
C305  C     C_3   0.210837 0.552193 0.081942 0.097299
H281  H     H_    0.197298 0.562481 0.051463 0.146891
H282  H     H_    0.236333 0.564846 0.085082 0.178988
C306  C     C_3   0.189730 0.561169 0.123746 -0.773327
H283  H     H_    0.202760 0.551681 0.154895 0.255628
H284  H     H_    0.186729 0.589415 0.126222 0.197678
H285  H     H_    0.163944 0.549230 0.121259 0.251200
O106  O     O_3   0.483740 0.214437 0.079321 -0.533720
C307  C     C_3   0.447794 0.210830 0.081918 0.097317
H286  H     H_    0.437496 0.197288 0.051442 0.146885
H287  H     H_    0.435136 0.236323 0.085067 0.179012
C308  C     C_3   0.438841 0.189720 0.123724 -0.773373
H288  H     H_    0.448339 0.202753 0.154870 0.255617
H289  H     H_    0.410597 0.186713 0.126212 0.197688
H290  H     H_    0.450785 0.163938 0.121229 0.251202
O107  O     O_3   0.785587 0.483639 0.079301 -0.533765
C309  C     C_3   0.789206 0.447692 0.081830 0.097331
H291  H     H_    0.802745 0.437429 0.051334 0.146924
H292  H     H_    0.763718 0.435023 0.084956 0.178976
C310  C     C_3   0.810327 0.438704 0.123618 -0.773363
H293  H     H_    0.797298 0.448167 0.154783 0.255616
H294  H     H_    0.813345 0.410459 0.126053 0.197691
H295  H     H_    0.836105 0.450659 0.121144 0.251204
O108  O     O_3   0.516230 0.785587 0.079386 -0.533716
C311  C     C_3   0.552180 0.789164 0.081955 0.097289
H296  H     H_    0.562475 0.802682 0.051467 0.146892
H297  H     H_    0.564818 0.763661 0.085104 0.179047
C312  C     C_3   0.561175 0.810284 0.123747 -0.773361
H298  H     H_    0.551681 0.797274 0.154905 0.255622
H299  H     H_    0.589423 0.813268 0.126213 0.197686
H300  H     H_    0.549252 0.836076 0.121251 0.251201
O109  O     O_3   0.785566 0.516265 0.920654 -0.533731
C313  C     C_3   0.789151 0.552216 0.918123 0.097282
H301  H     H_    0.802680 0.562494 0.948620 0.146904
H302  H     H_    0.763650 0.564861 0.914993 0.179052
C314  C     C_3   0.810262 0.561223 0.876338 -0.773357
H303  H     H_    0.797241 0.551746 0.845172 0.255621
H304  H     H_    0.813252 0.589472 0.873902 0.197689
H305  H     H_    0.836052 0.549293 0.878817 0.251202
O110  O     O_3   0.516218 0.214415 0.920616 -0.533658
C315  C     C_3   0.552165 0.210814 0.918030 0.097303
H306  H     H_    0.562460 0.197282 0.948508 0.146881
H307  H     H_    0.564819 0.236309 0.914887 0.178974
C316  C     C_3   0.561130 0.189698 0.876225 -0.773321
H308  H     H_    0.551635 0.202722 0.845077 0.255625
H309  H     H_    0.589375 0.186695 0.873746 0.197678
H310  H     H_    0.549190 0.163914 0.878715 0.251199
O111  O     O_3   0.214413 0.483716 0.920665 -0.533735
C317  C     C_3   0.210822 0.447768 0.918065 0.097292
H311  H     H_    0.197338 0.437459 0.948573 0.146884
H312  H     H_    0.236318 0.435128 0.914845 0.179102
C318  C     C_3   0.189647 0.438802 0.876313 -0.773432
H313  H     H_    0.202616 0.448315 0.845135 0.255628
H314  H     H_    0.186658 0.410556 0.873817 0.197701
H315  H     H_    0.163859 0.450724 0.878886 0.251183
O112  O     O_3   0.483662 0.785564 0.920708 -0.533725
C319  C     C_3   0.447715 0.789185 0.918143 0.097321
H316  H     H_    0.437442 0.802734 0.948625 0.146913
H317  H     H_    0.435045 0.763697 0.915010 0.178976
C320  C     C_3   0.438745 0.810294 0.876341 -0.773351
H318  H     H_    0.448219 0.797254 0.845189 0.255618
H319  H     H_    0.410501 0.813313 0.873877 0.197687
H320  H     H_    0.450701 0.836072 0.878821 0.251204
O113  O     O_3   0.677378 0.048538 0.450421 -0.728630
H321  H     H_    0.663503 0.056059 0.424040 0.344462
O114  O     O_3   0.951442 0.677364 0.450402 -0.728575
H322  H     H_    0.943912 0.663482 0.424028 0.344472
O115  O     O_3   0.322623 0.951441 0.450410 -0.728596
H323  H     H_    0.336496 0.943915 0.424030 0.344463
O116  O     O_3   0.048555 0.322622 0.450407 -0.728572
H324  H     H_    0.056082 0.336497 0.424033 0.344473
O117  O     O_3   0.322629 0.048557 0.549594 -0.728578
H325  H     H_    0.336508 0.056088 0.575969 0.344471
O118  O     O_3   0.048557 0.677384 0.549575 -0.728596
H326  H     H_    0.056084 0.663514 0.575956 0.344464
O119  O     O_3   0.677371 0.951441 0.549592 -0.728565
H327  H     H_    0.663494 0.943914 0.575965 0.344475
O120  O     O_3   0.951461 0.322630 0.549598 -0.728638
H328  H     H_    0.943942 0.336507 0.575980 0.344461
O121  O     O_3   0.177380 0.548550 0.950447 -0.728605
H329  H     H_    0.163506 0.556076 0.924067 0.344466
O122  O     O_3   0.451420 0.177356 0.950406 -0.728561
H330  H     H_    0.443887 0.163472 0.924034 0.344477
O123  O     O_3   0.822643 0.451435 0.950341 -0.728596
H331  H     H_    0.836521 0.443927 0.923955 0.344461
O124  O     O_3   0.548515 0.822594 0.950454 -0.728626
H332  H     H_    0.556054 0.836464 0.924081 0.344465
O125  O     O_3   0.822611 0.548503 0.049608 -0.728659
H333  H     H_    0.836487 0.556029 0.075988 0.344460
O126  O     O_3   0.548557 0.177393 0.049540 -0.728587
H334  H     H_    0.556091 0.163525 0.075918 0.344463
O127  O     O_3   0.177370 0.451430 0.049579 -0.728566
H335  H     H_    0.163492 0.443897 0.075949 0.344474
O128  O     O_3   0.451414 0.822658 0.049632 -0.728607
H336  H     H_    0.443902 0.836541 0.076013 0.344469
O129  O     O_3   0.603904 0.052423 0.456951 -0.707692
H337  H     H_    0.617894 0.073605 0.457397 0.334997
O130  O     O_3   0.947569 0.603892 0.456939 -0.707689
H338  H     H_    0.926383 0.617876 0.457396 0.334986
O131  O     O_3   0.396097 0.947567 0.456939 -0.707696
H339  H     H_    0.382111 0.926383 0.457385 0.334993
O132  O     O_3   0.052422 0.396098 0.456930 -0.707698
H340  H     H_    0.073611 0.382117 0.457390 0.334982
O133  O     O_3   0.396102 0.052431 0.543062 -0.707694
H341  H     H_    0.382118 0.073617 0.542606 0.334986
O134  O     O_3   0.052432 0.603909 0.543052 -0.707696
H342  H     H_    0.073616 0.617896 0.542601 0.334993
O135  O     O_3   0.603896 0.947576 0.543064 -0.707691
H343  H     H_    0.617877 0.926387 0.542601 0.334981
O136  O     O_3   0.947578 0.396102 0.543062 -0.707694
H344  H     H_    0.926396 0.382112 0.542623 0.334998
O137  O     O_3   0.103906 0.552432 0.956973 -0.707680
H345  H     H_    0.117897 0.573614 0.957429 0.334996
O138  O     O_3   0.447558 0.103884 0.956948 -0.707678
H346  H     H_    0.426370 0.117866 0.957413 0.334985
O139  O     O_3   0.896119 0.447583 0.956874 -0.707713
H347  H     H_    0.882139 0.426394 0.957300 0.334997
O140  O     O_3   0.552420 0.896070 0.956970 -0.707699
H348  H     H_    0.573601 0.882078 0.957434 0.334979
O141  O     O_3   0.896085 0.552407 0.043081 -0.707717
H349  H     H_    0.882093 0.573588 0.042644 0.334987
O142  O     O_3   0.552439 0.103918 0.043022 -0.707687
H350  H     H_    0.573622 0.117907 0.042562 0.334990
O143  O     O_3   0.103896 0.447566 0.043047 -0.707681
H351  H     H_    0.117876 0.426378 0.042576 0.334982
O144  O     O_3   0.447569 0.896130 0.043089 -0.707686
H352  H     H_    0.426379 0.882151 0.042646 0.334999

loop_
_geom_bond_atom_site_label_1
_geom_bond_atom_site_label_2
_ccdc_geom_bond_type
Cu2   Cu4   S    
C267  H186  S    
C195  H7    S    
O101  C297  S    
C82   C94   A    
O54   C203  S    
C33   C45   A    
C236  H108  S    
O132  H340  S    
C261  C262  S    
C24   O96   S    
C35   C47   A    
C214  H55   S    
C291  C292  S    
C302  H274  S    
C298  H263  S    
C300  H269  S    
O105  C305  S    
O59   C213  S    
C310  H294  S    
C312  H300  S    
C320  H320  S    
C317  C318  S    
C109  O45   A    
O62   C219  S    
C116  O24   A    
C60   O116  S    
C171  C183  A    
C50   C178  S    
C43   C99   S    
C226  H83   S    
C138  C143  T    
C265  H181  S    
C139  C142  T    
C245  H132  S    
C228  H89   S    
C172  O76   S    
C22   C38   A    
C266  H185  S    
Cu8   O14   S    
C148  O52   S    
C154  C170  A    
C219  C220  S    
C40   C48   A    
C268  H188  S    
C156  O60   S    
C2    C90   S    
Cu7   O27   S    
C303  H276  S    
C224  H80   S    
C193  H2    S    
C297  C298  S    
C278  H214  S    
C112  C189  S    
C13   C51   A    
C228  H88   S    
C158  C174  A    
Cu11  O44   S    
C242  H124  S    
C295  C296  S    
C241  H122  S    
C211  H46   S    
C146  C162  A    
C65   O121  S    
C201  C202  S    
Cu2   O18   S    
C222  H75   S    
Cu4   O6    S    
C18   O90   S    
C230  H94   S    
O144  H352  S    
C87   O143  S    
O121  H329  S    
C297  H262  S    
C107  O39   A    
C105  O37   A    
C294  H254  S    
C4    O4    A    
C271  H197  S    
C85   C95   A    
C86   O142  S    
C220  H70   S    
C207  H37   S    
C115  C123  S    
C68   C104  A    
C32   O104  S    
O118  H326  S    
C231  H97   S    
C140  C141  T    
C25   C41   A    
C21   C55   A    
C279  H216  S    
C272  H200  S    
C227  H87   S    
C56   C184  S    
C289  C290  S    
C60   C100  A    
O87   C269  S    
O89   C273  S    
C28   C44   A    
C170  O74   S    
C248  H140  S    
C303  C304  S    
C314  H303  S    
C80   C92   A    
O90   C275  S    
C157  C191  A    
C115  O23   A    
C273  H201  S    
C246  H134  S    
Cu7   O31   S    
C66   C82   A    
C292  H249  S    
O130  H338  S    
C269  C270  S    
C11   C27   A    
C238  H115  S    
C69   O125  S    
C211  C212  S    
C120  C128  S    
C10   C26   A    
C149  C165  A    
C276  H208  S    
C40   O112  S    
C216  H60   S    
C315  H307  S    
C113  O17   A    
C288  H238  S    
Cu4   O20   S    
C119  O31   A    
C218  H65   S    
C247  H137  S    
C153  O57   S    
O98   C291  S    
C244  H130  S    
C293  H252  S    
O85   C265  S    
C148  C188  A    
C15   O87   S    
C161  C177  A    
C130  C138  S    
C39   O111  S    
C298  H265  S    
C260  H170  S    
C31   O103  S    
C176  C184  A    
C317  H311  S    
C77   C91   A    
C295  H257  S    
C305  H282  S    
C209  C210  S    
C311  H296  S    
C200  H20   S    
C234  H103  S    
C30   O102  S    
C8    O12   A    
C215  C216  S    
C85   O141  S    
C7    C95   S    
C259  H166  S    
C171  O75   S    
C284  H228  S    
C249  C250  S    
C300  H268  S    
Cu3   O23   S    
C167  O71   S    
C3    O3    A    
C74   C90   A    
C161  O65   S    
C200  H18   S    
Cu1   O21   S    
C26   O98   S    
C19   C35   A    
O100  C295  S    
C201  H22   S    
C213  C214  S    
C270  H194  S    
C14   C50   A    
Cu11  O42   S    
C145  C161  A    
C151  C167  A    
O66   C227  S    
C309  H292  S    
C15   C49   A    
C274  H205  S    
C57   O113  S    
C217  H61   S    
C269  H191  S    
C237  H112  S    
C164  O68   S    
C240  H119  S    
C77   O133  S    
C204  H28   S    
C129  C137  S    
C212  H49   S    
C126  C134  T    
C250  H143  S    
C302  H273  S    
O58   C211  S    
O50   C195  S    
C105  O33   A    
C263  H176  S    
C307  H287  S    
Cu8   O28   S    
C194  H4    S    
C280  H218  S    
O95   C285  S    
C287  C288  S    
C226  H84   S    
Cu6   O10   S    
C67   C83   A    
O102  C299  S    
C253  C254  S    
C58   C98   A    
C65   C101  A    
C249  H142  S    
C20   C56   A    
C174  C182  A    
C259  C260  S    
C282  H223  S    
C208  H38   S    
C67   C103  A    
C22   C54   A    
C5    O15   A    
O71   C237  S    
O55   C205  S    
C68   O124  S    
O133  H341  S    
C283  C284  S    
Cu7   O11   S    
O110  C315  S    
C115  O21   A    
C53   C181  S    
C158  C190  A    
O117  H325  S    
C277  H212  S    
C304  H279  S    
C83   O139  S    
C312  H298  S    
Cu10  O38   S    
C81   C93   A    
C124  C132  T    
C251  C252  S    
C19   O91   S    
O115  H323  S    
C57   C73   A    
C260  H168  S    
C154  O58   S    
C25   O97   S    
C287  H236  S    
C113  O19   A    
C288  H240  S    
C209  H42   S    
C66   O122  S    
C80   O136  S    
C17   O89   S    
C285  H231  S    
C119  O29   A    
C289  H241  S    
C292  H250  S    
C258  H163  S    
C61   C77   A    
C206  H34   S    
C263  C264  S    
C254  H154  S    
C311  C312  S    
C176  O80   S    
C2    O2    A    
C37   C47   A    
O119  H327  S    
C241  C242  S    
C75   C91   A    
C160  O64   S    
C175  C181  A    
C302  H275  S    
C135  C143  S    
C221  H71   S    
C109  O41   A    
C6    O14   A    
O52   C199  S    
C170  C182  A    
C299  H267  S    
C204  H29   S    
O73   C241  S    
C163  O67   S    
C51   C179  S    
C234  H104  S    
C35   O107  S    
C23   C53   A    
C301  H272  S    
O76   C247  S    
C69   C103  A    
C23   O95   S    
C284  H230  S    
C205  H32   S    
C320  H319  S    
Cu1   O1    S    
C71   O127  S    
Cu7   O15   S    
C267  C268  S    
Cu5   O29   S    
C213  H51   S    
C291  H247  S    
C193  C194  S    
C110  O48   A    
O127  H335  S    
Cu2   O8    S    
C107  C188  S    
C156  C172  A    
C70   O126  S    
C145  C185  A    
C258  H164  S    
C223  C224  S    
C105  C186  S    
Cu4   O4    S    
C219  H67   S    
O78   C251  S    
C200  H19   S    
C316  H309  S    
O92   C279  S    
C109  C190  S    
C210  H45   S    
C20   O92   S    
C243  C244  S    
C310  H293  S    
C224  H78   S    
Cu3   O3    S    
C232  H100  S    
C283  H227  S    
C252  H149  S    
C221  C222  S    
C275  H207  S    
C275  H206  S    
O99   C293  S    
C283  H226  S    
C151  O55   S    
Cu12  O45   S    
C120  O30   A    
C137  C144  T    
C210  H43   S    
C251  H146  S    
C163  C179  A    
C235  H106  S    
C165  C179  A    
C261  H172  S    
C216  H59   S    
C214  H54   S    
C153  C169  A    
C279  C280  S    
C225  H81   S    
C194  H3    S    
C282  H225  S    
C69   C85   A    
C26   C42   A    
C296  H258  S    
C244  H128  S    
O79   C253  S    
C271  H196  S    
C289  H242  S    
C31   C41   A    
C265  C266  S    
C231  H96   S    
Cu6   O16   S    
C62   C78   A    
C13   O85   S    
C106  O40   A    
C247  C248  S    
C81   O137  S    
C150  C186  A    
C166  O70   S    
Cu6   Cu8   S    
C15   C31   A    
C174  O78   S    
C238  H113  S    
Cu5   O25   S    
C264  H179  S    
Cu9   Cu10  S    
C239  H116  S    
C194  H5    S    
C290  H245  S    
C232  H98   S    
C63   C97   A    
C147  C163  A    
O96   C287  S    
C14   O86   S    
C265  H182  S    
C44   C100  S    
C309  C310  S    
C6    C94   S    
C78   O134  S    
C229  H91   S    
C87   C93   A    
C117  O25   A    
Cu8   O12   S    
C36   C48   A    
C41   C97   S    
C154  C190  A    
C313  H301  S    
C285  H232  S    
C224  H79   S    
O109  C313  S    
C131  C139  S    
C73   O129  S    
C111  C192  S    
C113  C121  S    
C235  C236  S    
C111  O43   A    
C270  H193  S    
C165  O69   S    
C281  H221  S    
C199  H16   S    
C59   O115  S    
C211  H47   S    
C286  H234  S    
O84   C263  S    
C305  H281  S    
C117  C125  S    
C207  C208  S    
O72   C239  S    
C254  H153  S    
C290  H244  S    
C319  C320  S    
C119  C127  S    
C3    O5    A    
C233  H102  S    
C88   C96   A    
O69   C233  S    
C1    O7    A    
C221  H72   S    
C268  H189  S    
O124  H332  S    
C293  C294  S    
C152  C188  A    
C245  H131  S    
C195  C196  S    
O131  H339  S    
C294  H253  S    
C9    C25   A    
Cu9   O34   S    
C218  H63   S    
O137  H345  S    
C78   C90   A    
C157  O61   S    
C220  H69   S    
C58   C74   A    
O61   C217  S    
C264  H180  S    
C12   C28   A    
C158  O62   S    
C13   C29   A    
C127  C135  T    
C106  C187  S    
C290  H243  S    
C42   C98   S    
Cu4   O22   S    
O81   C257  S    
C279  H217  S    
C272  H199  S    
O122  H330  S    
C110  C191  S    
C262  H175  S    
C3    C91   S    
C212  H48   S    
Cu2   O24   S    
C262  H173  S    
C66   C102  A    
C16   O88   S    
C273  H202  S    
C218  H64   S    
C64   C80   A    
Cu12  O47   S    
C202  H25   S    
C9    O81   S    
C57   C97   A    
C274  H204  S    
C199  C200  S    
C8    C96   S    
C11   O83   S    
C1    C89   S    
O126  H334  S    
Cu9   O35   S    
C166  C178  A    
C296  H259  S    
C49   C177  S    
O80   C255  S    
C273  C274  S    
C10   O82   S    
O82   C259  S    
Cu1   O17   S    
C233  H101  S    
C71   C101  A    
C28   O100  S    
O112  C319  S    
C29   C43   A    
C236  H109  S    
C197  C198  S    
C145  O49   S    
C252  H150  S    
C17   C33   A    
O74   C243  S    
Cu5   O13   S    
C251  H147  S    
C298  H264  S    
O129  H337  S    
O123  H331  S    
C318  H314  S    
C230  H93   S    
C38   O110  S    
C255  H157  S    
C7    O11   A    
C247  H136  S    
C214  H53   S    
C147  O51   S    
C269  H192  S    
C47   C103  S    
C276  H209  S    
O140  H348  S    
C68   C84   A    
C108  C185  S    
C160  C192  A    
C203  C204  S    
C197  H11   S    
O134  H342  S    
C196  H9    S    
C309  H291  S    
C153  C189  A    
C72   C104  A    
C225  C226  S    
C147  C187  A    
O88   C271  S    
O114  H322  S    
C107  O35   A    
C12   O84   S    
C117  O27   A    
C88   O144  S    
C259  H167  S    
C162  O66   S    
C239  C240  S    
O86   C267  S    
C266  H184  S    
C36   O108  S    
C134  C142  S    
C284  H229  S    
C65   C81   A    
C198  H15   S    
C6    O10   A    
C270  H195  S    
C256  H158  S    
C114  O18   A    
C229  H92   S    
C217  H62   S    
C237  C238  S    
C169  C181  A    
C195  H6    S    
C45   C101  S    
C312  H299  S    
C280  H220  S    
C71   C87   A    
C167  C177  A    
C128  C136  T    
C149  C187  A    
C297  H261  S    
C263  H177  S    
C248  H139  S    
C319  H316  S    
C10   C50   A    
C17   C53   A    
C294  H255  S    
Cu5   O9    S    
C82   O138  S    
Cu9   O36   S    
C286  H233  S    
C292  H248  S    
C19   C55   A    
C151  C185  A    
C207  H36   S    
C24   C40   A    
C116  C124  S    
C257  H161  S    
C123  C131  T    
C152  O56   S    
C215  H56   S    
C150  O54   S    
C146  C186  A    
O108  C311  S    
C16   C52   A    
C121  C129  T    
C240  H120  S    
O68   C231  S    
O63   C221  S    
C70   C102  A    
C112  O46   A    
C227  H86   S    
C132  C140  S    
C133  C141  S    
C281  C282  S    
C318  H315  S    
C193  H1    S    
Cu5   Cu7   S    
C159  O63   S    
C73   C89   A    
C136  C144  S    
Cu6   O32   S    
C262  H174  S    
C38   C46   A    
C267  H187  S    
C212  H50   S    
C277  C278  S    
C304  H278  S    
O49   C193  S    
C74   O130  S    
Cu10  O39   S    
C60   C76   A    
C311  H297  S    
O70   C235  S    
C315  H306  S    
C287  H237  S    
C288  H239  S    
C208  H39   S    
C175  O79   S    
C20   C36   A    
C27   C43   A    
C64   C100  A    
C21   C37   A    
C173  C183  A    
C306  H283  S    
C106  O34   A    
C108  O38   A    
C55   C183  S    
C293  H251  S    
C30   C42   A    
C243  H127  S    
O67   C229  S    
C228  H90   S    
C157  C173  A    
C155  O59   S    
C255  C256  S    
C150  C166  A    
Cu3   O19   S    
O142  H350  S    
C67   O123  S    
C241  H121  S    
C306  H285  S    
C59   C99   A    
C308  H288  S    
C159  C189  A    
C314  H305  S    
C245  C246  S    
C24   C56   A    
C75   O131  S    
C79   O135  S    
C227  C228  S    
C278  H213  S    
C272  H198  S    
C253  H152  S    
C63   C79   A    
O56   C207  S    
C233  C234  S    
C205  C206  S    
C320  H318  S    
O53   C201  S    
C22   O94   S    
O57   C209  S    
C146  O50   S    
C33   O105  S    
C276  H210  S    
Cu8   O30   S    
O65   C225  S    
C318  H313  S    
C201  H21   S    
C213  H52   S    
C217  C218  S    
C111  O47   A    
C48   C104  S    
C196  H8    S    
O51   C197  S    
C37   O109  S    
C315  C316  S    
C4    C92   S    
C164  C180  A    
C84   C96   A    
C244  H129  S    
C301  H271  S    
C27   O99   S    
C86   C94   A    
C250  H144  S    
C223  H76   S    
C215  H57   S    
C108  O36   A    
C118  O28   A    
C76   O132  S    
C231  C232  S    
Cu11  O41   S    
C257  H162  S    
C54   C182  S    
C9    C49   A    
C16   C32   A    
C307  H286  S    
C198  H14   S    
C203  H26   S    
C234  H105  S    
C232  H99   S    
C1    O1    A    
C316  H308  S    
O139  H347  S    
O135  H343  S    
C255  H156  S    
C226  H85   S    
Cu12  O46   S    
C5    C93   S    
C242  H125  S    
Cu10  O40   S    
C62   C98   A    
C235  H107  S    
C300  H270  S    
C160  C176  A    
C229  C230  S    
C61   C99   A    
C310  H295  S    
C275  C276  S    
C317  H312  S    
O104  C303  S    
C202  H24   S    
C72   C88   A    
C266  H183  S    
C303  H277  S    
Cu2   O2    S    
C319  H317  S    
C2    O6    A    
C162  C178  A    
C148  C164  A    
C205  H31   S    
C248  H138  S    
O77   C249  S    
C168  O72   S    
C308  H289  S    
C256  H159  S    
C277  H211  S    
C208  H40   S    
C29   O101  S    
C204  H30   S    
C313  C314  S    
C210  H44   S    
C264  H178  S    
C14   C30   A    
Cu10  O37   S    
C250  H145  S    
O91   C277  S    
C206  H33   S    
C7    O13   A    
C116  O22   A    
C296  H260  S    
Cu12  O48   S    
C281  H222  S    
C52   C180  S    
O138  H346  S    
O75   C245  S    
C209  H41   S    
C8    O16   A    
C168  C180  A    
C152  C168  A    
Cu3   O7    S    
C172  C184  A    
Cu1   O5    S    
C301  C302  S    
C169  O73   S    
C206  H35   S    
C83   C95   A    
C307  C308  S    
Cu1   Cu3   S    
C246  H133  S    
C32   C44   A    
Cu11  O43   S    
C58   O114  S    
C72   O128  S    
C173  O77   S    
C313  H302  S    
C230  H95   S    
C18   C34   A    
C285  C286  S    
O125  H333  S    
C243  H126  S    
C155  C191  A    
C76   C92   A    
C34   C46   A    
C156  C192  A    
O113  H321  S    
C242  H123  S    
O136  H344  S    
C299  H266  S    
C308  H290  S    
C199  H17   S    
C280  H219  S    
O143  H351  S    
O116  H324  S    
C70   C86   A    
C59   C75   A    
C34   O106  S    
C278  H215  S    
C202  H23   S    
C222  H73   S    
C252  H148  S    
C125  C133  T    
C112  O44   A    
O103  C301  S    
C253  H151  S    
C304  H280  S    
C256  H160  S    
C225  H82   S    
O141  H349  S    
C316  H310  S    
C261  H171  S    
C149  O53   S    
O106  C307  S    
O107  C309  S    
C268  H190  S    
C64   O120  S    
C306  H284  S    
C62   O118  S    
C84   O140  S    
O83   C261  S    
O120  H328  S    
Cu6   O26   S    
O93   C281  S    
Cu9   O33   S    
C291  H246  S    
C314  H304  S    
C258  H165  S    
C238  H114  S    
C220  H68   S    
C12   C52   A    
C249  H141  S    
C4    O8    A    
O94   C283  S    
C39   C45   A    
C254  H155  S    
C114  O20   A    
C286  H235  S    
C282  H224  S    
C61   O117  S    
C260  H169  S    
O64   C223  S    
C120  O32   A    
C203  H27   S    
C305  C306  S    
C110  O42   A    
C240  H118  S    
O97   C289  S    
C21   O93   S    
C118  O26   A    
C23   C39   A    
C5    O9    A    
C236  H110  S    
C223  H77   S    
C122  C130  T    
C197  H12   S    
C219  H66   S    
C196  H10   S    
C239  H117  S    
C246  H135  S    
C11   C51   A    
C18   C54   A    
C114  C122  S    
C155  C171  A    
C299  C300  S    
C274  H203  S    
C257  C258  S    
O128  H336  S    
C63   O119  S    
O60   C215  S    
C295  H256  S    
C237  H111  S    
C79   C89   A    
C159  C175  A    
C118  C126  S    
Cu11  Cu12  S    
C222  H74   S    
C216  H58   S    
O111  C317  S    
C271  C272  S    
C46   C102  S    
C198  H13   S    
