data_mof_unit_55956.cif
_audit_creation_date              2012-12-10T17:18:58-0500
_audit_creation_method            fapswitch 2.2
_symmetry_space_group_name_H-M    P1
_symmetry_Int_Tables_number       1
_space_group_crystal_system       triclinic
_cell_length_a                    10.235235
_cell_length_b                    10.49947
_cell_length_c                    13.603647
_cell_angle_alpha                 92.374345
_cell_angle_beta                  100.730032
_cell_angle_gamma                 94.973483
_cell_volume                      1428.46364278

loop_
_atom_site_label
_atom_site_type_symbol
_atom_type_description
_atom_site_fract_x
_atom_site_fract_y
_atom_site_fract_z
_atom_type_partial_charge
C1    C     C_R   0.054004 0.734822 0.498630 0.853685
C2    C     C_R   0.950351 0.266055 0.510941 0.838606
C3    C     C_R   0.428112 0.471128 0.130917 -0.309589
C4    C     C_R   0.504300 0.335538 0.894770 -0.314947
C5    C     C_R   0.297735 0.501321 0.101472 0.632027
C6    C     C_R   0.636127 0.308580 0.924524 0.670965
C7    C     C_2   0.088750 0.873323 0.514706 0.196319
C8    C     C_2   0.933050 0.131123 0.533183 0.207759
C9    C     C_2   0.034850 0.937684 0.582994 0.357065
C10   C     C_2   0.040076 0.077667 0.582343 0.367582
C11   C     C_2   0.429959 0.513200 0.508328 0.363148
C12   C     C_2   0.570021 0.487518 0.490895 0.349448
C13   C     C_R   0.093499 0.511540 0.686034 0.920234
C14   C     C_R   0.905160 0.483684 0.314061 0.897697
C15   C     C_R   0.139461 0.505533 0.793743 -0.106133
C16   C     C_R   0.847681 0.451171 0.208610 -0.090788
C17   C     C_R   0.114803 0.544986 0.966357 0.498507
C18   C     C_R   0.845516 0.334807 0.049737 0.485181
C19   C     C_R   0.065090 0.547371 0.863047 -0.266232
C20   C     C_R   0.913104 0.381459 0.146005 -0.229005
C21   C     C_R   0.259719 0.454768 0.826427 -0.172471
C22   C     C_R   0.715884 0.474513 0.175887 -0.189655
C23   C     C_R   0.311258 0.447825 0.928142 -0.024660
C24   C     C_R   0.641734 0.418287 0.086120 -0.030446
C25   C     C_R   0.239917 0.497384 0.999324 -0.050795
C26   C     C_R   0.708534 0.353161 0.019461 -0.058824
C27   C     C_R   0.438510 0.403700 0.959915 0.009955
C28   C     C_R   0.503437 0.431470 0.059948 0.019907
H1    H     H_    0.671587 0.537282 0.222467 0.181496
H2    H     H_    0.315846 0.426857 0.770833 0.189274
H3    H     H_    0.015561 0.361942 0.172258 0.192393
H4    H     H_    0.970524 0.585455 0.836921 0.170765
H5    H     H_    0.467516 0.477063 0.210541 0.192853
H6    H     H_    0.454357 0.298236 0.820934 0.186669
H7    H     H_    0.669726 0.619871 0.594999 0.146899
H8    H     H_    0.330126 0.379279 0.405566 0.141359
N1    N     N_2   0.322180 0.446120 0.460900 -0.159667
N2    N     N_2   0.677820 0.553880 0.539100 -0.169957
O1    O     O_R   0.935190 0.693030 0.507870 -0.556350
O2    O     O_R   0.064810 0.306970 0.492130 -0.562466
O3    O     O_R   0.142080 0.658430 0.482770 -0.569551
O4    O     O_R   0.857920 0.341570 0.517230 -0.572145
O5    O     O_R   0.969700 0.527180 0.651960 -0.600971
O6    O     O_R   0.030300 0.472820 0.348040 -0.584504
O7    O     O_R   0.176600 0.492580 0.626860 -0.554113
O8    O     O_R   0.823400 0.507420 0.373140 -0.570641
Zn1   Zn    Zn3+2 0.861850 0.523100 0.516760 1.047995
Zn2   Zn    Zn3+2 0.138150 0.476900 0.483240 1.064187
F1    F     F_    0.232112 0.540672 0.173597 -0.630161
F2    F     F_    0.692710 0.242256 0.858302 -0.603627
O9    O     O_3   0.045398 0.593121 0.035266 -0.699693
H9    H     H_    0.960012 0.620917 0.999462 0.329728
O10   O     O_3   0.910686 0.269923 0.985847 -0.683839
H10   H     H_    0.005502 0.267497 0.018411 0.327400
O11   O     O_3   0.156621 0.152206 0.625345 -0.765554
H11   H     H_    0.222284 0.094785 0.656944 0.347024
O12   O     O_3   0.966776 0.873174 0.647793 -0.760394
H12   H     H_    0.934713 0.937544 0.690812 0.357167
O13   O     O_3   0.813278 0.057114 0.499340 -0.763771
H13   H     H_    0.749363 0.111901 0.461937 0.351605
O14   O     O_3   0.167439 0.938889 0.457358 -0.767971
H14   H     H_    0.192729 0.876246 0.409344 0.353714
O15   O     O_3   0.586628 0.391364 0.423420 -0.736287
H15   H     H_    0.522121 0.317293 0.428264 0.312573
O16   O     O_3   0.413362 0.610412 0.574898 -0.722906
H16   H     H_    0.478212 0.684043 0.569598 0.316930

loop_
_geom_bond_atom_site_label_1
_geom_bond_atom_site_label_2
_ccdc_geom_bond_type
C11   O16   S    
C15   C19   A    
C11   C12   S    
C22   H1    S    
C23   C27   A    
C4    H6    S    
C24   C28   A    
C9    C10   S    
C18   C20   A    
C18   C26   A    
C13   C15   S    
C15   C21   A    
C16   C20   A    
C17   C25   A    
C7    C9    D    
C17   O9    S    
O11   H11   S    
C23   C25   A    
N2    Zn1   S    
O13   H13   S    
C14   O8    A    
O10   H10   S    
C6    F2    S    
N1    Zn2   S    
C13   O7    A    
C10   O11   S    
C5    F1    S    
O12   H12   S    
C6    C26   A    
C2    O4    A    
C5    C25   A    
C19   H4    S    
C4    C6    A    
H8    N1    S    
C17   C19   A    
O3    Zn2   S    
C24   C26   A    
C9    O12   S    
O4    Zn1   S    
C21   C23   A    
C8    O13   S    
C12   N2    D    
O14   H14   S    
C22   C24   A    
C3    C28   A    
C1    O1    A    
O9    H9    S    
C2    O2    A    
C13   O5    A    
C4    C27   A    
C14   O6    A    
O16   H16   S    
C21   H2    S    
O7    Zn2   S    
C1    O3    A    
C27   C28   A    
C11   N1    D    
C12   O15   S    
C3    H5    S    
O8    Zn1   S    
C7    O14   S    
C16   C22   A    
C18   O10   S    
C3    C5    A    
C14   C16   S    
C1    C7    S    
O1    Zn1   S    
O5    Zn1   S    
O2    Zn2   S    
C8    C10   D    
C2    C8    S    
O6    Zn2   S    
O15   H15   S    
H7    N2    S    
C20   H3    S    
