data_mof_unit_6393.cif
_audit_creation_date              2012-12-10T17:28:31-0500
_audit_creation_method            fapswitch 2.2
_symmetry_space_group_name_H-M    P1
_symmetry_Int_Tables_number       1
_space_group_crystal_system       triclinic
_cell_length_a                    10.531315
_cell_length_b                    11.959645
_cell_length_c                    12.865848
_cell_angle_alpha                 93.165771
_cell_angle_beta                  91.172599
_cell_angle_gamma                 88.189854
_cell_volume                      1616.89883124

loop_
_atom_site_label
_atom_site_type_symbol
_atom_type_description
_atom_site_fract_x
_atom_site_fract_y
_atom_site_fract_z
_atom_type_partial_charge
C1    C     C_R   0.495501 0.521919 0.700364 0.913087
C2    C     C_R   0.528314 0.558248 0.132454 -0.237204
C3    C     C_R   0.484002 0.448485 0.974274 0.190846
C4    C     C_R   0.515977 0.551517 0.025726 0.190845
C5    C     C_R   0.395803 0.950660 0.390636 -0.341609
C6    C     C_R   0.604195 0.049341 0.609365 -0.341612
C7    C     C_R   0.404681 0.835100 0.402482 0.040941
C8    C     C_R   0.595315 0.164901 0.597520 0.040940
C9    C     C_R   0.542541 0.860499 0.549356 -0.061297
C10   C     C_R   0.457462 0.139501 0.450643 -0.061297
C11   C     C_R   0.537239 0.977268 0.540281 0.096724
C12   C     C_R   0.504496 0.478081 0.299636 0.913116
C13   C     C_R   0.462762 0.022731 0.459719 0.096726
C14   C     C_R   0.740282 0.504804 0.516029 0.917839
C15   C     C_R   0.259711 0.495198 0.483986 0.917827
C16   C     C_R   0.907700 0.339091 0.628137 0.167256
C17   C     C_R   0.092273 0.660903 0.371883 0.167264
C18   C     C_R   0.963226 0.231365 0.626956 -0.158908
C19   C     C_R   0.036729 0.768622 0.373046 -0.158922
C20   C     C_R   0.061436 0.201969 0.558916 -0.188481
C21   C     C_R   0.938529 0.798025 0.441090 -0.188493
C22   C     C_R   0.112699 0.283491 0.500072 -0.113388
C23   C     C_R   0.505913 0.464423 0.188327 -0.036845
C24   C     C_R   0.887289 0.716512 0.499955 -0.113363
C25   C     C_R   0.061675 0.394376 0.505266 0.060022
C26   C     C_R   0.938319 0.605630 0.494771 0.060021
C27   C     C_R   0.947381 0.416360 0.556988 0.047727
C28   C     C_R   0.052609 0.583644 0.443047 0.047719
C29   C     C_R   0.122758 0.485119 0.463829 -0.214370
C30   C     C_R   0.877233 0.514887 0.536204 -0.214377
C31   C     C_R   0.494076 0.535577 0.811673 -0.036834
C32   C     C_R   0.533936 0.646474 0.969834 -0.190960
C33   C     C_R   0.466049 0.353526 0.030165 -0.190953
C34   C     C_R   0.523020 0.638504 0.862377 -0.183636
C35   C     C_R   0.476972 0.361494 0.137621 -0.183631
C36   C     C_R   0.471666 0.441754 0.867545 -0.237203
H1    H     H_    0.897367 0.882216 0.443987 0.151144
H2    H     H_    0.447627 0.362554 0.827897 0.163009
H3    H     H_    0.459354 0.288567 0.180928 0.156476
H4    H     H_    0.540645 0.711429 0.819071 0.156477
H5    H     H_    0.557841 0.725854 0.008947 0.141880
H6    H     H_    0.442145 0.274145 0.991051 0.141880
H7    H     H_    0.400864 0.176224 0.389374 0.112183
H8    H     H_    0.599139 0.823775 0.610624 0.112177
H9    H     H_    0.645401 0.220508 0.651440 0.160237
H10   H     H_    0.354590 0.779493 0.348564 0.160233
H11   H     H_    0.102581 0.117770 0.556002 0.151141
H12   H     H_    0.337811 0.983112 0.327932 0.148329
H13   H     H_    0.662183 0.016889 0.672071 0.148330
H14   H     H_    0.932499 0.171436 0.680520 0.153047
H15   H     H_    0.067433 0.828540 0.319465 0.153059
H16   H     H_    0.190796 0.258967 0.449659 0.149689
H17   H     H_    0.809194 0.741038 0.550372 0.149669
H18   H     H_    0.552351 0.637449 0.172102 0.163007
I1    I     I_    0.799978 0.392448 0.759933 -0.429266
I2    I     I_    0.199987 0.607530 0.240089 -0.429256
N1    N     N_R   0.523130 0.207800 0.519340 -0.099902
N2    N     N_R   0.476870 0.792200 0.480660 -0.099901
O1    O     O_R   0.506170 0.421700 0.658830 -0.616033
O2    O     O_R   0.493830 0.578300 0.341170 -0.616028
O3    O     O_R   0.491330 0.609310 0.646410 -0.632164
O4    O     O_R   0.508670 0.390690 0.353590 -0.632153
O5    O     O_R   0.690650 0.406190 0.506220 -0.597372
O6    O     O_R   0.309350 0.593810 0.493780 -0.597371
O7    O     O_R   0.675800 0.593810 0.493800 -0.625374
O8    O     O_R   0.324200 0.406190 0.506200 -0.625379
Zn1   Zn    Zn3+2 0.509910 0.374730 0.508290 0.956357
Zn2   Zn    Zn3+2 0.490090 0.625270 0.491710 0.956357

loop_
_geom_bond_atom_site_label_1
_geom_bond_atom_site_label_2
_ccdc_geom_bond_type
C35   H3    S    
C15   O6    A    
C15   C29   S    
C8    N1    A    
C25   C27   A    
C12   O4    A    
C7    N2    A    
C5    C13   A    
C17   I2    S    
C20   C22   A    
C32   H5    S    
O7    Zn2   S    
O1    Zn1   S    
C16   C27   A    
C36   H2    S    
O8    Zn1   S    
C10   H7    S    
C16   I1    S    
C32   C34   A    
C15   O8    A    
C27   C30   A    
C9    C11   A    
O3    Zn2   S    
C18   H14   S    
C4    C32   A    
C33   H6    S    
C3    C36   A    
C14   C30   S    
C34   H4    S    
C2    C4    A    
O6    Zn2   S    
N2    Zn2   S    
C28   C29   A    
C17   C19   A    
C14   O7    A    
N1    Zn1   S    
C26   C30   A    
C22   H16   S    
C23   C35   A    
C1    O1    A    
C6    H13   S    
C25   C29   A    
C5    H12   S    
O5    Zn1   S    
C31   C34   A    
C11   C13   A    
O4    Zn1   S    
C14   O5    A    
C6    C11   A    
C1    O3    A    
C3    C4    A    
C20   H11   S    
C7    H10   S    
C19   H15   S    
C1    C31   S    
C10   N1    A    
C21   H1    S    
C6    C8    A    
O2    Zn2   S    
C18   C20   A    
C16   C18   A    
C9    N2    A    
C2    H18   S    
C21   C24   A    
C2    C23   A    
C5    C7    A    
C3    C33   A    
C8    H9    S    
C9    H8    S    
C12   C23   S    
C33   C35   A    
C24   H17   S    
C31   C36   A    
C17   C28   A    
C26   C28   A    
C22   C25   A    
C24   C26   A    
C19   C21   A    
C10   C13   A    
C12   O2    A    
