data_mof_unit_24226.cif
_audit_creation_date              2012-12-11T15:16:41-0500
_audit_creation_method            fapswitch 2.2
_symmetry_space_group_name_H-M    P1
_symmetry_Int_Tables_number       1
_space_group_crystal_system       triclinic
_cell_length_a                    25.178918
_cell_length_b                    7.253084
_cell_length_c                    21.912346
_cell_angle_alpha                 90.005465
_cell_angle_beta                  110.367354
_cell_angle_gamma                 89.656022
_cell_volume                      3751.47500126

loop_
_atom_site_label
_atom_site_type_symbol
_atom_type_description
_atom_site_fract_x
_atom_site_fract_y
_atom_site_fract_z
_atom_type_partial_charge
O1    O     O_R   0.554350 0.505270 0.581390 -0.531256
O2    O     O_R   0.445650 0.005270 0.418610 -0.530913
O3    O     O_R   0.553380 0.177580 0.454800 -0.541377
O4    O     O_R   0.446620 0.677580 0.545200 -0.540907
C1    C     C_R   0.565568 0.344234 0.438095 0.676345
C2    C     C_R   0.434267 0.844955 0.561700 0.676020
O5    O     O_R   0.560970 0.175640 0.583140 -0.532391
O6    O     O_R   0.439030 0.675640 0.416860 -0.532388
O7    O     O_R   0.453290 0.004120 0.547860 -0.538972
O8    O     O_R   0.546710 0.504120 0.452140 -0.539800
C3    C     C_R   0.576165 0.343274 0.607550 0.693514
C4    C     C_R   0.424106 0.844286 0.392392 0.694194
O9    O     O_3   0.464660 0.338800 0.488280 -0.373893
O10   O     O_3   0.535340 0.838800 0.511720 -0.374628
V1    V     V_3+5 0.506560 0.064420 0.502170 1.411976
V2    V     V_3+5 0.493440 0.564420 0.497830 1.410724
C5    C     C_R   0.147628 0.971760 0.289779 0.296389
C6    C     C_R   0.848606 0.540866 0.713628 0.291075
H1    H     H_    0.062523 0.994026 0.222199 0.104241
H2    H     H_    0.933217 0.570235 0.781846 0.126215
H3    H     H_    0.235042 0.954507 0.403277 0.170220
H4    H     H_    0.760220 0.547050 0.600835 0.170560
C7    C     C_R   0.120915 0.940439 0.172544 -0.068202
C8    C     C_R   0.878986 0.448026 0.827306 -0.081436
C9    C     C_R   0.397125 0.825358 0.273424 -0.177202
C10   C     C_R   0.605597 0.284795 0.725204 -0.173511
C11   C     C_R   0.358029 0.829583 0.209918 0.346591
C12   C     C_R   0.645614 0.271549 0.788014 0.347354
C13   C     C_R   0.300315 0.855972 0.199513 -0.231621
C14   C     C_R   0.702445 0.313117 0.798731 -0.231380
C15   C     C_R   0.280512 0.882717 0.251947 0.058836
C16   C     C_R   0.720331 0.373008 0.747568 0.058890
C17   C     C_R   0.321440 0.881565 0.316548 0.070218
C18   C     C_R   0.678268 0.391641 0.683960 0.069711
C19   C     C_R   0.221512 0.910822 0.242315 0.043885
C20   C     C_R   0.778484 0.416314 0.757672 0.043714
C21   C     C_R   0.205224 0.940198 0.297714 0.098440
C22   C     C_R   0.792467 0.485751 0.704351 0.101181
C23   C     C_R   0.246473 0.936133 0.360373 -0.184859
C24   C     C_R   0.750313 0.499512 0.642459 -0.185586
C25   C     C_R   0.303284 0.907579 0.369607 -0.195208
C26   C     C_R   0.694552 0.452416 0.632378 -0.200147
C27   C     C_R   0.177993 0.911047 0.179735 -0.219729
C28   C     C_R   0.823261 0.395013 0.818867 -0.223698
C29   C     C_R   0.106320 0.969876 0.227533 -0.240347
C30   C     C_R   0.890875 0.522250 0.774849 -0.237990
C31   C     C_R   0.379829 0.852294 0.326809 -0.139442
C32   C     C_R   0.620807 0.345792 0.673099 -0.142684
H5    H     H_    0.186798 0.889803 0.135538 0.104666
H6    H     H_    0.816242 0.341721 0.861290 0.110612
H7    H     H_    0.441487 0.799472 0.281423 0.116625
H8    H     H_    0.562176 0.244893 0.716597 0.119120
H9    H     H_    0.272103 0.856691 0.149655 0.110077
H10   H     H_    0.731476 0.299707 0.847974 0.109475
H11   H     H_    0.333052 0.906126 0.419118 0.111382
H12   H     H_    0.664027 0.465952 0.583534 0.118893
C33   C     C_R   0.110682 0.774785 0.865786 0.285611
C34   C     C_R   0.872213 0.266943 0.112326 0.287258
C35   C     C_R   0.148062 0.774630 0.830565 -0.163503
C36   C     C_R   0.832345 0.265295 0.144039 -0.195665
H13   H     H_    0.152431 0.650869 0.805217 0.164125
H14   H     H_    0.813195 0.135786 0.148874 0.160651
C37   C     C_R   0.180010 0.930374 0.827571 -0.070386
C38   C     C_R   0.819807 0.424767 0.172791 -0.054535
C39   C     C_R   0.174661 0.089879 0.862331 -0.035354
C40   C     C_R   0.847281 0.589948 0.167049 -0.025056
C41   C     C_R   0.137447 0.091222 0.897464 -0.258664
C42   C     C_R   0.882184 0.594486 0.129097 -0.282330
H15   H     H_    0.134804 0.214255 0.924305 0.140231
H16   H     H_    0.902189 0.720418 0.124773 0.148531
C43   C     C_R   0.104944 0.935990 0.899946 -0.108145
C44   C     C_R   0.895157 0.435608 0.100647 -0.086932
N1    N     N_R   0.235757 0.073074 0.765580 -0.263826
N2    N     N_R   0.754555 0.563272 0.223618 -0.264858
N3    N     N_R   0.268962 0.061005 0.729741 -0.281536
N4    N     N_R   0.720827 0.551199 0.258730 -0.281906
C45   C     C_R   0.286131 0.894297 0.714756 0.504589
C46   C     C_R   0.711623 0.386475 0.282760 0.503664
N5    N     N_R   0.268531 0.740271 0.737272 -0.273836
N6    N     N_R   0.737312 0.233996 0.269518 -0.271666
N7    N     N_R   0.235374 0.752503 0.773136 -0.258352
N8    N     N_R   0.771138 0.246297 0.234460 -0.251294
C47   C     C_R   0.218345 0.919171 0.788420 0.524396
C48   C     C_R   0.780932 0.411507 0.211091 0.522986
C49   C     C_R   0.340026 0.708216 0.657874 -0.133484
C50   C     C_R   0.661958 0.203074 0.344635 -0.134307
H17   H     H_    0.325842 0.581825 0.673414 0.140096
H18   H     H_    0.678849 0.076392 0.332352 0.140742
C51   C     C_R   0.375491 0.696101 0.620836 -0.160061
C52   C     C_R   0.626975 0.192835 0.382262 -0.161711
H19   H     H_    0.387616 0.560767 0.609175 0.121140
H20   H     H_    0.617949 0.058474 0.397734 0.122012
C53   C     C_R   0.395356 0.856359 0.599762 -0.046195
C54   C     C_R   0.603855 0.353711 0.399322 -0.045574
C55   C     C_R   0.378291 0.028883 0.616388 -0.161609
C56   C     C_R   0.616911 0.524876 0.377833 -0.160880
H21   H     H_    0.392459 0.155744 0.601136 0.124294
H22   H     H_    0.600038 0.652110 0.389744 0.123395
C57   C     C_R   0.342814 0.040891 0.653265 -0.137296
C58   C     C_R   0.651679 0.534959 0.340165 -0.135492
H23   H     H_    0.330903 0.176265 0.665151 0.135043
H24   H     H_    0.660556 0.669404 0.324612 0.135652
C59   C     C_R   0.323336 0.880855 0.674774 0.023658
C60   C     C_R   0.674625 0.374342 0.322906 0.024104
O11   O     O_R   0.953220 0.285790 0.047790 -0.506349
O12   O     O_R   0.046780 0.785790 0.952210 -0.518271
O13   O     O_R   0.939020 0.617570 0.916840 -0.529170
O14   O     O_R   0.060980 0.117570 0.083160 -0.534764
C61   C     C_R   0.923892 0.449448 0.892432 0.711293
C62   C     C_R   0.076161 0.948264 0.107447 0.681608
O15   O     O_R   0.946600 0.615450 0.045180 -0.546454
O16   O     O_R   0.053400 0.115450 0.954820 -0.545168
O17   O     O_R   0.054370 0.786770 0.081410 -0.536946
O18   O     O_R   0.945630 0.286770 0.918590 -0.533308
C63   C     C_R   0.934437 0.446681 0.062136 0.695972
C64   C     C_R   0.065599 0.946297 0.938090 0.702775
O19   O     O_3   0.035300 0.454160 0.011680 -0.377649
O20   O     O_3   0.964700 0.954160 0.988320 -0.364800
V3    V     V_3+5 0.993450 0.728620 0.997830 1.431564
V4    V     V_3+5 0.006550 0.228620 0.002170 1.426870
C65   C     C_1   0.208577 0.252009 0.865794 0.325807
N9    N     N_1   0.235848 0.381908 0.868855 -0.313451
C66   C     C_1   0.845230 0.751284 0.204707 0.315411
N10   N     N_1   0.844050 0.878958 0.235874 -0.312526
N11   N     N_2   0.130747 0.006558 0.344368 -0.533397
H25   H     H_    0.091931 0.950984 0.339857 0.261410
C67   C     C_3   0.134433 0.198292 0.363537 -0.545226
H26   H     H_    0.104136 0.282997 0.324314 0.195721
H27   H     H_    0.178074 0.250703 0.373942 0.206933
H28   H     H_    0.123740 0.212431 0.408388 0.208263
N12   N     N_2   0.862784 0.619911 0.661850 -0.533037
H29   H     H_    0.902892 0.584903 0.662944 0.258573
C68   C     C_3   0.852654 0.816624 0.654376 -0.544162
H30   H     H_    0.880763 0.890384 0.698059 0.196868
H31   H     H_    0.807746 0.849746 0.647248 0.208091
H32   H     H_    0.861696 0.865742 0.611024 0.207140
N13   N     N_2   0.376518 0.800829 0.156106 -0.518491
H33   H     H_    0.344665 0.768805 0.112985 0.256893
C69   C     C_3   0.414607 0.939251 0.147751 -0.519810
H34   H     H_    0.426865 0.903296 0.105171 0.205047
H35   H     H_    0.453860 0.945916 0.191237 0.199102
H36   H     H_    0.393378 0.076483 0.139008 0.197523
N14   N     N_2   0.629156 0.208448 0.840395 -0.519141
H37   H     H_    0.662295 0.168065 0.881403 0.253820
C70   C     C_3   0.588473 0.324388 0.855615 -0.524814
H38   H     H_    0.578213 0.262482 0.896494 0.203356
H39   H     H_    0.548512 0.336309 0.813187 0.200727
H40   H     H_    0.606423 0.463840 0.870363 0.196881
N15   N     N_2   0.080965 0.610771 0.869510 -0.501012
H41   H     H_    0.101708 0.531272 0.909865 0.257883
C71   C     C_3   0.055459 0.505244 0.810554 -0.563071
H42   H     H_    0.025322 0.404874 0.818373 0.195851
H43   H     H_    0.088201 0.426052 0.798232 0.196333
H44   H     H_    0.031865 0.597685 0.769510 0.200449
N16   N     N_2   0.893553 0.096442 0.098971 -0.498330
H45   H     H_    0.863894 0.992934 0.085836 0.239071
C72   C     C_3   0.946327 0.042574 0.149211 -0.489801
H46   H     H_    0.967636 0.934422 0.130146 0.189256
H47   H     H_    0.938126 0.989876 0.192671 0.179121
H48   H     H_    0.975903 0.160768 0.164451 0.184233

loop_
_geom_bond_atom_site_label_1
_geom_bond_atom_site_label_2
_ccdc_geom_bond_type
C40   C42   A    
C37   C39   A    
C72   H46   S    
C7    C29   A    
O12   V3    S    
C11   C13   A    
N1    N3    A    
O14   V4    S    
C57   C59   A    
O1    C3    A    
C50   C60   A    
C2    O7    A    
C67   H27   S    
C1    C54   S    
C6    N12   S    
C66   N10   T    
C23   C25   A    
O5    C3    A    
C14   H10   S    
C44   C63   S    
C11   N13   S    
N2    N4    A    
C16   C20   A    
O15   V3    S    
C19   C21   A    
C5    C29   A    
N15   C71   S    
C70   H38   S    
C69   H36   S    
C55   C57   A    
C33   C35   A    
N16   C72   S    
C34   C36   A    
N14   H37   S    
C58   C60   A    
C7    C27   A    
C36   H14   S    
O1    V2    S    
C71   H44   S    
C68   H31   S    
O20   V3    S    
C38   C48   S    
C26   H12   S    
O17   V3    S    
C25   H11   S    
O14   C62   A    
C18   C26   A    
C39   C41   A    
C56   H22   S    
C68   H32   S    
C71   H42   S    
C15   C17   A    
O11   V4    S    
C39   C65   S    
C51   H19   S    
C19   C27   A    
C9    C31   A    
C41   C43   A    
C49   C59   A    
C10   C32   A    
O5    V1    S    
O2    C4    A    
C53   C55   A    
C22   C24   A    
C13   C15   A    
O13   C61   A    
C3    C32   S    
C4    C31   S    
C6    C30   A    
O13   V3    S    
N7    C47   A    
C52   C54   A    
C5    N11   S    
C49   H17   S    
C35   H13   S    
C70   H39   S    
C50   H18   S    
C46   C60   S    
N4    C46   A    
N6    N8    A    
C50   C52   A    
O19   V4    S    
N5    N7    A    
C49   C51   A    
C27   H5    S    
N12   C68   S    
H1    C29   S    
O12   C64   A    
C42   C44   A    
C41   H15   S    
C16   C18   A    
O4    V2    S    
C9    H7    S    
C10   H8    S    
N13   C69   S    
C52   H20   S    
H3    C23   S    
O6    C4    A    
C2    C53   S    
H4    C24   S    
C58   H24   S    
C45   N5    A    
C12   N14   S    
C5    C21   A    
C33   C43   A    
C54   C56   A    
O2    V1    S    
N3    C45   A    
C62   O17   A    
C65   N9    T    
C61   O18   A    
C33   N15   S    
C57   H23   S    
C72   H48   S    
N8    C48   A    
N11   H25   S    
C17   C31   A    
C15   C19   A    
C45   C59   S    
O4    C2    A    
C18   C32   A    
N12   H29   S    
O16   C64   A    
C70   H40   S    
O3    V1    S    
O16   V4    S    
C28   H6    S    
N14   C70   S    
C7    C62   S    
O10   V1    S    
C35   C37   A    
O11   C63   A    
C8    C61   S    
N2    C48   A    
O3    C1    A    
C72   H47   S    
C69   H34   S    
C55   H21   S    
C9    C11   A    
N13   H33   S    
C10   C12   A    
C36   C38   A    
C8    C30   A    
C20   C22   A    
C6    C22   A    
C67   H28   S    
C17   C25   A    
C1    O8    A    
C21   C23   A    
O8    V2    S    
N15   H41   S    
C14   C16   A    
C69   H35   S    
C34   C44   A    
C68   H30   S    
C13   H9    S    
C8    C28   A    
C56   C58   A    
C24   C26   A    
C12   C14   A    
C43   C64   S    
C46   N6    A    
C71   H43   S    
C51   C53   A    
H2    C30   S    
C20   C28   A    
C34   N16   S    
O6    V2    S    
O9    V2    S    
C37   C47   S    
N16   H45   S    
N11   C67   S    
C42   H16   S    
C40   C66   S    
O15   C63   A    
N1    C47   A    
O18   V4    S    
C67   H26   S    
O7    V1    S    
C38   C40   A    
