data_mof_unit_8100.cif
_audit_creation_date              2012-12-10T18:54:24-0500
_audit_creation_method            fapswitch 2.2
_symmetry_space_group_name_H-M    P1
_symmetry_Int_Tables_number       1
_space_group_crystal_system       triclinic
_cell_length_a                    10.705052
_cell_length_b                    9.813295
_cell_length_c                    23.436487
_cell_angle_alpha                 89.818311
_cell_angle_beta                  90.114744
_cell_angle_gamma                 89.979229
_cell_volume                      2462.02844122

loop_
_atom_site_label
_atom_site_type_symbol
_atom_type_description
_atom_site_fract_x
_atom_site_fract_y
_atom_site_fract_z
_atom_type_partial_charge
C1    C     C_R   0.259807 0.500018 0.499963 0.879084
C2    C     C_R   0.740193 0.499982 0.500041 0.880518
C3    C     C_R   0.511085 0.626339 0.238387 -0.121804
C4    C     C_R   0.489492 0.375026 0.761842 -0.120528
C5    C     C_R   0.509361 0.625194 0.297454 -0.174814
C6    C     C_R   0.489354 0.375678 0.702746 -0.182280
C7    C     C_R   0.500482 0.501177 0.326992 -0.125614
C8    C     C_R   0.500932 0.499123 0.672994 -0.110510
C9    C     C_R   0.492368 0.378302 0.296743 -0.278771
C10   C     C_R   0.513675 0.621853 0.703014 -0.288714
C11   C     C_R   0.492851 0.378640 0.237247 0.501764
C12   C     C_R   0.515050 0.621962 0.762488 0.413207
C13   C     C_R   0.503487 0.504089 0.208257 0.157088
C14   C     C_R   0.501683 0.497194 0.791716 0.174916
C15   C     C_R   0.063937 0.379190 0.487824 -0.172612
C16   C     C_R   0.936062 0.620805 0.512194 -0.172487
C17   C     C_R   0.936035 0.379148 0.487891 -0.172998
C18   C     C_R   0.063964 0.620848 0.512125 -0.175519
C19   C     C_R   0.872576 0.499963 0.500060 -0.018132
C20   C     C_R   0.127423 0.500035 0.499954 -0.017958
C21   C     C_R   0.576178 0.071742 0.536216 -0.062914
C22   C     C_R   0.423822 0.928258 0.463784 -0.061555
C23   C     C_R   0.423818 0.072354 0.463784 -0.058246
C24   C     C_R   0.576180 0.927646 0.536216 -0.060462
C25   C     C_R   0.499949 0.500244 0.389232 0.916102
C26   C     C_R   0.500220 0.499781 0.610763 0.908357
C27   C     C_R   0.607378 0.459996 0.880513 0.640732
C28   C     C_R   0.399520 0.544024 0.119295 0.648795
C29   C     C_R   0.392099 0.522116 0.880113 0.603115
C30   C     C_R   0.614426 0.480296 0.120043 0.607693
C31   C     C_R   0.391826 0.535439 0.939990 -0.075534
C32   C     C_R   0.615788 0.469823 0.060034 -0.087294
C33   C     C_R   0.502127 0.498125 0.970036 -0.044077
C34   C     C_R   0.505690 0.507376 0.029917 -0.044014
C35   C     C_R   0.607644 0.447993 0.940202 -0.145153
C36   C     C_R   0.400191 0.557556 0.059702 -0.152407
C37   C     C_R   0.288473 0.590231 0.970213 -0.161467
C38   C     C_R   0.720139 0.417759 0.029697 -0.172085
C39   C     C_R   0.297991 0.614186 0.029183 0.397289
C40   C     C_R   0.710768 0.393214 0.970729 0.405120
H1    H     H_    0.518616 0.722391 0.215749 0.194691
H2    H     H_    0.479762 0.279500 0.784686 0.190850
H3    H     H_    0.515666 0.721281 0.319894 0.187470
H4    H     H_    0.479498 0.279753 0.680451 0.183388
H5    H     H_    0.485380 0.282339 0.319446 0.201790
H6    H     H_    0.523138 0.717291 0.680127 0.199502
H7    H     H_    0.112716 0.285419 0.477948 0.158745
H8    H     H_    0.887282 0.714575 0.522070 0.158433
H9    H     H_    0.887234 0.285349 0.478070 0.163627
H10   H     H_    0.112766 0.714647 0.521946 0.162015
H11   H     H_    0.636992 0.126304 0.565124 0.139469
H12   H     H_    0.363009 0.873695 0.434876 0.140087
H13   H     H_    0.362994 0.127403 0.434878 0.137026
H14   H     H_    0.637000 0.872596 0.565125 0.136038
N1    N     N_R   0.500242 0.492687 0.852414 -0.349776
N2    N     N_R   0.505977 0.509542 0.147567 -0.348183
N3    N     N_R   0.500000 0.857200 0.500000 -0.087458
N4    N     N_R   0.500000 0.142800 0.500000 -0.087469
O1    O     O_R   0.316770 0.614620 0.500000 -0.627084
O2    O     O_R   0.683230 0.385380 0.500000 -0.626466
O3    O     O_R   0.683230 0.614620 0.500000 -0.626152
O4    O     O_R   0.316770 0.385380 0.500000 -0.627353
O5    O     O_R   0.499970 0.614690 0.416160 -0.620732
O6    O     O_R   0.500030 0.385310 0.583840 -0.621541
O7    O     O_R   0.500030 0.614690 0.583840 -0.622165
O8    O     O_R   0.499970 0.385310 0.416160 -0.620204
O9    O     O_2   0.713967 0.446815 0.850468 -0.434614
O10   O     O_2   0.292480 0.557112 0.149023 -0.429966
O11   O     O_2   0.287296 0.541594 0.849086 -0.551546
O12   O     O_2   0.718350 0.457900 0.151337 -0.514322
Zn1   Zn    Zn3+2 0.500000 0.653120 0.500000 0.963282
Zn2   Zn    Zn3+2 0.500000 0.346880 0.500000 0.963854
C41   C     C_1   0.171704 0.622959 0.941774 0.478092
N5    N     N_1   0.078302 0.648995 0.919246 -0.045501
C42   C     C_1   0.838301 0.390096 0.057889 0.472603
N6    N     N_1   0.932853 0.368193 0.080181 -0.050252
S1    S     S_3+6 0.192244 0.732085 0.061947 0.083126
O13   O     O_2   0.082236 0.655041 0.085322 -0.242585
O14   O     O_2   0.256293 0.807558 0.109478 -0.231747
O15   O     O_3   0.140966 0.848156 0.014352 -0.538652
H15   H     H_    0.077845 0.902483 0.035157 0.411248
S2    S     S_3+6 0.818454 0.277437 0.937853 0.086883
O16   O     O_2   0.869363 0.177320 0.980683 -0.287014
O17   O     O_2   0.754343 0.198254 0.891414 -0.209251
O18   O     O_3   0.937605 0.366965 0.909952 -0.508061
H16   H     H_    0.993816 0.297828 0.893081 0.397341
S3    S     S_3+6 0.480666 0.222186 0.200212 0.056674
O19   O     O_2   0.607432 0.183217 0.178171 -0.259140
O20   O     O_2   0.434111 0.111920 0.239432 -0.286974
O21   O     O_3   0.381359 0.238445 0.144927 -0.530764
H17   H     H_    0.390694 0.153102 0.122885 0.405349
S4    S     S_3+6 0.533767 0.778044 0.799325 0.069222
O22   O     O_2   0.633635 0.763041 0.844049 -0.206829
O23   O     O_2   0.570285 0.890344 0.758888 -0.293587
O24   O     O_3   0.399047 0.820216 0.831502 -0.495822
H18   H     H_    0.336373 0.823490 0.800376 0.364581

loop_
_geom_bond_atom_site_label_1
_geom_bond_atom_site_label_2
_ccdc_geom_bond_type
C23   N4    A    
C38   C40   A    
S3    O19   D    
C9    H5    S    
C8    C26   S    
C41   N5    T    
O24   H18   S    
C15   H7    S    
C1    O4    A    
C16   H8    S    
C22   N3    A    
C28   N2    A    
S1    O13   D    
C39   S1    S    
C28   O10   S    
C1    O1    A    
C27   N1    A    
O2    Zn2   S    
C24   H14   S    
C7    C9    A    
C25   O5    A    
C26   O6    A    
C33   C35   A    
O8    Zn2   S    
C11   S3    S    
C24   N3    A    
C10   H6    S    
C31   C33   A    
C32   C38   A    
C18   C20   A    
C3    C13   A    
C2    O3    A    
C13   N2    S    
O3    Zn1   S    
C14   N1    S    
C5    H3    S    
C6    H4    S    
C2    O2    A    
C30   O12   S    
C23   H13   S    
C29   O11   S    
C38   C42   S    
S1    O14   D    
C15   C20   A    
C40   S2    S    
C4    C6    A    
C17   H9    S    
C5    C7    A    
C6    C8    A    
C29   N1    A    
C27   C35   A    
O18   H16   S    
C30   N2    A    
S4    O24   S    
C31   C37   A    
C32   C34   A    
C42   N6    T    
C29   C31   A    
S4    O23   D    
C33   C34   A    
O4    Zn2   S    
N3    Zn1   S    
C9    C11   A    
C10   C12   A    
C8    C10   A    
O5    Zn1   S    
S2    O17   D    
S3    O20   D    
S3    O21   S    
C21   H11   S    
C18   H10   S    
C22   H12   S    
S1    O15   S    
C15   C17   A    
C37   C41   S    
C3    H1    S    
C1    C20   S    
C2    C19   S    
C26   O7    A    
C12   S4    S    
C36   C39   A    
C25   O8    A    
C12   C14   A    
O15   H15   S    
C3    C5    A    
S2    O18   S    
C7    C25   S    
C35   C40   A    
C21   N4    A    
C37   C39   A    
O7    Zn1   S    
C30   C32   A    
C11   C13   A    
N4    Zn2   S    
O21   H17   S    
C4    H2    S    
C16   C19   A    
S4    O22   D    
C17   C19   A    
C34   C36   A    
O6    Zn2   S    
C4    C14   A    
C27   O9    S    
C28   C36   A    
C16   C18   A    
S2    O16   D    
C21   C24   A    
C22   C23   A    
O1    Zn1   S    
