data_mof_unit_60400.cif
_audit_creation_date              2012-10-26T18:14:24-0400
_audit_creation_method            fapswitch 2.2
_symmetry_space_group_name_H-M    P1
_symmetry_Int_Tables_number       1
_space_group_crystal_system       triclinic
_cell_length_a                    27.720116
_cell_length_b                    27.736605
_cell_length_c                    27.741053
_cell_angle_alpha                 109.451755
_cell_angle_beta                  109.481514
_cell_angle_gamma                 109.424545
_cell_volume                      16430.40571

loop_
_atom_site_label
_atom_site_type_symbol
_atom_type_description
_atom_site_fract_x
_atom_site_fract_y
_atom_site_fract_z
_atom_type_partial_charge
C1    C     C_R   0.919872 0.919864 0.499999 0.554664
C2    C     C_3   0.796987 0.734978 0.483407 -0.212729
C3    C     C_3   0.748509 0.686483 0.483387 -0.213615
C4    C     C_R   0.919789 0.999975 0.419770 0.554182
C5    C     C_1   0.624978 0.624862 0.499894 -0.034787
C6    C     C_3   0.791261 0.791204 0.499964 0.068628
C7    C     C_3   0.748349 0.764857 0.561805 -0.213669
C8    C     C_3   0.708738 0.708651 0.499928 0.069036
C9    C     C_3   0.680425 0.725700 0.454616 -0.212818
C10   C     C_3   0.728902 0.774196 0.454637 -0.213882
C11   C     C_1   0.662665 0.662561 0.499908 -0.077616
C12   C     C_3   0.791479 0.999957 0.291424 0.051752
C13   C     C_1   0.837333 0.837294 0.499981 -0.076735
C14   C     C_1   0.875017 0.874993 0.499991 -0.033356
C15   C     C_3   0.252590 0.064070 0.764497 -0.052187
C16   C     C_R   0.080140 0.080135 0.500013 0.556347
C17   C     C_3   0.244192 0.976684 0.684903 -0.191571
C18   C     C_3   0.294250 0.979070 0.734063 -0.192423
C19   C     C_1   0.375665 0.000007 0.875661 -0.028672
C20   C     C_3   0.209238 0.000716 0.709402 0.045881
C21   C     C_3   0.301319 0.063272 0.812539 -0.206344
C22   C     C_3   0.291385 0.999724 0.791903 0.045935
C23   C     C_3   0.770429 0.054127 0.256535 -0.100347
C24   C     C_3   0.228487 0.959467 0.779363 -0.052507
C25   C     C_3   0.180299 0.959629 0.730149 -0.207030
C26   C     C_1   0.337857 0.999944 0.838012 -0.077681
C27   C     C_1   0.162905 0.000303 0.662964 -0.077520
C28   C     C_R   0.080226 0.000028 0.580245 0.557006
C29   C     C_1   0.125137 0.000115 0.625152 -0.028596
C30   C     C_3   0.201534 0.264039 0.514071 -0.213547
C31   C     C_3   0.204763 0.185657 0.438852 -0.213465
C32   C     C_3   0.253232 0.234108 0.438822 -0.213908
C33   C     C_1   0.375031 0.374924 0.499906 -0.034277
C34   C     C_3   0.709283 0.999975 0.209227 0.051738
C35   C     C_3   0.208779 0.208732 0.500018 0.066898
C36   C     C_3   0.250007 0.312492 0.514044 -0.213564
C37   C     C_3   0.291291 0.291209 0.499968 0.068154
C38   C     C_3   0.319575 0.275989 0.547070 -0.212849
C39   C     C_3   0.271103 0.227539 0.547102 -0.212089
C40   C     C_3   0.701938 0.984861 0.255746 -0.100416
C41   C     C_1   0.337355 0.337257 0.499935 -0.077216
C42   C     C_1   0.162707 0.162680 0.500037 -0.074978
C43   C     C_1   0.125012 0.125000 0.500034 -0.030698
C44   C     C_R   0.500635 0.080097 0.080696 0.553979
C45   C     C_3   0.798823 0.015071 0.244905 -0.099825
C46   C     C_R   0.580973 0.999996 0.080920 0.554060
C47   C     C_R   0.500859 0.919870 0.920673 0.556140
C48   C     C_R   0.420549 0.999985 0.920488 0.556459
C49   C     C_R   0.499821 0.579910 0.579894 0.554516
C50   C     C_R   0.580118 0.579991 0.499882 0.554482
C51   C     C_R   0.500182 0.419856 0.419875 0.554546
C52   C     C_3   0.730333 0.945805 0.244116 -0.099809
C53   C     C_R   0.419883 0.419765 0.499881 0.554643
C54   C     C_3   0.438832 0.186135 0.204158 -0.213188
C55   C     C_3   0.515858 0.264504 0.202618 -0.212926
C56   C     C_3   0.736977 0.960919 0.196896 -0.099492
C57   C     C_3   0.515798 0.312994 0.251013 -0.213625
C58   C     C_1   0.500243 0.375018 0.375073 -0.034837
C59   C     C_3   0.500448 0.208721 0.209073 0.069033
C60   C     C_3   0.438773 0.234625 0.252555 -0.213651
C61   C     C_3   0.500346 0.291258 0.291449 0.069252
C62   C     C_3   0.546530 0.275085 0.319809 -0.212775
C63   C     C_3   0.546589 0.226595 0.271414 -0.213758
C64   C     C_1   0.874945 0.999958 0.374906 -0.031266
C65   C     C_1   0.500290 0.337335 0.337442 -0.077699
C66   C     C_1   0.500507 0.162642 0.163085 -0.077281
C67   C     C_1   0.837282 0.999953 0.337233 -0.062262
C68   C     C_1   0.500562 0.124952 0.125469 -0.034116
C69   C     C_3   0.486162 0.735719 0.798623 -0.213329
C70   C     C_3   0.561570 0.814040 0.795516 -0.213382
C71   C     C_3   0.561353 0.765536 0.746847 -0.213717
C72   C     C_1   0.499797 0.624774 0.624756 -0.034534
C73   C     C_3   0.500423 0.791166 0.791630 0.067580
C74   C     C_3   0.485943 0.687215 0.749953 -0.213619
C75   C     C_3   0.500053 0.708583 0.708767 0.068524
C76   C     C_1   0.625817 0.999992 0.125762 -0.031219
C77   C     C_3   0.453091 0.724115 0.680789 -0.212979
C78   C     C_1   0.663480 0.999986 0.163425 -0.062225
C79   C     C_3   0.453308 0.772620 0.729459 -0.212864
C80   C     C_1   0.499871 0.662474 0.662519 -0.077304
C81   C     C_1   0.500626 0.837277 0.837896 -0.075226
C82   C     C_1   0.500762 0.874987 0.875710 -0.031089
C83   C     C_3   0.763784 0.039013 0.303755 -0.100620
C84   C     C_2   0.278837 0.110058 0.749099 0.203322
C85   C     C_2   0.215786 0.897464 0.765250 0.204985
C86   C     C_3   0.796828 0.813352 0.561826 -0.213223
Cu1   Cu    Cu3+1 0.999890 0.041260 0.541240 0.931739
Cu2   Cu    Cu3+1 0.000110 0.958740 0.458760 0.939311
Cu3   Cu    Cu3+1 0.459450 0.958710 0.000750 0.935699
Cu4   Cu    Cu3+1 0.542080 0.041260 0.000670 0.937729
Cu5   Cu    Cu3+1 0.541380 0.499870 0.541250 0.931844
Cu6   Cu    Cu3+1 0.458620 0.499880 0.458500 0.930416
H1    H     H_    0.714322 0.901248 0.239490 0.104662
H2    H     H_    0.651874 0.686164 0.409629 0.114908
H3    H     H_    0.346344 0.093330 0.823107 0.164531
H4    H     H_    0.661606 0.972436 0.259726 0.105415
H5    H     H_    0.213761 0.930217 0.648217 0.133798
H6    H     H_    0.263075 0.002170 0.665961 0.167800
H7    H     H_    0.337713 0.010139 0.742377 0.133405
H8    H     H_    0.291032 0.935075 0.718901 0.166946
H9    H     H_    0.154321 0.975056 0.747727 0.086886
H10   H     H_    0.148129 0.914379 0.691590 0.163044
H11   H     H_    0.226671 0.978804 0.820502 0.066758
H12   H     H_    0.841340 0.745820 0.515427 0.116426
H13   H     H_    0.226674 0.077503 0.783741 0.067891
H14   H     H_    0.300041 0.080053 0.854309 0.086010
H15   H     H_    0.725469 0.928796 0.152460 0.104190
H16   H     H_    0.228825 0.323516 0.480713 0.115575
H17   H     H_    0.157177 0.251895 0.480749 0.114544
H18   H     H_    0.210092 0.146009 0.427682 0.116697
H19   H     H_    0.160466 0.172039 0.404119 0.114256
H20   H     H_    0.232107 0.243658 0.404077 0.114943
H21   H     H_    0.281732 0.217624 0.427633 0.113748
H22   H     H_    0.275372 0.244586 0.591615 0.119567
H23   H     H_    0.769686 0.674141 0.515398 0.116194
H24   H     H_    0.277674 0.188675 0.537964 0.120680
H25   H     H_    0.347021 0.316201 0.591569 0.117124
H26   H     H_    0.839157 0.027498 0.240927 0.104513
H27   H     H_    0.204496 0.281769 0.557963 0.116328
H28   H     H_    0.276146 0.353386 0.557925 0.114020
H29   H     H_    0.349318 0.260288 0.537913 0.117526
H30   H     H_    0.404675 0.244867 0.231366 0.114543
H31   H     H_    0.404765 0.173195 0.159830 0.113374
H32   H     H_    0.560097 0.281892 0.206233 0.116067
H33   H     H_    0.483235 0.253032 0.158260 0.114157
H34   H     H_    0.721236 0.646209 0.438941 0.113604
H35   H     H_    0.483145 0.324705 0.229794 0.114952
H36   H     H_    0.560007 0.353566 0.277766 0.113529
H37   H     H_    0.536462 0.187373 0.277419 0.114555
H38   H     H_    0.786440 0.098684 0.261163 0.105531
H39   H     H_    0.591404 0.243271 0.276319 0.114783
H40   H     H_    0.536376 0.259048 0.348953 0.115279
H41   H     H_    0.426683 0.146154 0.208900 0.115343
H42   H     H_    0.426597 0.217827 0.280437 0.113251
H43   H     H_    0.591316 0.314946 0.347852 0.115234
H44   H     H_    0.519176 0.675971 0.770923 0.115452
H45   H     H_    0.723414 0.813749 0.465597 0.114468
H46   H     H_    0.519500 0.747663 0.842857 0.114265
H47   H     H_    0.572891 0.853780 0.790359 0.116106
H48   H     H_    0.596326 0.827456 0.839692 0.114194
H49   H     H_    0.596006 0.755768 0.767760 0.114981
H50   H     H_    0.775291 0.071136 0.348190 0.105827
H51   H     H_    0.572572 0.782091 0.718427 0.113447
H52   H     H_    0.408803 0.755716 0.725277 0.119685
H53   H     H_    0.462592 0.811582 0.723060 0.117002
H54   H     H_    0.408484 0.684023 0.653343 0.116885
H55   H     H_    0.442276 0.718122 0.795742 0.117274
H56   H     H_    0.723528 0.757846 0.409660 0.114445
H57   H     H_    0.441953 0.646430 0.723808 0.114185
H58   H     H_    0.462275 0.739890 0.651127 0.116181
H59   H     H_    0.769521 0.753985 0.595288 0.115331
H60   H     H_    0.841178 0.825663 0.595317 0.114551
H61   H     H_    0.792889 0.717890 0.438970 0.116312
H62   H     H_    0.261873 0.139931 0.747679 0.104643
H63   H     H_    0.217992 0.885008 0.798767 0.106940
H64   H     H_    0.651759 0.742066 0.465564 0.115006
H65   H     H_    0.792616 0.853640 0.574798 0.115313
H66   H     H_    0.720958 0.781960 0.574765 0.113162
O1    O     O_R   0.939620 0.974560 0.534830 -0.504632
O2    O     O_R   0.464910 0.560090 0.525130 -0.503569
O3    O     O_R   0.595230 0.560150 0.534820 -0.503759
O4    O     O_R   0.939810 0.904870 0.465170 -0.503368
O5    O     O_R   0.525340 0.560160 0.464940 -0.503985
O6    O     O_R   0.535090 0.439670 0.474620 -0.503600
O7    O     O_R   0.465200 0.439670 0.404750 -0.504167
O8    O     O_R   0.474660 0.439590 0.534810 -0.503369
O9    O     O_R   0.404770 0.439600 0.464940 -0.503996
O10   O     O_R   0.939530 0.034830 0.474440 -0.503793
O11   O     O_R   0.939720 0.965140 0.404790 -0.503865
O12   O     O_R   0.535560 0.095110 0.060860 -0.503692
O13   O     O_R   0.060190 0.095130 0.534830 -0.504068
O14   O     O_R   0.060380 0.025440 0.465170 -0.502969
O15   O     O_R   0.060280 0.034860 0.595210 -0.506518
O16   O     O_R   0.060470 0.965170 0.525560 -0.500673
O17   O     O_R   0.465780 0.025400 0.060920 -0.504987
O18   O     O_2   0.317774 0.113327 0.736787 -0.522963
O19   O     O_2   0.204516 0.861517 0.717342 -0.522088
O20   O     O_R   0.526250 0.965140 0.061120 -0.503860
O21   O     O_R   0.596030 0.034850 0.061050 -0.503792
O22   O     O_R   0.465970 0.904870 0.940560 -0.502207
O23   O     O_R   0.535750 0.974580 0.940490 -0.503685
O24   O     O_R   0.405500 0.965130 0.940370 -0.504088
O25   O     O_R   0.475290 0.034840 0.940300 -0.502292
O26   O     O_R   0.534800 0.560080 0.595010 -0.503807

loop_
_geom_bond_atom_site_label_1
_geom_bond_atom_site_label_2
_ccdc_geom_bond_type
C45   H26   S    
C66   C68   T    
C54   H31   S    
C34   C56   S    
C23   C45   S    
C55   C59   S    
C27   C29   T    
C46   O20   A    
Cu5   O8    S    
Cu6   O9    S    
C44   O17   A    
C47   O23   A    
C25   H9    S    
C57   H36   S    
C46   C76   S    
C81   C82   T    
C3    H34   S    
C7    C8    S    
C79   H53   S    
C7    H66   S    
C54   C60   S    
C70   H48   S    
C62   C63   S    
C23   C83   S    
C30   C35   S    
C34   C40   S    
C21   C22   S    
C36   C37   S    
C76   C78   T    
C5    C11   T    
C59   C66   S    
C38   C39   S    
C28   O15   A    
Cu3   O22   S    
C7    C86   S    
C36   H16   S    
C20   C25   S    
C17   C20   S    
Cu2   O16   S    
Cu2   O14   S    
C85   H63   S    
C47   C82   S    
C19   C26   T    
C35   C42   S    
C55   H32   S    
C38   H25   S    
C84   H62   S    
Cu6   O7    S    
C53   O9    A    
C55   H33   S    
C45   C56   S    
C8    C9    S    
C49   C72   S    
C74   H44   S    
C49   O2    A    
C69   C73   S    
C70   C71   S    
C10   H45   S    
C63   H39   S    
C32   H21   S    
C17   H6    S    
C21   H14   S    
C71   H49   S    
C23   C34   S    
C70   H47   S    
C13   C14   T    
C50   O3    A    
C40   C83   S    
C2    C6    S    
C18   H8    S    
C40   H4    S    
C9    C10   S    
C73   C81   S    
C12   C52   S    
C54   C59   S    
C77   C79   S    
C33   C53   S    
C15   C20   S    
Cu1   O15   S    
C12   C67   S    
C71   C75   S    
C74   C75   S    
C30   H17   S    
C64   C67   T    
C62   H40   S    
C1    O1    A    
C24   C25   S    
C9    H64   S    
C3    C8    S    
C4    O11   A    
Cu5   Cu6   S    
C19   C48   S    
C21   H3    S    
C40   C52   S    
C54   H41   S    
Cu3   O20   S    
C4    O10   A    
C23   H38   S    
C60   C61   S    
C62   H43   S    
C35   C39   S    
C56   H15   S    
C6    C10   S    
C37   C38   S    
C86   H60   S    
C48   O25   A    
C49   O26   A    
C16   O14   A    
C58   C65   T    
C79   H52   S    
Cu4   O23   S    
C2    H12   S    
C39   H22   S    
Cu1   O13   S    
Cu4   O12   S    
C70   C73   S    
C17   C18   S    
C73   C79   S    
C51   O6    A    
C74   H57   S    
C51   C58   S    
C32   C37   S    
C60   H30   S    
C75   C77   S    
C16   C43   S    
C7    H59   S    
Cu6   O5    S    
C1    O4    A    
C2    H61   S    
C25   H10   S    
C55   C57   S    
Cu1   O10   S    
C22   C26   S    
C69   H55   S    
C31   C35   S    
C5    C50   S    
C44   C68   S    
C18   H7    S    
Cu3   O17   S    
C60   H42   S    
C30   H27   S    
C71   H51   S    
C24   C85   S    
C69   H46   S    
Cu4   O21   S    
C28   C29   S    
Cu2   O11   S    
C32   H20   S    
C50   O5    A    
C18   C22   S    
C46   O21   A    
C31   C32   S    
Cu5   O6    S    
C12   C45   S    
C77   H58   S    
C57   H35   S    
C83   H50   S    
C57   C61   S    
C15   C84   S    
C20   C27   S    
C47   O22   A    
C4    C64   S    
C59   C63   S    
C6    C86   S    
C30   C36   S    
Cu6   O2    S    
C24   H11   S    
C33   C41   T    
Cu3   O24   S    
C15   H13   S    
C52   H1    S    
C2    C3    S    
C72   C80   T    
C3    H23   S    
C34   C78   S    
C6    C13   S    
C48   O24   A    
C16   O13   A    
C28   O16   A    
C8    C11   S    
Cu2   O4    S    
C77   H54   S    
C31   H18   S    
Cu1   O1    S    
C22   C24   S    
C63   H37   S    
C37   C41   S    
C61   C62   S    
C36   H28   S    
C86   H65   S    
C44   O12   A    
C38   H29   S    
C51   O7    A    
C61   C65   S    
C53   O8    A    
C15   C21   S    
C75   C80   S    
Cu4   O25   S    
C12   C83   S    
Cu1   Cu2   S    
C85   O19   D    
C39   H24   S    
C42   C43   T    
Cu5   O26   S    
C31   H19   S    
C69   C74   S    
Cu5   O3    S    
C1    C14   S    
Cu3   Cu4   S    
C84   O18   D    
C17   H5    S    
C9    H2    S    
C52   C56   S    
C10   H56   S    
