data_mof_unit_58836.cif
_audit_creation_date              2013-03-05T15:41:40-0500
_audit_creation_method            fapswitch 2.2
_symmetry_space_group_name_H-M    P1
_symmetry_Int_Tables_number       1
_space_group_crystal_system       triclinic
_cell_length_a                    17.22571
_cell_length_b                    8.687522
_cell_length_c                    7.529543
_cell_angle_alpha                 103.253561
_cell_angle_beta                  91.815833
_cell_angle_gamma                 94.30257
_cell_volume                      1092.29556533

loop_
_atom_site_label
_atom_site_type_symbol
_atom_site_description
_atom_site_fract_x
_atom_site_fract_y
_atom_site_fract_z
_atom_type_partial_charge
O1    O     O_R   0.505650 0.286040 0.618880 -0.564618
O2    O     O_R   0.494350 0.713960 0.381120 -0.564630
O3    O     O_R   0.490960 0.256910 0.309800 -0.572199
O4    O     O_R   0.509040 0.743090 0.690200 -0.572183
C1    C     C_R   0.497060 0.199777 0.453503 0.857381
C2    C     C_R   0.502940 0.800223 0.546497 0.857373
O5    O     O_R   0.394600 0.516230 0.672450 -0.561176
O6    O     O_R   0.605400 0.483770 0.327550 -0.561166
O7    O     O_R   0.379910 0.487100 0.363380 -0.571440
O8    O     O_R   0.620090 0.512900 0.636620 -0.571458
C3    C     C_R   0.351181 0.505221 0.523445 0.809604
C4    C     C_R   0.648818 0.494777 0.476555 0.809602
Cu1   Cu    Cu3+1 0.508700 0.517250 0.683000 1.106621
Cu2   Cu    Cu3+1 0.491300 0.482750 0.317000 1.106619
C5    C     C_R   0.267222 0.520991 0.531634 -0.096883
C6    C     C_R   0.732777 0.479001 0.468369 -0.096877
C7    C     C_R   0.221696 0.490799 0.367300 -0.223272
C8    C     C_R   0.778301 0.509192 0.632706 -0.223277
C9    C     C_R   0.142868 0.515590 0.366546 0.328816
C10   C     C_R   0.857129 0.484393 0.633465 0.328816
C11   C     C_R   0.107931 0.562336 0.535335 0.011138
C12   C     C_R   0.892067 0.437642 0.464679 0.011141
C13   C     C_R   0.153492 0.597186 0.699261 -0.110298
C14   C     C_R   0.846508 0.402792 0.300751 -0.110299
C15   C     C_R   0.232953 0.577615 0.697555 -0.123257
C16   C     C_R   0.767047 0.422370 0.302451 -0.123251
C17   C     C_2   0.023458 0.562399 0.545863 -0.060423
C18   C     C_2   0.976540 0.437575 0.454155 -0.060423
H1    H     H_    0.127055 0.635777 0.828947 0.215381
H2    H     H_    0.872945 0.364196 0.171066 0.215380
C19   C     C_2   0.494026 0.031297 0.428370 -0.297845
C20   C     C_2   0.505974 0.968703 0.571631 -0.297843
N1    N     N_2   0.478180 0.456750 0.041980 0.020114
N2    N     N_2   0.521820 0.543250 0.958020 0.020120
H3    H     H_    0.247799 0.451999 0.237663 0.235128
H4    H     H_    0.752197 0.547995 0.762342 0.235117
H5    H     H_    0.732688 0.392176 0.174746 0.205351
H6    H     H_    0.267313 0.607806 0.825259 0.205356
H7    H     H_    0.000045 0.339016 0.361317 0.175292
H8    H     H_    0.999953 0.660958 0.638700 0.175294
N3    N     N_R   0.899886 0.501656 0.805333 0.108605
O9    O     O_R   0.880491 0.602023 0.950319 -0.325382
O10   O     O_R   0.951756 0.403948 0.822815 -0.306712
N4    N     N_R   0.100109 0.498327 0.194681 0.108606
O11   O     O_R   0.048236 0.596031 0.177204 -0.306710
O12   O     O_R   0.119506 0.397967 0.049691 -0.325386
H9    H     H_    0.481245 0.958515 0.291150 0.210707
H10   H     H_    0.518754 0.041485 0.708851 0.210704
N5    N     N_R   0.412536 0.372822 0.945833 0.263380
O13   O     O_R   0.413285 0.220379 0.884595 -0.360968
O14   O     O_R   0.345464 0.430085 0.977261 -0.373043
N6    N     N_R   0.587456 0.627200 0.054172 0.263380
O15   O     O_R   0.586702 0.779650 0.115331 -0.360973
O16   O     O_R   0.654530 0.569933 0.022806 -0.373031

loop_
_geom_bond_atom_site_label_1
_geom_bond_atom_site_label_2
_geom_bond_distance
_ccdc_geom_bond_type
C2    C20   1.428907 S    
O7    Cu2   1.962744 S    
C16   H5    1.081063 S    
C15   H6    1.081064 S    
N3    O10   1.301452 A    
N3    O9    1.301550 A    
N2    N6    1.384435 S    
C19   C20   1.331653 D    
C17   H8    1.086843 S    
O6    C4    1.309261 A    
Cu2   N1    2.034310 S    
C13   C15   1.391993 A    
C10   N3    1.440016 S    
C11   C17   1.459792 S    
Cu1   N2    2.034310 S    
C19   H9    1.086706 S    
Cu1   Cu2   2.707328 S    
N6    O15   1.299856 A    
O5    C3    1.309258 A    
O7    C3    1.297969 A    
C20   H10   1.086709 S    
O3    Cu2   1.949838 S    
O8    C4    1.297966 A    
O1    C1    1.295328 A    
C13   H1    1.083639 S    
C3    C5    1.464833 S    
C17   C18   1.340055 D    
C9    C11   1.410948 A    
C14   C16   1.391993 A    
N1    N2    1.301016 D    
C8    C10   1.390760 A    
C11   C13   1.400960 A    
C6    C16   1.399911 A    
C4    C6    1.464831 S    
O2    Cu2   1.951510 S    
C12   C14   1.400961 A    
C5    C15   1.399911 A    
C14   H2    1.083639 S    
O1    Cu1   1.951510 S    
C10   C12   1.410948 A    
N1    N5    1.384463 S    
O3    C1    1.294232 A    
O5    Cu1   1.963812 S    
C7    H3    1.080868 S    
C9    N4    1.440017 S    
C6    C8    1.404883 A    
N5    O13   1.299859 A    
N5    O14   1.299194 A    
O4    Cu1   1.949838 S    
C5    C7    1.404879 A    
C12   C18   1.459795 S    
O6    Cu2   1.963816 S    
C18   H7    1.086842 S    
C7    C9    1.390761 A    
O4    C2    1.294231 A    
C8    H4    1.080874 S    
N4    O12   1.301547 A    
N4    O11   1.301453 A    
O2    C2    1.295328 A    
N6    O16   1.299190 A    
C1    C19   1.428906 S    
O8    Cu1   1.962744 S    
