data_mof_unit_9048.cif
_audit_creation_date              2012-12-10T17:06:41-0500
_audit_creation_method            fapswitch 2.2
_symmetry_space_group_name_H-M    P1
_symmetry_Int_Tables_number       1
_space_group_crystal_system       triclinic
_cell_length_a                    15.883425
_cell_length_b                    10.859977
_cell_length_c                    9.791632
_cell_angle_alpha                 109.564106
_cell_angle_beta                  98.487975
_cell_angle_gamma                 90.454781
_cell_volume                      1571.06778394

loop_
_atom_site_label
_atom_site_type_symbol
_atom_type_description
_atom_site_fract_x
_atom_site_fract_y
_atom_site_fract_z
_atom_type_partial_charge
C1    C     C_R   0.499340 0.253848 0.443190 0.879234
C2    C     C_R   0.509977 0.746218 0.556728 0.879038
C3    C     C_2   0.561494 0.071500 0.513268 -0.058252
C4    C     C_2   0.560109 0.930913 0.490018 -0.055732
C5    C     C_2   0.507759 0.509924 0.080290 -0.043390
C6    C     C_2   0.493034 0.488486 0.919091 -0.046770
C7    C     C_R   0.339980 0.500066 0.500966 0.813462
C8    C     C_R   0.659993 0.500256 0.499065 0.908527
C9    C     C_3   0.976846 0.424418 0.575694 -0.264725
C10   C     C_3   0.022831 0.576186 0.423430 -0.264518
C11   C     C_3   0.020504 0.376821 0.436800 -0.036104
C12   C     C_3   0.979146 0.623780 0.562311 -0.037338
C13   C     C_1   0.250623 0.500120 0.502768 -0.133109
C14   C     C_1   0.749257 0.500337 0.497112 -0.078051
C15   C     C_3   0.039735 0.546823 0.636088 0.238436
C16   C     C_3   0.959914 0.453800 0.363061 0.241582
C17   C     C_3   0.083393 0.498784 0.499688 0.015391
C18   C     C_3   0.916314 0.501809 0.499471 0.013084
C19   C     C_1   0.175163 0.499703 0.502261 0.046056
C20   C     C_1   0.824640 0.500816 0.497273 0.053768
C21   C     C_2   0.509078 0.114326 0.418660 -0.350640
C22   C     C_2   0.522871 0.886005 0.581375 -0.360206
Cu1   Cu    Cu3+1 0.514700 0.521810 0.644910 0.989980
Cu2   Cu    Cu3+1 0.485300 0.478190 0.355090 0.996459
H1    H     H_    0.957774 0.363182 0.638195 0.170419
H2    H     H_    0.041844 0.637411 0.360882 0.167947
H3    H     H_    0.498395 0.954527 0.673836 0.168332
H4    H     H_    0.470053 0.044118 0.323346 0.170601
H5    H     H_    0.444255 0.415586 0.847387 0.161058
H6    H     H_    0.557243 0.581569 0.151394 0.185010
H7    H     H_    0.582782 0.623160 0.933060 0.204851
H8    H     H_    0.416532 0.377880 0.067286 0.201845
N1    N     N_2   0.463210 0.445420 0.137360 -0.285100
N2    N     N_2   0.536790 0.554580 0.862640 -0.278894
O1    O     O_R   0.507840 0.332340 0.577400 -0.568472
O2    O     O_R   0.492160 0.667660 0.422600 -0.569292
O3    O     O_R   0.483020 0.295500 0.332650 -0.561678
O4    O     O_R   0.516980 0.704500 0.667350 -0.560698
O5    O     O_R   0.391490 0.518400 0.622350 -0.579624
O6    O     O_R   0.608510 0.481600 0.377650 -0.556995
O7    O     O_R   0.366660 0.481570 0.377600 -0.567983
O8    O     O_R   0.633340 0.518430 0.622400 -0.560824
C23   C     C_2   0.041453 0.237878 0.365667 0.856611
O9    O     O_2   0.984478 0.151042 0.321875 -0.576233
O10   O     O_R   0.125615 0.208196 0.349561 -0.764499
H9    H     H_    0.131434 0.111156 0.299719 0.337586
C24   C     C_2   0.957884 0.762660 0.633030 0.859415
O11   O     O_2   0.014757 0.849663 0.677584 -0.587645
O12   O     O_R   0.873514 0.792109 0.647640 -0.739799
H10   H     H_    0.867436 0.889145 0.697019 0.350390
N3    N     N_2   0.913251 0.403050 0.215004 -0.410061
H11   H     H_    0.869613 0.326997 0.199764 0.279589
C25   C     C_3   0.964744 0.377500 0.099610 -0.628828
H12   H     H_    0.922533 0.348882 0.991546 0.229708
H13   H     H_    0.006745 0.296536 0.100981 0.236643
H14   H     H_    0.004299 0.466695 0.112881 0.223777
N4    N     N_2   0.086213 0.597623 0.784264 -0.416650
H15   H     H_    0.129846 0.673715 0.799636 0.269995
C26   C     C_3   0.034489 0.623209 0.899352 -0.637919
H16   H     H_    0.076523 0.651907 0.007583 0.226338
H17   H     H_    0.994900 0.534011 0.885965 0.226086
H18   H     H_    0.992499 0.704126 0.897702 0.238789
C27   C     C_2   0.608261 0.849062 0.376175 0.878744
O13   O     O_2   0.648185 0.759090 0.395988 -0.597413
O14   O     O_R   0.611956 0.880440 0.249782 -0.757028
H19   H     H_    0.647785 0.819581 0.181706 0.327709
C28   C     C_2   0.627001 0.157056 0.632964 0.907156
O15   O     O_2   0.643849 0.135487 0.748512 -0.587974
O16   O     O_R   0.672903 0.256972 0.610541 -0.760525
H20   H     H_    0.716823 0.306237 0.698975 0.329355

loop_
_geom_bond_atom_site_label_1
_geom_bond_atom_site_label_2
_ccdc_geom_bond_type
C2    C22   S    
N3    C25   S    
C23   O9    D    
C16   N3    S    
C1    C21   S    
Cu1   O4    S    
C4    C22   D    
C11   C16   S    
C2    O4    A    
Cu1   O1    S    
Cu2   N1    S    
C12   C15   S    
C1    O3    A    
Cu1   Cu2   S    
Cu1   N2    S    
C6    N2    D    
H8    N1    S    
C10   H2    S    
C27   O14   S    
Cu2   O3    S    
C9    C15   S    
H7    N2    S    
C9    H1    S    
C26   H16   S    
C24   O12   S    
C10   C16   S    
C25   H12   S    
C11   C23   S    
Cu2   O7    S    
C9    C11   S    
C4    C27   S    
N4    H15   S    
Cu2   O2    S    
Cu1   O8    S    
C10   C12   S    
C12   C24   S    
C15   N4    S    
C5    C6    S    
C17   C19   S    
C21   H4    S    
C8    O8    A    
C5    H6    S    
C18   C20   S    
C22   H3    S    
C25   H13   S    
O16   H20   S    
O12   H10   S    
Cu1   O5    S    
C26   H17   S    
N4    C26   S    
C3    C21   D    
C13   C19   T    
C10   C17   S    
C12   C18   S    
C28   O15   D    
C24   O11   D    
C14   C20   T    
C9    C18   S    
C7    C13   S    
C6    H5    S    
N3    H11   S    
C1    O1    A    
C16   C18   S    
O14   H19   S    
C25   H14   S    
C2    O2    A    
C15   C17   S    
C7    O5    A    
C11   C17   S    
C26   H18   S    
C8    C14   S    
C8    O6    A    
Cu2   O6    S    
O10   H9    S    
C23   O10   S    
C3    C28   S    
C3    C4    S    
C27   O13   D    
C7    O7    A    
C28   O16   S    
C5    N1    D    
