data_mof_unit_21274.cif
_audit_creation_date              2013-03-05T16:47:31-0500
_audit_creation_method            fapswitch 2.2
_symmetry_space_group_name_H-M    P1
_symmetry_Int_Tables_number       1
_space_group_crystal_system       triclinic
_cell_length_a                    10.882094
_cell_length_b                    10.899661
_cell_length_c                    9.807826
_cell_angle_alpha                 98.660452
_cell_angle_beta                  99.444778
_cell_angle_gamma                 93.262196
_cell_volume                      1130.48349456

loop_
_atom_site_label
_atom_site_type_symbol
_atom_site_description
_atom_site_fract_x
_atom_site_fract_y
_atom_site_fract_z
_atom_type_partial_charge
O1    O     O_R   0.517830 0.337490 0.617920 -0.582315
O2    O     O_R   0.482170 0.662510 0.382080 -0.582317
O3    O     O_R   0.482150 0.301790 0.382070 -0.574756
O4    O     O_R   0.517850 0.698210 0.617930 -0.574756
C1    C     C_R   0.500966 0.261942 0.499294 0.807669
C2    C     C_R   0.499036 0.738058 0.500706 0.807667
O5    O     O_R   0.337480 0.517860 0.617920 -0.569217
O6    O     O_R   0.662520 0.482140 0.382080 -0.569227
O7    O     O_R   0.301810 0.482160 0.382070 -0.581947
O8    O     O_R   0.698190 0.517840 0.617930 -0.581951
C3    C     C_R   0.261735 0.498598 0.498502 0.823847
C4    C     C_R   0.738265 0.501404 0.501498 0.823828
Cu1   Cu    Cu3+1 0.521120 0.521140 0.639640 0.968663
Cu2   Cu    Cu3+1 0.478880 0.478860 0.360360 0.968662
C5    C     C_R   0.132345 0.427743 0.014935 -0.258126
C6    C     C_R   0.867660 0.572274 0.985064 -0.258125
C7    C     C_R   0.117394 0.476036 0.151077 -0.124166
C8    C     C_R   0.882603 0.523981 0.848920 -0.124166
H1    H     H_    0.142836 0.573998 0.190665 0.160744
H2    H     H_    0.857151 0.426020 0.809330 0.160730
C9    C     C_R   0.067977 0.398916 0.234813 0.124073
C10   C     C_R   0.932025 0.601097 0.765183 0.124077
C11   C     C_R   0.029534 0.273926 0.178267 -0.224881
C12   C     C_R   0.970483 0.726083 0.821732 -0.224883
H3    H     H_    0.987769 0.213809 0.239701 0.170577
H4    H     H_    0.012253 0.786197 0.760299 0.170584
C13   C     C_R   0.040536 0.226710 0.040741 -0.231685
C14   C     C_R   0.959494 0.773298 0.959262 -0.231709
C15   C     C_R   0.092765 0.302878 0.957802 0.387281
C16   C     C_R   0.907261 0.697134 0.042200 0.387289
C17   C     C_R   0.912139 0.452784 0.381072 -0.161511
C18   C     C_R   0.087862 0.547225 0.618924 -0.161494
C19   C     C_R   0.872522 0.500755 0.505307 -0.061677
C20   C     C_R   0.127478 0.499251 0.494691 -0.061667
C21   C     C_R   0.961910 0.548018 0.627125 0.025530
C22   C     C_R   0.038090 0.451992 0.372872 0.025532
H5    H     H_    0.375263 0.165224 0.855495 0.169041
H6    H     H_    0.624744 0.834768 0.144501 0.169033
C23   C     C_R   0.302957 0.078055 0.011918 -0.127861
C24   C     C_R   0.697057 0.921925 0.988073 -0.127859
H7    H     H_    0.211575 0.052686 0.948355 0.166443
H8    H     H_    0.788444 0.947281 0.051632 0.166408
C25   C     C_R   0.328240 0.047243 0.146313 -0.168123
C26   C     C_R   0.671774 0.952740 0.853680 -0.168099
H9    H     H_    0.254940 0.000099 0.186528 0.150891
H10   H     H_    0.745079 0.999872 0.813460 0.150878
C27   C     C_R   0.447964 0.076289 0.227800 0.125810
C28   C     C_R   0.552045 0.923709 0.772198 0.125805
C29   C     C_R   0.542618 0.134129 0.171577 -0.045147
C30   C     C_R   0.457387 0.865876 0.828424 -0.045149
H11   H     H_    0.636262 0.154633 0.231738 0.114571
H12   H     H_    0.363740 0.845383 0.768267 0.114576
C31   C     C_R   0.515843 0.167745 0.038464 -0.140158
C32   C     C_R   0.484162 0.832259 0.961535 -0.140142
H13   H     H_    0.588313 0.214278 0.996584 0.126412
H14   H     H_    0.411688 0.785734 0.003419 0.126412
C33   C     C_R   0.395852 0.140219 0.958960 -0.132252
C34   C     C_R   0.604156 0.859774 0.041036 -0.132271
C35   C     C_R   0.471574 0.914803 0.375693 -0.224510
C36   C     C_R   0.528435 0.085197 0.624308 -0.224516
C37   C     C_R   0.497662 0.872231 0.503807 -0.072107
C38   C     C_R   0.502345 0.127769 0.496193 -0.072111
C39   C     C_R   0.525124 0.958879 0.630654 0.007364
C40   C     C_R   0.474885 0.041120 0.369346 0.007367
N1    N     N_2   0.447120 0.447110 0.150550 -0.284642
N2    N     N_2   0.552880 0.552890 0.849450 -0.284644
C41   C     C_2   0.511191 0.510230 0.079263 -0.101059
C42   C     C_2   0.488807 0.489772 0.920736 -0.101049
H15   H     H_    0.621781 0.618079 0.905855 0.222121
H16   H     H_    0.378222 0.381919 0.094144 0.222121
N3    N     N_R   0.103924 0.254168 0.816071 0.095123
O9    O     O_R   0.172631 0.315533 0.748053 -0.413029
O10   O     O_R   0.046736 0.147214 0.754274 -0.392897
N4    N     N_R   0.896122 0.745841 0.183938 0.095123
O11   O     O_R   0.827380 0.684510 0.251943 -0.413025
O12   O     O_R   0.953395 0.852743 0.245767 -0.392865
H17   H     H_    0.449300 0.849182 0.278693 0.150496
H18   H     H_    0.550709 0.150818 0.721308 0.150494
H19   H     H_    0.416470 0.419376 0.864163 0.197150
H20   H     H_    0.583526 0.580625 0.135836 0.197141
H21   H     H_    0.171338 0.489051 0.952882 0.166205
H22   H     H_    0.828664 0.510970 0.047118 0.166197
H23   H     H_    0.008129 0.130489 0.999296 0.158975
H24   H     H_    0.991916 0.869515 0.000712 0.158971
H25   H     H_    0.844108 0.415840 0.287946 0.153103
H26   H     H_    0.155893 0.584168 0.712051 0.153107

loop_
_geom_bond_atom_site_label_1
_geom_bond_atom_site_label_2
_geom_bond_distance
_ccdc_geom_bond_type
N2    C42   1.303280 D    
C17   H25   1.085287 S    
C14   H24   1.082593 S    
C35   H17   1.084012 S    
C5    H21   1.082565 S    
C9    C22   1.484575 S    
O5    C3    1.297955 A    
C10   C21   1.484571 S    
C36   H18   1.084012 S    
C35   C40   1.386255 A    
C30   C32   1.398199 A    
N4    O12   1.301681 A    
C36   C39   1.386256 A    
O1    C1    1.299841 A    
C2    C37   1.459152 S    
C12   H4    1.083439 S    
C16   N4    1.438534 S    
N2    H15   1.028568 S    
C13   C15   1.405480 A    
C6    C16   1.405773 A    
N1    H16   1.028558 S    
C23   C33   1.396829 A    
C36   C38   1.395812 A    
O4    Cu1   1.974994 S    
C37   C39   1.421632 A    
C38   C40   1.421634 A    
C7    H1    1.083394 S    
H6    C34   1.081604 S    
N1    C41   1.303278 D    
C30   H12   1.083330 S    
C17   C19   1.396462 A    
C11   C13   1.396242 A    
C8    H2    1.083393 S    
C42   H19   1.084414 S    
C28   C30   1.407019 A    
Cu1   Cu2   2.666273 S    
O2    C2    1.299840 A    
C26   H10   1.083298 S    
C5    C15   1.405774 A    
Cu1   N2    2.003044 S    
C31   H13   1.082324 S    
C32   H14   1.082330 S    
C35   C37   1.395806 A    
C24   C34   1.396835 A    
N4    O11   1.300944 A    
C41   C42   1.513797 S    
C18   C21   1.386527 A    
C27   C29   1.407014 A    
C27   C40   1.483098 S    
N3    O10   1.301722 A    
C31   C33   1.397795 A    
C28   C39   1.483096 S    
C23   C25   1.396684 A    
C29   H11   1.083321 S    
C7    C9    1.404154 A    
C18   C20   1.396457 A    
O7    Cu2   1.974788 S    
C25   H9    1.083288 S    
O5    Cu1   1.972327 S    
O6    C4    1.297954 A    
C18   H26   1.085289 S    
C6    H22   1.082563 S    
O7    C3    1.279464 A    
O3    Cu2   1.974994 S    
O8    C4    1.279467 A    
O4    C2    1.278926 A    
C9    C11   1.403575 A    
C10   C12   1.403576 A    
O1    Cu1   1.978505 S    
C32   C34   1.397800 A    
C5    C7    1.398510 A    
O6    Cu2   1.972326 S    
C8    C10   1.404153 A    
C3    C20   1.455781 S    
C41   H20   1.084397 S    
C12   C14   1.396239 A    
C24   H8    1.080441 S    
O3    C1    1.278927 A    
O8    Cu1   1.974788 S    
C14   C16   1.405471 A    
N3    O9    1.300997 A    
C29   C31   1.398201 A    
C13   H23   1.082592 S    
C19   C21   1.419592 A    
Cu2   N1    2.003044 S    
C1    C38   1.459156 S    
C20   C22   1.419592 A    
C11   H3    1.083440 S    
O2    Cu2   1.978505 S    
C24   C26   1.396683 A    
C23   H7    1.080429 S    
C6    C8    1.398506 A    
C17   C22   1.386528 A    
C4    C19   1.455782 S    
C25   C27   1.404102 A    
H5    C33   1.081607 S    
C26   C28   1.404111 A    
C15   N3    1.438548 S    
