data_mof_unit_10523.cif
_audit_creation_date              2012-10-26T19:59:14-0400
_audit_creation_method            fapswitch 2.2
_symmetry_space_group_name_H-M    P1
_symmetry_Int_Tables_number       1
_space_group_crystal_system       triclinic
_cell_length_a                    7.436586
_cell_length_b                    8.694632
_cell_length_c                    15.829763
_cell_angle_alpha                 94.288296
_cell_angle_beta                  75.098911
_cell_angle_gamma                 103.130537
_cell_volume                      963.10113606

loop_
_atom_site_label
_atom_site_type_symbol
_atom_type_description
_atom_site_fract_x
_atom_site_fract_y
_atom_site_fract_z
_atom_type_partial_charge
C1    C     C_R   0.545061 0.800143 0.502606 0.550551
C2    C     C_R   0.615852 0.511018 0.333716 0.544651
C3    C     C_R   0.313952 0.466163 0.760965 -0.007253
C4    C     C_R   0.685888 0.524196 0.238332 -0.006653
C5    C     C_R   0.077837 0.341492 0.885629 -0.131644
C6    C     C_R   0.931760 0.620729 0.109833 -0.130880
C7    C     C_R   0.129290 0.382663 0.797953 -0.142924
C8    C     C_R   0.876092 0.591439 0.199149 -0.141783
C9    C     C_R   0.443416 0.514238 0.813153 -0.133356
C10   C     C_R   0.554663 0.478805 0.186722 -0.134776
C11   C     C_R   0.397888 0.469485 0.900968 0.027143
C12   C     C_R   0.454927 0.199857 0.497409 0.550552
C13   C     C_R   0.607490 0.504469 0.096177 0.027482
C14   C     C_R   0.210753 0.382552 0.936959 0.044506
C15   C     C_R   0.798586 0.580815 0.058611 0.046099
C16   C     C_R   0.533102 0.506146 0.953324 0.028098
C17   C     C_R   0.474803 0.461603 0.042777 0.027006
C18   C     C_R   0.286788 0.373811 0.075467 -0.142889
C19   C     C_R   0.725481 0.582844 0.918889 -0.142000
C20   C     C_R   0.158300 0.335207 0.023407 -0.131906
C21   C     C_R   0.854909 0.618495 0.970572 -0.132107
C22   C     C_2   0.570454 0.968016 0.503873 -0.156700
C23   C     C_2   0.429517 0.031986 0.496164 -0.156666
C24   C     C_R   0.384063 0.487962 0.666200 0.544250
Cu1   Cu    Cu3+1 0.322120 0.483240 0.490330 0.948383
Cu2   Cu    Cu3+1 0.677880 0.516760 0.509670 0.949340
H1    H     H_    0.016040 0.267552 0.051289 0.118314
H2    H     H_    0.293653 0.960678 0.488888 0.133751
H3    H     H_    0.003996 0.615166 0.568831 0.238231
H4    H     H_    0.996006 0.384838 0.431167 0.238027
H5    H     H_    0.234203 0.328953 0.140786 0.104727
H6    H     H_    0.783543 0.614813 0.851444 0.106144
H7    H     H_    0.000886 0.676573 0.941174 0.120176
H8    H     H_    0.409753 0.429010 0.219788 0.121090
H9    H     H_    0.580358 0.584718 0.782513 0.117454
H10   H     H_    0.979730 0.626957 0.237929 0.133261
H11   H     H_    0.027307 0.344404 0.758528 0.133709
H12   H     H_    0.934776 0.275000 0.913045 0.120008
H13   H     H_    0.078596 0.677065 0.080929 0.120179
H14   H     H_    0.706317 0.039325 0.511151 0.133764
N1    N     N_2   0.945180 0.542040 0.524240 -0.258061
N2    N     N_2   0.054820 0.457960 0.475760 -0.258321
O1    O     O_R   0.384450 0.714270 0.493720 -0.502750
O2    O     O_R   0.615550 0.285730 0.506280 -0.502776
O3    O     O_R   0.684880 0.742590 0.510050 -0.497256
O4    O     O_R   0.315120 0.257410 0.489950 -0.497387
O5    O     O_R   0.265540 0.477900 0.617090 -0.506044
O6    O     O_R   0.734460 0.522100 0.382910 -0.505669
O7    O     O_R   0.565970 0.506210 0.633420 -0.502694
O8    O     O_R   0.434030 0.493790 0.366580 -0.504399

loop_
_geom_bond_atom_site_label_1
_geom_bond_atom_site_label_2
_ccdc_geom_bond_type
Cu1   N2    S    
C2    C4    S    
C3    C9    A    
C20   H1    S    
Cu2   O6    S    
C5    C7    A    
N1    N2    D    
Cu1   O5    S    
C18   C20   A    
C13   C17   A    
C4    C8    A    
C22   H14   S    
Cu1   O1    S    
C17   C18   A    
C7    H11   S    
Cu2   O2    S    
C1    C22   S    
C10   H8    S    
Cu1   Cu2   S    
C5    H12   S    
C9    C11   A    
C12   C23   S    
C1    O3    A    
C5    C14   A    
C16   C19   A    
C19   H6    S    
C12   O4    A    
C19   C21   A    
C3    C7    A    
C6    H13   S    
C13   C15   A    
C11   C14   A    
C11   C16   A    
C21   H7    S    
C4    C10   A    
C14   C20   A    
C15   C21   A    
C12   O2    A    
C2    O6    A    
C8    H10   S    
Cu2   O7    S    
C24   O7    A    
C9    H9    S    
C22   C23   D    
H4    N2    S    
C6    C8    A    
C18   H5    S    
C2    O8    A    
Cu2   O3    S    
H3    N1    S    
C6    C15   A    
C23   H2    S    
C24   O5    A    
Cu1   O4    S    
C1    O1    A    
Cu1   O8    S    
Cu2   N1    S    
C3    C24   S    
C16   C17   A    
C10   C13   A    
