data_mof_unit_66535.cif
_audit_creation_date              2012-12-10T20:25:39-0500
_audit_creation_method            fapswitch 2.2
_symmetry_space_group_name_H-M    P1
_symmetry_Int_Tables_number       1
_space_group_crystal_system       triclinic
_cell_length_a                    8.664393
_cell_length_b                    10.820608
_cell_length_c                    9.923921
_cell_angle_alpha                 92.045772
_cell_angle_beta                  97.1339
_cell_angle_gamma                 91.521186
_cell_volume                      922.165882584

loop_
_atom_site_label
_atom_site_type_symbol
_atom_type_description
_atom_site_fract_x
_atom_site_fract_y
_atom_site_fract_z
_atom_type_partial_charge
C1    C     C_R   0.498799 0.260452 0.498299 0.908197
C2    C     C_R   0.479946 0.931468 0.375187 -0.244131
C3    C     C_R   0.495462 0.872129 0.499718 -0.041605
C4    C     C_R   0.497997 0.942345 0.619430 -0.084875
C5    C     C_3   0.613549 0.951855 0.745194 0.292091
C6    C     C_3   0.586881 0.090318 0.752792 0.231438
C7    C     C_R   0.450873 0.397381 0.061262 0.112647
C8    C     C_R   0.580026 0.588725 0.084930 -0.200197
C9    C     C_R   0.585339 0.585306 0.941913 0.265566
C10   C     C_R   0.435209 0.404519 0.919991 -0.008883
C11   C     C_3   0.274169 0.346992 0.906347 0.225257
C12   C     C_R   0.201767 0.499928 0.465067 0.957001
C13   C     C_3   0.307436 0.318205 0.057622 0.184177
C14   C     C_R   0.501652 0.740010 0.501385 0.885878
C15   C     C_R   0.798062 0.500641 0.534737 0.982891
C16   C     C_2   0.037489 0.499321 0.445619 -0.416603
C17   C     C_2   0.961995 0.502339 0.553411 -0.359227
C18   C     C_R   0.487522 0.068781 0.618271 -0.061692
C19   C     C_R   0.488373 0.128813 0.496305 -0.052061
C20   C     C_R   0.480236 0.059484 0.373933 -0.259578
H1    H     H_    0.978367 0.495706 0.342373 0.187367
H2    H     H_    0.263724 0.262771 0.837928 0.126198
H3    H     H_    0.230329 0.350531 0.130605 0.105633
H4    H     H_    0.020502 0.506267 0.656258 0.229324
H5    H     H_    0.483356 0.103805 0.278838 0.228663
H6    H     H_    0.476332 0.879800 0.279416 0.168515
H7    H     H_    0.566752 0.906553 0.830798 0.119459
H8    H     H_    0.511320 0.119112 0.830019 0.077878
H9    H     H_    0.643384 0.660847 0.149053 0.180094
N1    N     N_R   0.498950 0.499140 0.142680 -0.142612
N2    N     N_R   0.498950 0.499180 0.857030 -0.127649
O1    O     O_R   0.500020 0.316790 0.614690 -0.591016
O2    O     O_R   0.500000 0.316760 0.385350 -0.623394
O3    O     O_R   0.271760 0.500010 0.587850 -0.602237
O4    O     O_R   0.271740 0.499970 0.358500 -0.643783
O5    O     O_R   0.500000 0.683240 0.614650 -0.575875
O6    O     O_R   0.499980 0.683210 0.385310 -0.649402
O7    O     O_R   0.728260 0.500030 0.641500 -0.562483
O8    O     O_R   0.728240 0.499990 0.412150 -0.630862
Zn1   Zn    Zn3+2 0.500010 0.500020 0.653130 1.014132
Zn2   Zn    Zn3+2 0.499990 0.499980 0.346870 0.932828
Br1   Br    Br    0.728559 0.691980 0.873664 -0.549898
O9    O     O_3   0.144910 0.425365 0.874862 -0.662704
C21   C     C_3   0.153767 0.545359 0.940190 0.119254
H10   H     H_    0.117239 0.612605 0.861399 0.173562
H11   H     H_    0.270440 0.578353 0.985170 0.128240
C22   C     C_3   0.042301 0.554257 0.048330 -0.333654
H12   H     H_    0.923160 0.526827 0.002269 0.259463
H13   H     H_    0.072908 0.490878 0.130386 0.205186
C23   C     C_3   0.046468 0.683865 0.114682 -0.917496
H14   H     H_    0.022396 0.754045 0.036756 0.298394
H15   H     H_    0.162633 0.704639 0.173212 0.261080
H16   H     H_    0.957125 0.689340 0.185613 0.267103
O10   O     O_3   0.352156 0.194493 0.072875 -0.666227
C24   C     C_3   0.221698 0.116049 0.081927 0.061615
H17   H     H_    0.118285 0.141818 0.012720 0.143118
H18   H     H_    0.192147 0.122078 0.187857 0.136570
C25   C     C_3   0.261828 0.982428 0.047155 -0.338654
H19   H     H_    0.389379 0.970434 0.068546 0.232336
H20   H     H_    0.204217 0.919492 0.112561 0.191191
C26   C     C_3   0.209433 0.944950 0.898297 -0.924589
H21   H     H_    0.080450 0.942796 0.878158 0.277145
H22   H     H_    0.250795 0.851104 0.875458 0.252745
H23   H     H_    0.257509 0.011204 0.830248 0.256033
O11   O     O_3   0.767857 0.913248 0.730428 -0.603976
C27   C     C_3   0.841930 0.961498 0.622819 0.172196
H24   H     H_    0.931428 0.032002 0.666473 0.156975
H25   H     H_    0.763721 0.006180 0.543814 0.165218
C28   C     C_3   0.924770 0.856853 0.556180 -0.344158
H26   H     H_    0.002055 0.810169 0.635371 0.242557
H27   H     H_    0.837162 0.787411 0.506554 0.221298
C29   C     C_3   0.022571 0.904959 0.450208 -0.986308
H28   H     H_    0.947389 0.949075 0.367714 0.266585
H29   H     H_    0.081941 0.826712 0.405281 0.272723
H30   H     H_    0.112704 0.973357 0.498008 0.272006
O12   O     O_3   0.719336 0.168967 0.748701 -0.615600
C30   C     C_3   0.816822 0.171340 0.875010 0.079015
H31   H     H_    0.931126 0.211536 0.856748 0.180096
H32   H     H_    0.838152 0.077057 0.912998 0.163003
C31   C     C_3   0.754329 0.252573 0.984473 -0.343850
H33   H     H_    0.747100 0.348860 0.950273 0.241292
H34   H     H_    0.638095 0.217563 0.002004 0.245290
C32   C     C_3   0.855799 0.251115 0.121156 -0.995837
H35   H     H_    0.865463 0.155191 0.156965 0.262214
H36   H     H_    0.803152 0.308504 0.197417 0.293421
H37   H     H_    0.972816 0.290126 0.112596 0.248956

loop_
_geom_bond_atom_site_label_1
_geom_bond_atom_site_label_2
_ccdc_geom_bond_type
C8    C9    A    
C7    C10   A    
C27   H25   S    
C24   H17   S    
C16   H1    S    
C28   C29   S    
C29   H29   S    
C19   C20   A    
C1    O2    A    
C22   H13   S    
C30   H31   S    
C9    Br1   S    
O3    Zn1   S    
C8    H9    S    
C29   H30   S    
C14   O5    A    
C5    C6    S    
C27   C28   S    
C20   H5    S    
C25   H20   S    
N2    Zn1   S    
C13   H3    S    
C28   H27   S    
C18   C19   A    
C26   H22   S    
C5    H7    S    
C10   N2    A    
C6    H8    S    
C12   C16   S    
C16   C17   D    
C23   H15   S    
N1    Zn2   S    
C11   O9    S    
C21   C22   S    
C29   H28   S    
C4    C18   A    
C25   C26   S    
C27   H24   S    
C7    N1    A    
C26   H21   S    
C31   C32   S    
C21   H11   S    
C22   C23   S    
C30   H32   S    
C6    C18   S    
C1    C19   S    
C17   H4    S    
C2    C20   A    
C23   H16   S    
C22   H12   S    
O5    Zn1   S    
O12   C30   S    
O8    Zn2   S    
C4    C5    S    
C25   H19   S    
C1    O1    A    
C26   H23   S    
O9    C21   S    
C15   O7    A    
C32   H35   S    
C23   H14   S    
C2    H6    S    
C12   O4    A    
C15   O8    A    
C3    C14   S    
C5    O11   S    
C32   H36   S    
C24   H18   S    
C12   O3    A    
C3    C4    A    
C21   H10   S    
C13   O10   S    
C30   C31   S    
C15   C17   S    
O10   C24   S    
C31   H33   S    
C6    O12   S    
C11   H2    S    
C8    N1    A    
C2    C3    A    
O2    Zn2   S    
C14   O6    A    
O7    Zn1   S    
C11   C13   S    
C31   H34   S    
O1    Zn1   S    
O6    Zn2   S    
C28   H26   S    
O4    Zn2   S    
C10   C11   S    
C9    N2    A    
C7    C13   S    
C32   H37   S    
O11   C27   S    
C24   C25   S    
