data_mof_unit_37948.cif
_audit_creation_date              2012-10-26T21:25:55-0400
_audit_creation_method            fapswitch 2.2
_symmetry_space_group_name_H-M    P1
_symmetry_Int_Tables_number       1
_space_group_crystal_system       triclinic
_cell_length_a                    10.895362
_cell_length_b                    10.898357
_cell_length_c                    12.747974
_cell_angle_alpha                 91.110176
_cell_angle_beta                  91.420256
_cell_angle_gamma                 90.068985
_cell_volume                      1512.96289141

loop_
_atom_site_label
_atom_site_type_symbol
_atom_type_description
_atom_site_fract_x
_atom_site_fract_y
_atom_site_fract_z
_atom_type_partial_charge
C1    C     C_R   0.261987 0.501734 0.501698 0.555864
C2    C     C_R   0.878530 0.549779 0.224062 -0.069550
C3    C     C_R   0.121687 0.542098 0.700463 0.042453
C4    C     C_R   0.878313 0.457896 0.299537 0.042454
C5    C     C_R   0.172440 0.657574 0.725788 -0.045199
C6    C     C_R   0.827549 0.342423 0.274218 -0.045192
C7    C     C_R   0.223595 0.680310 0.825729 -0.076876
C8    C     C_R   0.776392 0.319686 0.174278 -0.076874
C9    C     C_R   0.222876 0.588428 0.900743 -0.090708
C10   C     C_R   0.777121 0.411563 0.099260 -0.090704
C11   C     C_R   0.935792 0.515095 0.592196 -0.114364
C12   C     C_R   0.738012 0.498265 0.498302 0.555862
C13   C     C_R   0.064208 0.484903 0.407804 -0.114364
C14   C     C_R   0.871729 0.496967 0.496469 0.012768
C15   C     C_R   0.128271 0.503031 0.503531 0.012768
C16   C     C_R   0.500540 0.262012 0.502009 0.557007
C17   C     C_R   0.499460 0.737988 0.497991 0.557009
C18   C     C_R   0.937168 0.480916 0.403209 -0.028297
C19   C     C_R   0.062831 0.519081 0.596791 -0.028299
C20   C     C_2   0.464462 0.467459 0.032157 -0.180871
C21   C     C_2   0.535540 0.532540 0.967843 -0.180870
C22   C     C_1   0.525451 0.524334 0.852397 0.166387
C23   C     C_R   0.499458 0.871608 0.495823 0.015729
C24   C     C_1   0.474550 0.475665 0.147603 0.166386
C25   C     C_R   0.702146 0.180812 0.835831 0.114428
C26   C     C_R   0.297856 0.819188 0.164167 0.114427
C27   C     C_R   0.674346 0.150885 0.729821 0.145377
C28   C     C_R   0.325656 0.849116 0.270178 0.145378
C29   C     C_R   0.552770 0.118742 0.699931 0.014055
C30   C     C_R   0.447231 0.881258 0.300068 0.014055
C31   C     C_R   0.460608 0.119747 0.774733 -0.091305
C32   C     C_R   0.539394 0.880252 0.225267 -0.091305
C33   C     C_R   0.488421 0.150653 0.879133 0.082775
C34   C     C_R   0.500543 0.128392 0.504176 0.015729
C35   C     C_R   0.511583 0.849345 0.120867 0.082777
C36   C     C_R   0.608771 0.181098 0.909524 -0.073785
C37   C     C_R   0.391233 0.818900 0.090475 -0.073785
C38   C     C_R   0.523516 0.934991 0.590797 -0.120770
C39   C     C_R   0.476484 0.065009 0.409202 -0.120770
C40   C     C_R   0.475550 0.937868 0.403818 -0.010188
C41   C     C_R   0.524450 0.062132 0.596181 -0.010188
C42   C     C_R   0.171860 0.473573 0.876007 -0.093895
C43   C     C_R   0.828148 0.526416 0.123989 -0.093894
C44   C     C_R   0.121480 0.450212 0.775933 -0.069544
Cu1   Cu    Cu3+1 0.492140 0.492110 0.395880 1.020214
Cu2   Cu    Cu3+1 0.507860 0.507890 0.604120 1.020215
H1    H     H_    0.630200 0.200555 0.991266 0.142959
H2    H     H_    0.395002 0.407049 0.997810 0.158113
H3    H     H_    0.368137 0.091102 0.752584 0.150470
H4    H     H_    0.631866 0.908897 0.247417 0.150470
H5    H     H_    0.543082 0.885589 0.662357 0.162011
H6    H     H_    0.456919 0.114411 0.337643 0.162010
H7    H     H_    0.261806 0.605949 0.978224 0.136898
H8    H     H_    0.738189 0.394042 0.021779 0.136896
H9    H     H_    0.171071 0.402838 0.934404 0.159003
H10   H     H_    0.828943 0.597147 0.065588 0.159002
H11   H     H_    0.082044 0.361014 0.757111 0.163508
H12   H     H_    0.369805 0.799443 0.008733 0.142959
H13   H     H_    0.917974 0.638974 0.242879 0.163509
H14   H     H_    0.172125 0.729482 0.668293 0.136254
H15   H     H_    0.827856 0.270518 0.331718 0.136253
H16   H     H_    0.262912 0.769332 0.844962 0.135576
H17   H     H_    0.737067 0.230665 0.155050 0.135570
H18   H     H_    0.887054 0.528251 0.664720 0.162023
H19   H     H_    0.112946 0.471747 0.335280 0.162021
H20   H     H_    0.605000 0.592949 0.002190 0.158116
I1    I     I_    0.884877 0.212693 0.891319 -0.335739
I2    I     I_    0.115126 0.787311 0.108677 -0.335742
I3    I     I_    0.814888 0.147391 0.615803 -0.333895
I4    I     I_    0.185112 0.852611 0.384195 -0.333890
I5    I     I_    0.350719 0.137095 0.992036 -0.393846
I6    I     I_    0.649286 0.862902 0.007965 -0.393839
N1    N     N_1   0.480320 0.480250 0.239400 -0.181016
N2    N     N_1   0.519680 0.519750 0.760600 -0.181016
O1    O     O_R   0.313000 0.493330 0.412070 -0.498398
O2    O     O_R   0.687000 0.506670 0.587930 -0.498397
O3    O     O_R   0.326280 0.506660 0.587930 -0.495965
O4    O     O_R   0.673720 0.493340 0.412070 -0.495966
O5    O     O_R   0.493370 0.312980 0.412070 -0.509104
O6    O     O_R   0.506630 0.687020 0.587930 -0.509102
O7    O     O_R   0.506650 0.326310 0.587930 -0.490114
O8    O     O_R   0.493350 0.673690 0.412070 -0.490113

loop_
_geom_bond_atom_site_label_1
_geom_bond_atom_site_label_2
_ccdc_geom_bond_type
Cu2   O6    S    
C21   H20   S    
C27   C29   A    
C1    O3    A    
C14   C18   A    
Cu1   O8    S    
C25   I1    S    
Cu2   O2    S    
C13   H19   S    
Cu1   Cu2   S    
C15   C19   A    
C11   C19   A    
C9    C42   A    
C17   C23   S    
C13   C18   A    
C6    H15   S    
C35   C37   A    
C11   C14   A    
C24   N1    T    
C23   C40   A    
C33   C36   A    
C36   H1    S    
Cu1   N1    S    
C17   O8    A    
C16   C34   S    
C20   C24   S    
C12   O4    A    
C31   C33   A    
C3    C19   S    
Cu1   O4    S    
C1    C15   S    
C44   H11   S    
C37   H12   S    
C27   I3    S    
C4    C18   S    
C39   H6    S    
C21   C22   S    
C34   C41   A    
C42   C44   A    
C31   H3    S    
C3    C44   A    
C34   C39   A    
C1    O1    A    
C32   C35   A    
C38   C41   A    
C4    C6    A    
C11   H18   S    
C39   C40   A    
C5    C7    A    
C2    H13   S    
C6    C8    A    
C38   H5    S    
C8    H17   S    
C17   O6    A    
C2    C4    A    
C7    H16   S    
C42   H9    S    
Cu2   O7    S    
C2    C43   A    
C30   C40   S    
Cu1   O5    S    
C32   H4    S    
C20   H2    S    
C12   C14   S    
C35   I6    S    
C13   C15   A    
C12   O2    A    
C9    H7    S    
C22   N2    T    
Cu2   N2    S    
C7    C9    A    
C5    H14   S    
C29   C41   S    
C10   C43   A    
C28   I4    S    
C3    C5    A    
Cu2   O3    S    
C26   C37   A    
C25   C27   A    
C23   C38   A    
C26   C28   A    
Cu1   O1    S    
C16   O5    A    
C26   I2    S    
C28   C30   A    
C29   C31   A    
C30   C32   A    
C16   O7    A    
C10   H8    S    
C33   I5    S    
C25   C36   A    
C43   H10   S    
C20   C21   D    
C8    C10   A    
