data_mof_unit_66685.cif
_audit_creation_date              2013-03-05T16:01:27-0500
_audit_creation_method            fapswitch 2.2
_symmetry_space_group_name_H-M    P1
_symmetry_Int_Tables_number       1
_space_group_crystal_system       triclinic
_cell_length_a                    20.219038
_cell_length_b                    20.45276
_cell_length_c                    8.539422
_cell_angle_alpha                 90.242869
_cell_angle_beta                  91.365332
_cell_angle_gamma                 90.026219
_cell_volume                      3530.31614732

loop_
_atom_site_label
_atom_site_type_symbol
_atom_site_description
_atom_site_fract_x
_atom_site_fract_y
_atom_site_fract_z
_atom_type_partial_charge
P1    P     P_3+3 0.136530 0.426510 0.931350 0.435554
P2    P     P_3+3 0.136530 0.573490 0.431350 0.444007
P3    P     P_3+3 0.636530 0.926510 0.931350 0.453261
P4    P     P_3+3 0.636530 0.073490 0.431350 0.438939
O1    O     O_2   0.130070 0.404060 0.104920 -0.367522
O2    O     O_2   0.130070 0.595940 0.604920 -0.366240
O3    O     O_2   0.630070 0.904060 0.104920 -0.362247
O4    O     O_2   0.630070 0.095940 0.604920 -0.371574
O5    O     O_3   0.075780 0.466370 0.861070 -0.438756
O6    O     O_3   0.075780 0.533630 0.361070 -0.450643
O7    O     O_3   0.575780 0.966370 0.861070 -0.431978
O8    O     O_3   0.575780 0.033630 0.361070 -0.446032
O9    O     O_3   0.022320 0.344950 0.359800 -0.408138
O10   O     O_3   0.022320 0.655050 0.859800 -0.417238
O11   O     O_3   0.522320 0.844950 0.359800 -0.424324
O12   O     O_3   0.522320 0.155050 0.859800 -0.417709
O13   O     O_2   0.130745 0.291830 0.245433 -0.385082
O14   O     O_2   0.132215 0.706186 0.750213 -0.355472
O15   O     O_2   0.631352 0.793264 0.245064 -0.356481
O16   O     O_2   0.632215 0.206924 0.752116 -0.384135
O17   O     O_3   0.206235 0.477352 0.940517 -0.564779
O18   O     O_3   0.207687 0.524670 0.435515 -0.570362
O19   O     O_3   0.706236 0.977362 0.940151 -0.570980
O20   O     O_3   0.707183 0.023985 0.436881 -0.564703
O21   O     O_3   0.045045 0.209021 0.348931 -0.540567
O22   O     O_3   0.046076 0.790573 0.846379 -0.515191
O23   O     O_3   0.545971 0.709399 0.344408 -0.521184
O24   O     O_3   0.545816 0.290818 0.849750 -0.537989
H1    H     H_    0.951146 0.250618 0.327755 0.161351
H2    H     H_    0.951307 0.751675 0.821144 0.156399
H3    H     H_    0.452584 0.749675 0.305561 0.166528
H4    H     H_    0.451170 0.251165 0.828748 0.157216
C1    C     C_3   0.943939 0.148220 0.367285 -0.993216
C2    C     C_3   0.947015 0.853871 0.871747 -1.014253
C3    C     C_3   0.445028 0.648246 0.358493 -1.005733
C4    C     C_3   0.446426 0.353712 0.873005 -0.997884
H5    H     H_    0.940286 0.137846 0.239716 0.277739
H6    H     H_    0.945537 0.867203 0.746004 0.285826
H7    H     H_    0.445966 0.633954 0.233194 0.285445
H8    H     H_    0.444172 0.365503 0.746264 0.282675
H9    H     H_    0.971247 0.107910 0.426204 0.257842
H10   H     H_    0.974620 0.892145 0.938212 0.257425
H11   H     H_    0.470571 0.610019 0.428466 0.256376
H12   H     H_    0.474065 0.392890 0.936365 0.256285
P5    P     P_3+3 0.863410 0.426100 0.379280 0.427308
P6    P     P_3+3 0.863410 0.573900 0.879280 0.422996
P7    P     P_3+3 0.363410 0.926100 0.379280 0.413382
P8    P     P_3+3 0.363410 0.073900 0.879280 0.425271
P9    P     P_3+3 0.913034 0.285961 0.932389 0.429063
P10   P     P_3+3 0.915622 0.717095 0.429766 0.451746
P11   P     P_3+3 0.412207 0.785838 0.934930 0.445560
P12   P     P_3+3 0.416816 0.218065 0.428824 0.430290
O25   O     O_2   0.869860 0.403670 0.205810 -0.358676
O26   O     O_2   0.869860 0.596330 0.705810 -0.364083
O27   O     O_2   0.369860 0.903670 0.205810 -0.354819
O28   O     O_2   0.369860 0.096330 0.705810 -0.364305
O29   O     O_3   0.977590 0.344880 0.951200 -0.424756
O30   O     O_3   0.977590 0.655120 0.451200 -0.367303
O31   O     O_3   0.477590 0.844880 0.951200 -0.355044
O32   O     O_3   0.477590 0.155120 0.451200 -0.412912
O33   O     O_2   0.871926 0.290317 0.082477 -0.374631
O34   O     O_2   0.864843 0.704033 0.558440 -0.378389
O35   O     O_2   0.368287 0.796509 0.077949 -0.375147
O36   O     O_2   0.367428 0.208830 0.562669 -0.375976
O37   O     O_3   0.801643 0.485505 0.353338 -0.593670
O38   O     O_3   0.797392 0.518945 0.860078 -0.589395
O39   O     O_3   0.301178 0.985074 0.352706 -0.589856
O40   O     O_3   0.298485 0.017771 0.859738 -0.588899
O41   O     O_3   0.948356 0.207737 0.944851 -0.550259
O42   O     O_3   0.952114 0.791052 0.488441 -0.515043
O43   O     O_3   0.445981 0.709020 0.977015 -0.523790
O44   O     O_3   0.455042 0.293122 0.471507 -0.543199
C5    C     C_3   0.017305 0.213092 0.929442 0.392891
C6    C     C_3   0.980767 0.820065 0.357556 0.321360
C7    C     C_3   0.476752 0.683620 0.844426 0.312818
C8    C     C_3   0.522463 0.287916 0.435784 0.393777
H13   H     H_    0.038577 0.246947 0.019562 0.146597
H14   H     H_    0.017020 0.786141 0.304140 0.064454
H15   H     H_    0.513968 0.718675 0.799953 0.065401
H16   H     H_    0.546974 0.251165 0.513153 0.140745
H17   H     H_    0.029495 0.231248 0.811015 0.030924
H18   H     H_    0.941451 0.833098 0.269865 0.051234
H19   H     H_    0.438834 0.672934 0.751476 0.052084
H20   H     H_    0.528826 0.273168 0.311538 0.023574
C9    C     C_3   0.050264 0.146794 0.959054 -0.436524
C10   C     C_3   0.016977 0.882657 0.410098 -0.362459
C11   C     C_3   0.511890 0.619863 0.892438 -0.358439
C12   C     C_3   0.557476 0.353121 0.467715 -0.431313
H21   H     H_    0.104706 0.153849 0.962917 0.178283
H22   H     H_    0.063705 0.869764 0.474034 0.214712
H23   H     H_    0.558415 0.631486 0.958953 0.211772
H24   H     H_    0.611748 0.345206 0.464092 0.175574
H25   H     H_    0.036263 0.129230 0.076595 0.205817
H26   H     H_    0.985319 0.909815 0.492825 0.175742
H27   H     H_    0.479471 0.592274 0.972238 0.178285
H28   H     H_    0.546387 0.369528 0.588439 0.212019
C13   C     C_3   0.764910 0.513134 0.003582 0.403843
C14   C     C_3   0.768030 0.496631 0.493517 0.409221
C15   C     C_3   0.264833 0.012829 0.001732 0.411487
C16   C     C_3   0.266907 0.996182 0.492184 0.403947
H29   H     H_    0.772428 0.462618 0.047509 0.132505
H30   H     H_    0.769487 0.549808 0.519914 0.115915
H31   H     H_    0.267753 0.961393 0.042270 0.129511
H32   H     H_    0.271049 0.048871 0.522479 0.115652
H33   H     H_    0.782064 0.547857 0.096614 0.081938
H34   H     H_    0.788906 0.470779 0.596571 0.103923
H35   H     H_    0.284310 0.044763 0.097847 0.085368
H36   H     H_    0.285093 0.967921 0.594143 0.102764
C17   C     C_3   0.691149 0.524138 0.976985 -1.058409
C18   C     C_3   0.696420 0.475842 0.472569 -1.088580
C19   C     C_3   0.192772 0.030315 0.973230 -1.083381
C20   C     C_3   0.194261 0.979504 0.467186 -1.069345
H37   H     H_    0.671635 0.491163 0.883082 0.270538
H38   H     H_    0.672014 0.504461 0.377412 0.270761
H39   H     H_    0.170073 0.997247 0.883499 0.272483
H40   H     H_    0.173421 0.006618 0.365187 0.271022
H41   H     H_    0.664555 0.514105 0.086462 0.245219
H42   H     H_    0.669810 0.483906 0.583140 0.252012
H43   H     H_    0.165340 0.026294 0.083688 0.247516
H44   H     H_    0.166431 0.993053 0.572962 0.247849
H45   H     H_    0.682220 0.575821 0.943718 0.261229
H46   H     H_    0.694510 0.423144 0.442956 0.263267
H47   H     H_    0.189776 0.081411 0.931912 0.262920
H48   H     H_    0.188850 0.926130 0.447495 0.261464
Ba1   Ba    Ba6+2 0.999980 0.452130 0.155200 1.479193
Ba2   Ba    Ba6+2 0.999980 0.547870 0.655200 1.493877
Ba3   Ba    Ba6+2 0.499980 0.952130 0.155200 1.491430
Ba4   Ba    Ba6+2 0.499980 0.047870 0.655200 1.481815
C21   C     C_3   0.189170 0.539241 0.996275 0.444101
C22   C     C_3   0.193253 0.462986 0.494351 0.428328
C23   C     C_3   0.689163 0.039197 0.996341 0.433789
C24   C     C_3   0.691896 0.962368 0.495490 0.441920
H49   H     H_    0.169262 0.534999 0.115450 0.102415
H50   H     H_    0.176996 0.467915 0.616855 0.102693
H51   H     H_    0.669524 0.034850 0.115766 0.104197
H52   H     H_    0.674613 0.967330 0.617109 0.097745
H53   H     H_    0.152489 0.563110 0.916133 0.124360
H54   H     H_    0.155018 0.438298 0.419361 0.123085
H55   H     H_    0.652265 0.063053 0.916728 0.126432
H56   H     H_    0.653954 0.937751 0.419521 0.121981
C25   C     C_3   0.251502 0.581123 0.003721 -0.997883
C26   C     C_3   0.256023 0.421862 0.492783 -0.982224
C27   C     C_3   0.751380 0.081243 0.003215 -0.981198
C28   C     C_3   0.754520 0.920968 0.496574 -1.001731
H57   H     H_    0.288416 0.559268 0.086454 0.269971
H58   H     H_    0.295036 0.444955 0.568284 0.266294
H59   H     H_    0.788575 0.059359 0.085193 0.268003
H60   H     H_    0.793083 0.943923 0.573621 0.268494
H61   H     H_    0.240079 0.631281 0.044015 0.232155
H62   H     H_    0.246314 0.372010 0.537147 0.234086
H63   H     H_    0.739908 0.131305 0.044167 0.232596
H64   H     H_    0.744340 0.871173 0.540510 0.232629
H65   H     H_    0.273203 0.584200 0.885679 0.256151
H66   H     H_    0.274076 0.417777 0.371277 0.256286
H67   H     H_    0.772734 0.084579 0.884845 0.256604
H68   H     H_    0.773473 0.916785 0.375900 0.256240
O45   O     O_3   0.924190 0.533610 0.949240 -0.421899
O46   O     O_3   0.924190 0.466390 0.449240 -0.442113
O47   O     O_3   0.424190 0.033610 0.949240 -0.418390
O48   O     O_3   0.424190 0.966390 0.449240 -0.442898
P13   P     P_3+3 0.083554 0.714880 0.885636 0.445361
P14   P     P_3+3 0.083669 0.284700 0.384385 0.411028
P15   P     P_3+3 0.583357 0.215043 0.887363 0.412742
P16   P     P_3+3 0.583965 0.785089 0.382987 0.439783
C29   C     C_3   0.978879 0.213197 0.396586 0.440785
C30   C     C_3   0.979897 0.787544 0.893851 0.529635
C31   C     C_3   0.478753 0.714123 0.383033 0.529424
C32   C     C_3   0.479854 0.287858 0.898764 0.456498
H69   H     H_    0.976710 0.224965 0.523654 0.021902
H70   H     H_    0.977389 0.774025 0.019536 -0.036253
H71   H     H_    0.473507 0.729166 0.507487 -0.042935
H72   H     H_    0.477959 0.275687 0.025463 0.018844
H73   H     H_    0.893133 0.150491 0.413732 0.235931
H74   H     H_    0.895552 0.851891 0.914200 0.228468
H75   H     H_    0.392730 0.651419 0.394801 0.228354
H76   H     H_    0.395188 0.351914 0.916913 0.235691
C33   C     C_R   0.238459 0.303255 0.006788 -0.123075
C34   C     C_R   0.239230 0.695826 0.504841 -0.136078
C35   C     C_R   0.738744 0.803737 0.005276 -0.129440
C36   C     C_R   0.738621 0.197412 0.507614 -0.126635
C37   C     C_R   0.154363 0.348867 0.818244 0.253358
C38   C     C_R   0.151816 0.651364 0.320796 0.298961
C39   C     C_R   0.653680 0.848928 0.818144 0.281272
C40   C     C_R   0.652043 0.151687 0.321916 0.274698
C41   C     C_R   0.125219 0.343485 0.668592 -0.538994
C42   C     C_R   0.117501 0.658404 0.177316 -0.527444
C43   C     C_R   0.622651 0.842912 0.670464 -0.520673
C44   C     C_R   0.617830 0.158580 0.178349 -0.544672
C45   C     C_R   0.131208 0.288251 0.574529 0.280220
C46   C     C_R   0.128347 0.711277 0.078128 0.236554
C47   C     C_R   0.630782 0.788647 0.573884 0.250418
C48   C     C_R   0.628134 0.211686 0.079785 0.260091
C49   C     C_R   0.173178 0.237696 0.625133 -0.310930
C50   C     C_R   0.174222 0.759518 0.123518 -0.308933
C51   C     C_R   0.674649 0.739220 0.621867 -0.315866
C52   C     C_R   0.673337 0.260466 0.125795 -0.303273
C53   C     C_R   0.209002 0.242925 0.769008 0.087391
C54   C     C_R   0.209714 0.755116 0.267380 0.089474
C55   C     C_R   0.709877 0.743957 0.766518 0.095728
C56   C     C_R   0.709176 0.256055 0.269240 0.081952
C57   C     C_R   0.199988 0.298768 0.867146 -0.012572
C58   C     C_R   0.200085 0.700046 0.366009 -0.008899
C59   C     C_R   0.700298 0.799384 0.865495 -0.004919
C60   C     C_R   0.699796 0.200939 0.367993 -0.026316
H77   H     H_    0.100686 0.384933 0.619224 0.126537
H78   H     H_    0.084952 0.619730 0.137377 0.144949
H79   H     H_    0.594984 0.883196 0.624046 0.136212
H80   H     H_    0.585524 0.119751 0.138061 0.150461
C61   C     C_R   0.795875 0.700166 0.947578 -0.033199
C62   C     C_R   0.791856 0.303493 0.455239 -0.026979
C63   C     C_R   0.295445 0.199628 0.949303 -0.030000
C64   C     C_R   0.291873 0.802296 0.454457 -0.005898
C65   C     C_R   0.785234 0.755040 0.047986 0.091521
C66   C     C_R   0.782368 0.248468 0.554228 0.077468
C67   C     C_R   0.285007 0.254633 0.049445 0.074338
C68   C     C_R   0.282950 0.746613 0.552102 0.099224
C69   C     C_R   0.847620 0.654487 0.987041 0.178085
C70   C     C_R   0.837360 0.354069 0.504570 0.173086
C71   C     C_R   0.347336 0.154116 0.988239 0.178049
C72   C     C_R   0.336071 0.853480 0.505944 0.130136
C73   C     C_R   0.888235 0.669150 0.119004 -0.166777
C74   C     C_R   0.863145 0.352172 0.660150 -0.241389
C75   C     C_R   0.388203 0.168911 0.119750 -0.188033
C76   C     C_R   0.359616 0.851238 0.664315 -0.217973
C77   C     C_R   0.871485 0.716779 0.230450 0.176524
C78   C     C_R   0.858018 0.295653 0.752580 0.248555
C79   C     C_R   0.371693 0.216695 0.231118 0.228314
C80   C     C_R   0.357566 0.793397 0.752550 0.221159
C81   C     C_R   0.820733 0.760651 0.192139 -0.343903
C82   C     C_R   0.817249 0.244392 0.699259 -0.321824
C83   C     C_R   0.321025 0.260641 0.192841 -0.327027
C84   C     C_R   0.318061 0.741739 0.696820 -0.353931
C85   C     C_R   0.755866 0.694626 0.810194 -0.155763
C86   C     C_R   0.754750 0.306036 0.313002 -0.158352
C87   C     C_R   0.255148 0.193786 0.812484 -0.164059
C88   C     C_R   0.255032 0.805123 0.312038 -0.158107
H81   H     H_    0.179252 0.195262 0.550458 0.156932
H82   H     H_    0.182555 0.800285 0.045762 0.160631
H83   H     H_    0.682215 0.697741 0.545015 0.160154
H84   H     H_    0.680990 0.301588 0.048667 0.157850
H85   H     H_    0.809373 0.799411 0.274061 0.160369
H86   H     H_    0.812880 0.201149 0.771155 0.165205
H87   H     H_    0.310042 0.299701 0.274256 0.165612
H88   H     H_    0.314289 0.697967 0.767063 0.155489
H89   H     H_    0.234289 0.345549 0.082015 0.170292
H90   H     H_    0.235566 0.653505 0.579353 0.169052
H91   H     H_    0.734317 0.845800 0.081130 0.167544
H92   H     H_    0.734840 0.155329 0.582865 0.170823
H93   H     H_    0.761226 0.652868 0.733571 0.163893
H94   H     H_    0.759579 0.347741 0.236708 0.158707
H95   H     H_    0.260518 0.152000 0.735931 0.162426
H96   H     H_    0.259583 0.847214 0.236839 0.161806
C89   C     C_3   0.030863 0.094293 0.837024 -0.236037
C90   C     C_3   0.068845 0.101257 0.685616 -0.911624
H97   H     H_    0.057564 0.148680 0.629520 0.276224
H98   H     H_    0.122915 0.098257 0.708763 0.259535
H99   H     H_    0.054497 0.061193 0.603533 0.247271
H100  H     H_    0.042270 0.045398 0.887197 0.197037
H101  H     H_    0.976807 0.095829 0.810426 0.225219
C91   C     C_3   0.031524 0.928661 0.273399 -0.375546
C92   C     C_3   0.082498 0.900690 0.162470 -0.876724
H102  H     H_    0.130967 0.894409 0.223552 0.261076
H103  H     H_    0.066089 0.852797 0.115479 0.268953
H104  H     H_    0.088570 0.934372 0.062437 0.256286
H105  H     H_    0.984960 0.939609 0.206863 0.205556
H106  H     H_    0.050692 0.975728 0.321613 0.219445
C93   C     C_3   0.526536 0.574586 0.753786 -0.379259
C94   C     C_3   0.579436 0.602127 0.648254 -0.871819
H107  H     H_    0.565469 0.651550 0.607768 0.272991
H108  H     H_    0.627780 0.604936 0.711716 0.258205
H109  H     H_    0.584584 0.570086 0.544135 0.256548
H110  H     H_    0.544117 0.526727 0.799862 0.219016
H111  H     H_    0.480307 0.565229 0.684424 0.205137
C95   C     C_3   0.536461 0.407111 0.352189 -0.245938
C96   C     C_3   0.571618 0.401481 0.196305 -0.912837
H112  H     H_    0.626075 0.403453 0.214473 0.262105
H113  H     H_    0.558594 0.354957 0.136670 0.273529
H114  H     H_    0.556477 0.442709 0.119313 0.249152
H115  H     H_    0.482009 0.406180 0.330965 0.223278
H116  H     H_    0.549168 0.455349 0.405265 0.199462
C97   C     C_3   0.945761 0.628425 0.158009 -0.389234
C98   C     C_3   0.921755 0.573375 0.262095 -0.425646
H117  H     H_    0.887394 0.589576 0.353884 0.210240
H118  H     H_    0.893529 0.535738 0.198281 0.228428
H119  H     H_    0.965519 0.552656 0.318639 0.291146
H120  H     H_    0.974639 0.611066 0.063184 0.240133
H121  H     H_    0.985649 0.660600 0.201136 0.154891
C99   C     C_3   0.908157 0.405102 0.718436 -0.179461
C100  C     C_3   0.977720 0.386504 0.663158 -0.558602
H122  H     H_    0.982564 0.333809 0.633716 0.150222
H123  H     H_    0.000351 0.415916 0.573034 0.253474
H124  H     H_    0.012587 0.395253 0.753735 0.249036
H125  H     H_    0.891511 0.454581 0.688836 0.200732
H126  H     H_    0.903525 0.412011 0.845775 0.212120
C101  C     C_3   0.445842 0.128252 0.158240 -0.384633
C102  C     C_3   0.421919 0.073292 0.262548 -0.419828
H127  H     H_    0.387543 0.089615 0.354280 0.209713
H128  H     H_    0.393853 0.035546 0.198785 0.227838
H129  H     H_    0.465689 0.052674 0.319201 0.293617
H130  H     H_    0.474687 0.110947 0.063283 0.240684
H131  H     H_    0.485835 0.160343 0.201074 0.152723
C103  C     C_3   0.402261 0.904714 0.726987 -0.223984
C104  C     C_3   0.470811 0.887752 0.669117 -0.577261
H132  H     H_    0.492196 0.840021 0.701584 0.165389
H133  H     H_    0.465816 0.877143 0.548512 0.237556
H134  H     H_    0.504223 0.928117 0.682582 0.263273
H135  H     H_    0.385406 0.953322 0.690181 0.207519
H136  H     H_    0.398099 0.911381 0.854697 0.230418

loop_
_geom_bond_atom_site_label_1
_geom_bond_atom_site_label_2
_geom_bond_distance
_ccdc_geom_bond_type
C24   C28   1.523421 S    
C15   H31   1.110053 S    
C40   C60   1.442021 A    
C11   H23   1.112314 S    
C26   H58   1.110779 S    
C2    H10   1.107788 S    
C18   H42   1.109588 S    
C23   C27   1.523325 S    
C104  H133  1.054085 S    
C98   H117  1.109420 S    
O38   C13   1.409494 S    
C20   H48   1.108794 S    
C73   C77   1.406099 A    
C4    C32   1.521698 S    
C95   C96   1.527881 S    
C90   H98   1.108084 S    
C34   H90   1.080007 S    
C89   H100  1.111756 S    
C75   C101  1.463791 S    
O42   C6    1.404681 S    
P15   C48   1.858621 S    
C99   H126  1.102151 S    
P4    O8    1.579033 S    
O6    Ba1   2.839447 S    
C25   H57   1.110788 S    
O9    Ba1   2.838627 S    
C27   H63   1.107043 S    
P6    C69   1.914947 S    
P9    O41   1.754965 S    
O18   C22   1.393301 S    
C86   H94   1.081301 S    
C22   H50   1.108183 S    
P11   O43   1.748722 S    
C76   C80   1.406393 A    
C5    H17   1.111911 S    
C29   H69   1.112348 S    
C85   H93   1.080750 S    
O32   Ba4   2.836738 S    
C10   H22   1.112255 S    
C20   H44   1.109745 S    
P1    C37   1.894401 S    
Ba1   O46   2.985911 S    
C31   H71   1.112659 S    
C64   C72   1.436786 A    
C14   H30   1.110022 S    
O16   P15   1.546027 D    
C61   C65   1.428959 A    
C42   C46   1.396902 A    
C2    H74   1.110783 S    
C93   H110  1.111854 S    
P12   C79   1.899912 S    
C104  H132  1.101723 S    
O39   C16   1.409812 S    
C21   H49   1.107014 S    
C36   H92   1.080085 S    
C102  H127  1.110007 S    
H3    C31   1.110896 S    
H4    C32   1.111909 S    
C4    H12   1.108430 S    
C91   H106  1.111360 S    
C22   H54   1.111748 S    
C65   C81   1.414311 A    
C97   H120  1.069099 S    
C93   H111  1.110686 S    
C37   C57   1.435780 A    
O10   Ba2   2.826845 S    
O22   P13   1.754054 S    
C14   H34   1.103905 S    
C61   C69   1.437970 A    
O10   P13   1.749937 S    
P10   O42   1.748827 S    
C3    H75   1.110853 S    
C17   H45   1.109485 S    
C63   C87   1.412991 A    
O28   Ba4   2.853722 S    
P3    O7    1.582241 S    
O24   C32   1.408638 S    
C21   H53   1.111634 S    
C43   H79   1.068405 S    
P11   C80   1.894796 S    
C5    H13   1.111820 S    
C7    H15   1.113517 S    
P8    C71   1.914421 S    
C79   C83   1.397005 A    
C103  H136  1.103701 S    
C33   C67   1.412446 A    
C16   H32   1.109832 S    
C51   H83   1.083507 S    
C55   C85   1.417478 A    
O29   Ba1   2.824973 S    
C92   H102  1.106940 S    
O14   P13   1.545833 D    
C75   C79   1.406607 A    
O31   Ba3   2.824973 S    
P9    O29   1.780061 S    
C19   H43   1.108903 S    
P12   O32   1.787787 S    
C9    H25   1.110479 S    
O4    Ba4   2.850341 S    
C102  H129  1.084773 S    
C11   H27   1.112041 S    
C54   C58   1.425319 A    
C74   C99   1.490254 S    
C3    H11   1.106653 S    
C18   H38   1.109782 S    
C24   H52   1.107911 S    
O17   C21   1.396828 S    
P5    O25   1.557342 D    
P5    C70   1.905784 S    
C88   H96   1.081384 S    
C64   C88   1.412360 A    
C51   C55   1.414043 A    
C16   H36   1.102989 S    
C42   H78   1.077800 S    
C95   H115  1.111649 S    
C96   H114  1.110107 S    
C64   C68   1.428230 A    
C90   H99   1.110022 S    
C78   C82   1.401165 A    
C6    C10   1.534536 S    
C28   H68   1.110933 S    
P2    O18   1.751393 S    
C82   H86   1.083555 S    
C13   C17   1.520202 S    
C27   H67   1.110930 S    
C56   C60   1.425959 A    
C15   C19   1.514708 S    
C100  H122  1.110551 S    
O19   C23   1.397132 S    
C50   H82   1.083703 S    
C10   C91   1.536194 S    
O25   Ba1   2.854155 S    
C7    C11   1.537786 S    
C35   C59   1.411311 A    
O30   Ba2   2.836738 S    
P5    O37   1.753692 S    
C33   C57   1.410757 A    
P16   C47   1.866571 S    
C20   H40   1.109291 S    
Ba2   O45   2.987852 S    
C1    C29   1.521758 S    
C8    H16   1.111785 S    
O27   Ba3   2.854155 S    
P13   C46   1.859519 S    
C92   H104  1.108710 S    
C93   C94   1.524177 S    
P7    Ba3   3.439319 S    
C63   C71   1.436905 A    
P7    C72   1.929478 S    
C98   H118  1.093809 S    
C34   C68   1.414885 A    
C44   C48   1.395530 A    
C73   C97   1.463680 S    
C13   H33   1.112492 S    
C101  C102  1.522979 S    
C25   H65   1.110931 S    
C50   C54   1.411120 A    
C22   C26   1.523182 S    
C47   C51   1.401272 A    
C23   H55   1.111676 S    
C45   C49   1.401099 A    
C98   H119  1.085088 S    
O1    Ba1   2.849916 S    
O11   Ba3   2.838627 S    
C26   H66   1.110923 S    
O3    Ba3   2.849916 S    
P3    C39   1.891055 S    
Ba3   O48   2.985911 S    
O24   P15   1.753554 S    
C11   C93   1.534530 S    
C12   H28   1.110778 S    
C14   C18   1.515125 S    
C96   H112  1.108970 S    
C8    H20   1.112228 S    
C53   C87   1.416321 A    
C17   H41   1.109372 S    
O9    P14   1.758529 S    
O26   Ba2   2.853722 S    
C84   H88   1.083410 S    
C76   C103  1.482674 S    
P1    O1    1.561957 D    
C48   C52   1.401374 A    
O37   C14   1.408254 S    
P6    O38   1.748893 S    
P3    O3    1.561957 D    
P4    O20   1.751176 S    
Ba1   O45   2.849120 S    
C21   C25   1.523456 S    
C100  H124  1.048809 S    
C38   C42   1.401574 A    
H1    C29   1.110940 S    
C33   H89   1.079821 S    
O41   C5    1.407660 S    
C28   H60   1.110770 S    
C101  H131  1.096276 S    
C102  H128  1.093536 S    
C55   C59   1.427202 A    
C6    H18   1.112304 S    
C104  H134  1.070586 S    
P9    O33   1.546377 D    
P4    Ba4   3.436550 S    
C19   H47   1.105651 S    
P10   O30   1.789575 S    
O11   P16   1.755963 S    
P11   O35   1.541891 D    
O2    Ba2   2.850341 S    
C69   C73   1.409601 A    
P12   O36   1.547661 D    
C52   C56   1.411509 A    
C9    H21   1.109808 S    
C91   C92   1.526192 S    
O21   C29   1.410095 S    
C103  H135  1.095966 S    
C1    H5    1.109679 S    
C3    H7    1.108602 S    
C90   H97   1.105077 S    
C39   C43   1.400008 A    
P8    Ba4   3.437199 S    
C81   H85   1.083390 S    
C89   H101  1.111482 S    
P12   O44   1.751428 S    
P6    O26   1.561001 D    
P1    O5    1.582241 S    
C99   H125  1.095329 S    
P8    O40   1.748013 S    
C41   C45   1.390366 A    
C16   C20   1.517691 S    
Ba1   Ba2   4.689764 S    
C67   C83   1.414577 A    
Ba3   Ba4   4.689764 S    
C66   C82   1.413323 A    
C80   C84   1.399159 A    
C44   H80   1.078061 S    
C38   C58   1.439038 A    
P1    Ba1   3.434467 S    
C36   C60   1.413908 A    
C101  H130  1.069227 S    
C24   H56   1.111759 S    
C15   H35   1.111359 S    
C1    H9    1.108340 S    
C26   H62   1.108284 S    
C5    C9    1.530505 S    
C54   C88   1.417835 A    
C18   H46   1.106488 S    
C7    H19   1.111285 S    
C89   C90   1.526608 S    
C36   C66   1.417800 A    
C62   C86   1.413520 A    
C77   C81   1.397326 A    
C71   C75   1.410031 A    
C32   H72   1.112780 S    
C94   H107  1.104377 S    
C28   H64   1.107754 S    
C6    H14   1.113776 S    
P10   C77   1.902866 S    
C91   H105  1.111369 S    
C2    C30   1.521495 S    
P14   C45   1.868200 S    
C97   H121  1.096550 S    
C63   C67   1.429036 A    
P1    O17   1.751140 S    
P3    O19   1.751205 S    
C87   H95   1.080864 S    
P4    O4    1.558293 D    
C25   H61   1.106872 S    
O8    Ba3   2.839447 S    
C27   H59   1.110783 S    
C95   H116  1.111414 S    
C96   H113  1.106085 S    
C56   C86   1.418891 A    
C23   H51   1.107095 S    
P3    Ba3   3.434467 S    
C74   C78   1.407679 A    
P2    C38   1.884091 S    
O20   C24   1.395203 S    
C12   C95   1.537154 S    
C10   H26   1.111697 S    
C100  H123  1.088123 S    
C12   H24   1.110425 S    
P5    Ba1   3.439319 S    
C3    C31   1.521263 S    
C53   C57   1.428059 A    
C1    H73   1.110863 S    
C8    C12   1.530000 S    
C43   C47   1.392076 A    
C17   H37   1.110697 S    
C35   C65   1.412880 A    
P2    O2    1.558293 D    
P7    O39   1.754916 S    
C70   C74   1.416274 A    
P7    O48   1.583065 S    
Ba2   O46   2.839564 S    
O12   P15   1.751095 S    
P8    O47   1.586283 S    
C41   H77   1.065775 S    
C4    H8    1.109723 S    
H2    C30   1.111975 S    
C92   H103  1.104827 S    
C37   C41   1.398337 A    
C97   C98   1.523770 S    
C62   C66   1.426003 A    
P6    O45   1.586283 S    
C40   C44   1.400923 A    
C83   H87   1.083370 S    
O23   P16   1.754356 S    
C94   H109  1.109214 S    
O21   P14   1.755293 S    
O44   C8    1.407955 S    
P4    C40   1.885672 S    
O12   Ba4   2.826845 S    
C49   H81   1.083552 S    
P2    Ba2   3.436550 S    
C34   C58   1.412666 A    
P10   O34   1.545579 D    
P11   O31   1.792621 S    
P2    O6    1.579033 S    
Ba3   O47   2.849120 S    
C72   C76   1.423934 A    
Ba4   O48   2.839564 S    
P7    O27   1.557342 D    
C52   H84   1.083751 S    
P8    O28   1.561001 D    
C103  C104  1.522245 S    
O22   C30   1.408769 S    
C2    H6    1.108685 S    
P6    Ba2   3.437199 S    
P5    O46   1.583065 S    
C94   H108  1.107647 S    
C35   H91   1.079720 S    
C4    H76   1.110777 S    
C9    C89   1.537342 S    
O5    Ba2   2.849002 S    
C62   C70   1.439076 A    
C39   C59   1.436986 A    
C99   C100  1.541536 S    
O7    Ba4   2.849002 S    
O40   C15   1.408442 S    
O43   C7    1.402773 S    
C49   C53   1.414919 A    
C68   C84   1.414361 A    
C30   H70   1.111777 S    
O15   P16   1.545444 D    
C61   C85   1.413208 A    
O13   P14   1.546071 D    
C46   C50   1.401010 A    
Ba4   O47   2.987852 S    
C19   H39   1.110747 S    
P9    C78   1.885656 S    
C13   H29   1.109973 S    
O23   C31   1.409415 S    
