data_mof_unit_23533.cif
_audit_creation_date              2013-03-05T16:12:28-0500
_audit_creation_method            fapswitch 2.2
_symmetry_space_group_name_H-M    P1
_symmetry_Int_Tables_number       1
_space_group_crystal_system       triclinic
_cell_length_a                    10.594897
_cell_length_b                    9.867131
_cell_length_c                    23.228436
_cell_angle_alpha                 89.62316
_cell_angle_beta                  92.819644
_cell_angle_gamma                 89.799202
_cell_volume                      2425.31924593

loop_
_atom_site_label
_atom_site_type_symbol
_atom_site_description
_atom_site_fract_x
_atom_site_fract_y
_atom_site_fract_z
_atom_type_partial_charge
O1    O     O_R   0.316770 0.614620 0.500000 -0.574070
O2    O     O_R   0.683230 0.385380 0.500000 -0.580487
O3    O     O_R   0.683230 0.614620 0.500000 -0.578256
O4    O     O_R   0.316770 0.385380 0.500000 -0.580533
C1    C     C_R   0.260800 0.499907 0.507735 0.919241
C2    C     C_R   0.738695 0.500034 0.491674 0.914883
O5    O     O_R   0.499970 0.614690 0.416160 -0.595156
O6    O     O_R   0.500030 0.385310 0.583840 -0.597481
O7    O     O_R   0.500030 0.614690 0.583840 -0.585060
O8    O     O_R   0.499970 0.385310 0.416160 -0.586581
C3    C     C_R   0.505780 0.499769 0.388987 0.910492
C4    C     C_R   0.498738 0.499555 0.611195 0.909026
Zn1   Zn    Zn3+2 0.500000 0.653120 0.500000 1.016881
Zn2   Zn    Zn3+2 0.500000 0.346880 0.500000 1.023362
C5    C     C_R   0.661758 0.486697 0.882020 0.588626
C6    C     C_R   0.494251 0.376922 0.125042 0.569768
N1    N     N_R   0.546179 0.462378 0.856078 -0.350466
N2    N     N_R   0.600059 0.427360 0.152616 -0.350139
C7    C     C_R   0.446690 0.416861 0.885369 0.591184
C8    C     C_R   0.705252 0.459848 0.124267 0.603589
C9    C     C_R   0.461515 0.387263 0.944637 -0.117945
C10   C     C_R   0.705536 0.447075 0.063801 -0.122522
C11   C     C_R   0.579225 0.419612 0.973489 -0.081073
C12   C     C_R   0.591830 0.407960 0.033996 -0.087833
C13   C     C_R   0.681801 0.469882 0.942338 -0.052499
C14   C     C_R   0.489722 0.358875 0.065041 -0.054659
C15   C     C_R   0.365021 0.323651 0.975639 0.317998
C16   C     C_R   0.813163 0.476854 0.032422 0.327082
C17   C     C_R   0.384387 0.299664 0.035158 0.087443
C18   C     C_R   0.800171 0.498033 0.972204 0.071767
O9    O     O_2   0.755781 0.525306 0.848570 -0.528677
O10   O     O_2   0.391394 0.353254 0.155628 -0.514908
O11   O     O_2   0.334767 0.400750 0.856217 -0.477052
O12   O     O_2   0.805106 0.512016 0.154587 -0.464871
C19   C     C_R   0.622664 0.352090 0.252932 0.335644
C20   C     C_R   0.559633 0.362680 0.760823 0.329488
C21   C     C_R   0.594717 0.371646 0.309933 -0.253961
C22   C     C_R   0.545574 0.373779 0.701485 -0.243209
H1    H     H_    0.615988 0.289548 0.340104 0.195882
H2    H     H_    0.568220 0.286094 0.676459 0.235174
C23   C     C_R   0.537843 0.492903 0.327836 -0.106002
C24   C     C_R   0.504090 0.495321 0.674724 -0.112502
C25   C     C_R   0.516691 0.599531 0.287261 0.107893
C26   C     C_R   0.470024 0.606414 0.709430 0.155713
C27   C     C_R   0.546295 0.578617 0.229914 -0.115074
C28   C     C_R   0.485610 0.594123 0.769528 -0.113771
H3    H     H_    0.524939 0.655949 0.197492 0.159311
H4    H     H_    0.461442 0.677572 0.797076 0.165539
C29   C     C_R   0.595690 0.454774 0.212671 0.200833
C30   C     C_R   0.531447 0.473705 0.794853 0.193916
C31   C     C_R   0.060605 0.375138 0.510858 0.164205
C32   C     C_R   0.938374 0.624112 0.486623 0.164816
C33   C     C_R   0.938938 0.376134 0.485688 0.163576
C34   C     C_R   0.059606 0.623350 0.512164 0.169236
C35   C     C_R   0.873051 0.500252 0.482008 -0.171754
C36   C     C_R   0.125776 0.499294 0.516068 -0.174023
C37   C     C_R   0.581446 0.070916 0.536463 0.222298
C38   C     C_R   0.417536 0.929318 0.464116 0.219927
C39   C     C_R   0.419350 0.072947 0.463207 0.230226
C40   C     C_R   0.581658 0.927138 0.536404 0.216575
N3    N     N_R   0.500000 0.857200 0.500000 -0.162927
N4    N     N_R   0.500000 0.142800 0.500000 -0.166915
Br1   Br    Br    0.204314 0.266250 0.939725 -0.379845
Br2   Br    Br    0.981363 0.468610 0.069881 -0.374633
C41   C     C_3   0.297157 0.203430 0.065212 -0.621853
H5    H     H_    0.266199 0.119230 0.036510 0.236439
H6    H     H_    0.346786 0.151379 0.102330 0.251084
H7    H     H_    0.213079 0.258918 0.079500 0.293856
C42   C     C_3   0.911467 0.554887 0.941074 -0.612691
H8    H     H_    0.992688 0.585505 0.969597 0.245710
H9    H     H_    0.946718 0.478541 0.910781 0.291354
H10   H     H_    0.882695 0.649721 0.917962 0.252811
Br3   Br    Br    0.690639 0.181166 0.230497 -0.426450
Br4   Br    Br    0.617588 0.193994 0.794344 -0.395682
C43   C     C_3   0.455184 0.730934 0.302151 -0.698331
H11   H     H_    0.358701 0.709104 0.315872 0.277772
H12   H     H_    0.512413 0.783523 0.336425 0.260425
H13   H     H_    0.445847 0.801059 0.264546 0.240391
C44   C     C_3   0.412240 0.735022 0.684460 -0.762922
H14   H     H_    0.329405 0.710350 0.655409 0.217024
H15   H     H_    0.378869 0.802863 0.718587 0.242276
H16   H     H_    0.482749 0.792096 0.660500 0.286283
C45   C     C_3   0.113689 0.243872 0.536491 -0.769212
H17   H     H_    0.195579 0.261375 0.567152 0.238985
H18   H     H_    0.041129 0.193602 0.562062 0.250485
H19   H     H_    0.140783 0.173866 0.502107 0.265819
C46   C     C_3   0.885397 0.754779 0.460407 -0.765779
H20   H     H_    0.801644 0.737001 0.430861 0.236982
H21   H     H_    0.861080 0.827013 0.494442 0.266115
H22   H     H_    0.957206 0.802550 0.433615 0.252277
C47   C     C_3   0.885889 0.247485 0.458754 -0.764675
H23   H     H_    0.802225 0.267911 0.429284 0.232219
H24   H     H_    0.957682 0.200597 0.431777 0.252922
H25   H     H_    0.861077 0.173511 0.492368 0.265329
C48   C     C_3   0.110174 0.751698 0.540252 -0.775337
H26   H     H_    0.195961 0.732875 0.568411 0.229465
H27   H     H_    0.130006 0.829657 0.507506 0.269236
H28   H     H_    0.038462 0.793250 0.568726 0.251248
Br5   Br    Br    0.698439 0.163932 0.587905 -0.438850
Br6   Br    Br    0.294424 0.837424 0.415720 -0.471062
Br7   Br    Br    0.309659 0.168818 0.408363 -0.399985
Br8   Br    Br    0.696549 0.831316 0.589015 -0.430379

loop_
_geom_bond_atom_site_label_1
_geom_bond_atom_site_label_2
_geom_bond_distance
_ccdc_geom_bond_type
C46   H20   1.109926 S    
C15   C17   1.406034 A    
C1    C36   1.453027 S    
C48   H26   1.107769 S    
C2    C35   1.451958 S    
O3    C2    1.292468 A    
C48   H28   1.110688 S    
C37   N4    1.371498 A    
O5    C3    1.304121 A    
O1    C1    1.295222 A    
C7    C9    1.406557 A    
C12   C14   1.414483 A    
C22   C24   1.406226 A    
C5    C13   1.415324 A    
Zn2   N4    2.013684 S    
C31   C36   1.411331 A    
C42   H9    1.110385 S    
O7    Zn1   1.981580 S    
C4    C24   1.474283 S    
C26   C28   1.402017 A    
C41   H6    1.109647 S    
C33   C47   1.516415 S    
C11   C12   1.409145 A    
C32   C46   1.516289 S    
O3    Zn1   1.976815 S    
C32   C35   1.408710 A    
C8    O12   1.347415 S    
C38   N3    1.371386 A    
C33   C35   1.407569 A    
C9    C15   1.424340 A    
C10   C16   1.413922 A    
C6    C14   1.404728 A    
C23   C25   1.417742 A    
O2    C2    1.294430 A    
C24   C26   1.421004 A    
C40   Br8   1.923406 S    
C43   H13   1.111152 S    
C32   C34   1.388067 A    
C28   H4    1.083795 S    
C27   H3    1.084003 S    
C25   C43   1.499173 S    
C34   C36   1.408674 A    
C39   Br7   1.923333 S    
C38   Br6   1.914331 S    
O8    Zn2   1.981582 S    
C47   H23   1.110032 S    
C44   H15   1.111023 S    
C37   C40   1.418678 A    
C38   C39   1.417431 A    
C40   N3    1.371005 A    
C31   C33   1.388981 A    
C42   H10   1.109974 S    
C43   H11   1.107081 S    
C19   C29   1.393578 A    
C47   H24   1.110643 S    
C25   C27   1.399879 A    
C45   H17   1.109821 S    
C27   C29   1.396468 A    
O6    C4    1.298019 A    
C41   H7    1.109732 S    
C43   H12   1.109446 S    
C34   C48   1.515848 S    
C20   Br4   1.918960 S    
C17   C41   1.517910 S    
C16   Br2   1.945502 S    
C45   H18   1.110664 S    
C8    C10   1.411151 A    
C9    C11   1.424687 A    
C7    O11   1.346742 S    
C10   C12   1.415739 A    
O1    Zn1   1.979429 S    
C31   C45   1.516652 S    
C18   C42   1.520272 S    
C20   C30   1.395147 A    
C13   C18   1.432000 A    
C5    N1    1.360731 A    
C19   Br3   1.916921 S    
C39   N4    1.369540 A    
O6    Zn2   1.986477 S    
C19   C21   1.385491 A    
C26   C44   1.507154 S    
O4    C1    1.292059 A    
N1    C30   1.426656 S    
C44   H16   1.106669 S    
C48   H27   1.106172 S    
C5    O9    1.347623 S    
C6    O10   1.350054 S    
C28   C30   1.397256 A    
C20   C22   1.382626 A    
C21   H1    1.083447 S    
O4    Zn2   1.976816 S    
C47   H25   1.107059 S    
C22   H2    1.078413 S    
C16   C18   1.412857 A    
N1    C7    1.358515 A    
C3    C23   1.478593 S    
N2    C8    1.360323 A    
C11   C13   1.423776 A    
C21   C23   1.411974 A    
C42   H8    1.104141 S    
O2    Zn2   1.979428 S    
O7    C4    1.298466 A    
O8    C3    1.293298 A    
C44   H14   1.109167 S    
O5    Zn1   1.986479 S    
C45   H19   1.107198 S    
Zn1   N3    2.013684 S    
C14   C17   1.415043 A    
C6    N2    1.360908 A    
C41   H5    1.109062 S    
C46   H22   1.110661 S    
C46   H21   1.107050 S    
C15   Br1   1.946542 S    
N2    C29   1.425650 S    
C37   Br5   1.919198 S    
