data_mof_unit_38134.cif
_audit_creation_date              2012-10-26T21:32:56-0400
_audit_creation_method            fapswitch 2.2
_symmetry_space_group_name_H-M    P1
_symmetry_Int_Tables_number       1
_space_group_crystal_system       triclinic
_cell_length_a                    28.226691
_cell_length_b                    18.458402
_cell_length_c                    17.084775
_cell_angle_alpha                 89.938952
_cell_angle_beta                  61.294182
_cell_angle_gamma                 90.02934
_cell_volume                      7807.47517347

loop_
_atom_site_label
_atom_site_type_symbol
_atom_type_description
_atom_site_fract_x
_atom_site_fract_y
_atom_site_fract_z
_atom_type_partial_charge
C1    C     C_R   0.702697 0.270096 0.675186 0.928815
C2    C     C_R   0.965855 0.633261 0.455882 -0.308238
C3    C     C_R   0.075493 0.902658 0.932774 0.940500
C4    C     C_R   0.574544 0.599126 0.933531 0.934717
C5    C     C_R   0.423808 0.403356 0.067833 0.936052
C6    C     C_R   0.426249 0.600213 0.065574 0.932988
C7    C     C_R   0.575825 0.403117 0.932359 0.936588
C8    C     C_R   0.545551 0.005496 0.513022 0.013154
C9    C     C_R   0.454862 0.005239 0.487368 0.011634
C10   C     C_R   0.045230 0.505476 0.513892 0.013077
C11   C     C_R   0.954530 0.505288 0.488262 0.011419
C12   C     C_R   0.519731 0.071280 0.515218 0.043804
C13   C     C_R   0.942449 0.378340 0.527024 -0.311000
C14   C     C_R   0.475693 0.939870 0.500063 0.044259
C15   C     C_R   0.479687 0.071338 0.487638 0.040248
C16   C     C_R   0.526272 0.940320 0.496377 0.044846
C17   C     C_R   0.019484 0.571290 0.515944 0.043802
C18   C     C_R   0.975214 0.439921 0.501292 0.044311
C19   C     C_R   0.979440 0.571358 0.488362 0.040220
C20   C     C_R   0.025813 0.440287 0.497553 0.044911
C21   C     C_R   0.623500 0.941493 0.503714 0.044460
C22   C     C_R   0.392740 0.067265 0.448322 0.048404
C23   C     C_R   0.377155 0.940431 0.496385 0.044589
C24   C     C_R   0.032725 0.632878 0.549447 -0.307705
C25   C     C_R   0.606778 0.067299 0.554355 0.049897
C26   C     C_R   0.123257 0.441441 0.504253 0.044526
C27   C     C_R   0.892655 0.567277 0.448630 0.048756
C28   C     C_R   0.876874 0.440540 0.497000 0.044108
C29   C     C_R   0.106681 0.567317 0.554704 0.049785
C30   C     C_R   0.666641 0.938877 0.524617 -0.125773
C31   C     C_R   0.342193 0.065696 0.447794 -0.120075
C32   C     C_R   0.333201 0.938474 0.477204 -0.123085
C33   C     C_R   0.657315 0.065874 0.554841 -0.121546
C34   C     C_R   0.166544 0.438856 0.524825 -0.125887
C35   C     C_R   0.560327 0.880069 0.467575 -0.312245
C36   C     C_R   0.842197 0.565708 0.447805 -0.120794
C37   C     C_R   0.833119 0.438514 0.477344 -0.122614
C38   C     C_R   0.157293 0.565882 0.554939 -0.122369
C39   C     C_R   0.682408 0.000874 0.550690 -0.329963
C40   C     C_R   0.316925 0.000773 0.452604 -0.330822
C41   C     C_R   0.182402 0.500876 0.550705 -0.330001
C42   C     C_R   0.816969 0.500779 0.452454 -0.330729
C43   C     C_R   0.591392 0.004488 0.525457 -0.020112
C44   C     C_R   0.408675 0.004096 0.475853 -0.022403
C45   C     C_R   0.091169 0.504465 0.526064 -0.019987
C46   C     C_R   0.465979 0.133279 0.455404 -0.308191
C47   C     C_R   0.908442 0.504156 0.476476 -0.022411
C48   C     C_R   0.111692 0.385117 0.459247 0.240241
C49   C     C_R   0.927014 0.629473 0.426674 0.250833
C50   C     C_R   0.890127 0.382708 0.538320 0.242381
C51   C     C_R   0.072176 0.629267 0.577385 0.249664
C52   C     C_R   0.612110 0.885214 0.458457 0.240101
C53   C     C_R   0.427066 0.129497 0.426353 0.250660
C54   C     C_R   0.390665 0.882482 0.537219 0.242959
C55   C     C_R   0.572236 0.129207 0.577040 0.249323
C56   C     C_3   0.191547 0.386619 0.315381 -0.778160
C57   C     C_R   0.443051 0.878184 0.525599 -0.310748
C58   C     C_3   0.939774 0.664924 0.280837 -0.798392
C59   C     C_3   0.814290 0.379423 0.686233 -0.784751
C60   C     C_3   0.060696 0.665333 0.722127 -0.800830
C61   C     C_3   0.691976 0.886900 0.314698 -0.778808
C62   C     C_3   0.439596 0.165062 0.280687 -0.798110
C63   C     C_3   0.316171 0.878712 0.686259 -0.789586
C64   C     C_3   0.560483 0.165068 0.722002 -0.800697
C65   C     C_3   0.658534 0.099959 0.979681 -0.785340
C66   C     C_3   0.228523 0.894212 0.154262 -0.813989
C67   C     C_3   0.172840 0.180302 0.225588 -0.832445
C68   C     C_R   0.532853 0.132828 0.548957 -0.307698
C69   C     C_3   0.821700 0.620097 0.786783 -0.778768
C70   C     C_3   0.159184 0.600284 0.978760 -0.785048
C71   C     C_3   0.728381 0.393928 0.154367 -0.814092
C72   C     C_3   0.672862 0.680226 0.225555 -0.832583
C73   C     C_3   0.321715 0.120229 0.786772 -0.778278
C74   C     C_3   0.668024 0.462508 0.729978 -0.750665
C75   C     C_3   0.432820 0.758065 0.213228 -0.749219
C76   C     C_3   0.331421 0.463647 0.266106 -0.756295
C77   C     C_3   0.568213 0.760924 0.789995 -0.756591
C78   C     C_3   0.172431 0.954175 0.714025 -0.738156
C79   C     C_R   0.713296 0.253383 0.960280 0.052933
C80   C     C_3   0.932764 0.258205 0.213019 -0.749693
C81   C     C_3   0.831545 0.963662 0.266004 -0.755803
C82   C     C_3   0.068201 0.260957 0.789994 -0.757846
C83   C     C_R   0.272472 0.724384 0.053421 0.042707
C84   C     C_R   0.287781 0.242917 0.041757 0.053621
C85   C     C_R   0.298283 0.731493 0.324069 0.904192
C86   C     C_R   0.731693 0.713622 0.942831 0.056980
C87   C     C_R   0.213765 0.753867 0.959718 0.052705
C88   C     C_R   0.772176 0.223984 0.053743 0.042665
C89   C     C_R   0.787815 0.742846 0.041736 0.053673
C90   C     C_R   0.231662 0.213710 0.942850 0.057119
C91   C     C_R   0.728625 0.181634 0.966922 0.232847
C92   C     C_R   0.256354 0.795775 0.047843 0.229446
C93   C     C_R   0.230607 0.237767 0.085104 0.232884
C94   C     C_R   0.788997 0.713385 0.899733 0.229359
C95   C     C_R   0.229123 0.682122 0.966268 0.232672
C96   C     C_R   0.298074 0.268725 0.324631 0.928295
C97   C     C_R   0.756052 0.295364 0.048134 0.229570
C98   C     C_R   0.730641 0.737698 0.085084 0.232901
C99   C     C_R   0.288967 0.213490 0.899748 0.229303
C100  C     C_R   0.758379 0.167911 0.012389 -0.315938
C101  C     C_R   0.228072 0.809724 0.000416 -0.299798
C102  C     C_R   0.203723 0.226137 0.035190 -0.297140
C103  C     C_R   0.816127 0.729945 0.948955 -0.315674
C104  C     C_R   0.258784 0.668355 0.011868 -0.315884
C105  C     C_R   0.727691 0.309268 0.000825 -0.299974
C106  C     C_R   0.703756 0.726066 0.035170 -0.297160
C107  C     C_R   0.701668 0.731873 0.675902 0.904914
C108  C     C_R   0.316095 0.230033 0.948973 -0.315630
C109  C     C_R   0.640150 0.320908 0.947553 -0.281781
C110  C     C_R   0.351824 0.666083 0.058573 -0.269059
C111  C     C_R   0.359463 0.319213 0.052576 -0.270172
C112  C     C_R   0.652495 0.657949 0.935550 -0.278349
C113  C     C_R   0.140264 0.820894 0.947631 -0.285069
C114  C     C_R   0.851641 0.165802 0.058733 -0.269113
C115  C     C_R   0.859484 0.819172 0.052559 -0.270437
C116  C     C_R   0.152480 0.158000 0.935560 -0.278810
C117  C     C_R   0.620380 0.353685 0.894375 -0.117373
C118  C     C_R   0.202762 0.770396 0.675107 0.925252
C119  C     C_R   0.383442 0.653498 0.101138 -0.115121
C120  C     C_R   0.379148 0.353425 0.105524 -0.118753
C121  C     C_R   0.618696 0.650162 0.896373 -0.113135
C122  C     C_R   0.119992 0.853116 0.894918 -0.112800
C123  C     C_R   0.883346 0.153374 0.101194 -0.114635
C124  C     C_R   0.879163 0.853399 0.105510 -0.117877
C125  C     C_R   0.118692 0.150179 0.896369 -0.112206
C126  C     C_R   0.645839 0.342932 0.803387 0.133999
C127  C     C_R   0.371414 0.687484 0.180786 0.135763
C128  C     C_R   0.353859 0.342701 0.196482 0.136849
C129  C     C_R   0.798268 0.231469 0.324078 0.902693
C130  C     C_R   0.629562 0.686748 0.818857 0.134192
C131  C     C_R   0.144758 0.842186 0.804202 0.133419
C132  C     C_R   0.871353 0.187435 0.180781 0.135751
C133  C     C_R   0.853879 0.842670 0.196467 0.136883
C134  C     C_R   0.129545 0.186779 0.818863 0.134945
C135  C     C_R   0.681771 0.286257 0.768712 -0.117797
C136  C     C_R   0.320716 0.718872 0.228773 -0.121406
C137  C     C_R   0.320115 0.283730 0.230826 -0.128702
C138  C     C_R   0.680093 0.718434 0.770709 -0.118393
C139  C     C_R   0.181649 0.786479 0.768614 -0.121839
C140  C     C_R   0.798083 0.768708 0.324627 0.928531
C141  C     C_R   0.820643 0.218767 0.228816 -0.120767
C142  C     C_R   0.820142 0.783689 0.230811 -0.128905
C143  C     C_R   0.180070 0.218488 0.770723 -0.119121
C144  C     C_R   0.702063 0.251661 0.820910 -0.240465
C145  C     C_R   0.288493 0.731760 0.186993 -0.191889
C146  C     C_R   0.302371 0.245242 0.178081 -0.238148
C147  C     C_R   0.713279 0.729895 0.811238 -0.206383
C148  C     C_R   0.202444 0.752389 0.820444 -0.237112
C149  C     C_R   0.788346 0.231517 0.187140 -0.191914
C150  C     C_R   0.802408 0.745185 0.178062 -0.238178
C151  C     C_R   0.201659 0.231895 0.675905 0.904780
C152  C     C_R   0.213245 0.229979 0.811264 -0.206461
C153  C     C_R   0.683988 0.273222 0.909646 0.115748
C154  C     C_R   0.305067 0.708294 0.099653 0.110165
C155  C     C_R   0.317547 0.267839 0.090576 0.111929
C156  C     C_R   0.699108 0.700778 0.895495 0.102101
C157  C     C_R   0.184336 0.773657 0.909290 0.115925
C158  C     C_R   0.804856 0.207965 0.099857 0.110006
C159  C     C_R   0.817581 0.767779 0.090555 0.111762
C160  C     C_R   0.199080 0.200857 0.895515 0.102155
C161  C     C_R   0.690927 0.130055 0.536929 0.926320
C162  C     C_R   0.059808 0.379977 0.468765 -0.312308
C163  C     C_R   0.304448 0.872416 0.479743 0.922520
C164  C     C_R   0.308898 0.129887 0.463993 0.922667
C165  C     C_R   0.695394 0.872513 0.521044 0.930841
C166  C     C_R   0.190924 0.630059 0.536944 0.928779
C167  C     C_R   0.804426 0.372424 0.479785 0.927851
C168  C     C_R   0.808902 0.629892 0.463976 0.922209
C169  C     C_R   0.195367 0.372511 0.521104 0.930534
C170  C     C_R   0.074565 0.099099 0.933506 0.939453
C171  C     C_R   0.923814 0.903347 0.067827 0.933551
C172  C     C_R   0.926215 0.100175 0.065598 0.931640
H1    H     H_    0.717767 0.999826 0.560099 0.196730
H2    H     H_    0.935463 0.712163 0.244419 0.234474
H3    H     H_    0.449397 0.784379 0.146688 0.238355
H4    H     H_    0.391438 0.392304 0.264860 0.244811
H5    H     H_    0.303611 0.472722 0.338156 0.242195
H6    H     H_    0.307661 0.465516 0.229764 0.228571
H7    H     H_    0.361729 0.507915 0.241005 0.242615
H8    H     H_    0.596192 0.656916 0.737257 0.250772
H9    H     H_    0.533758 0.755667 0.776141 0.232791
H10   H     H_    0.599500 0.795840 0.737775 0.234944
H11   H     H_    0.553359 0.786901 0.856324 0.238703
H12   H     H_    0.111659 0.879395 0.721684 0.244127
H13   H     H_    0.912610 0.621371 0.280996 0.236722
H14   H     H_    0.148226 0.004333 0.726141 0.237178
H15   H     H_    0.199168 0.947762 0.641158 0.244080
H16   H     H_    0.197698 0.959905 0.747400 0.224470
H17   H     H_    0.902572 0.154352 0.264459 0.250047
H18   H     H_    0.966217 0.251216 0.229075 0.229118
H19   H     H_    0.901595 0.293738 0.264264 0.237536
H20   H     H_    0.949267 0.284488 0.146472 0.238341
H21   H     H_    0.891459 0.892192 0.264881 0.244809
H22   H     H_    0.803623 0.972709 0.338018 0.242141
H23   H     H_    0.807928 0.965660 0.229428 0.228431
H24   H     H_    0.982307 0.645824 0.245210 0.237340
H25   H     H_    0.861895 0.007882 0.241109 0.242714
H26   H     H_    0.096175 0.156951 0.737264 0.250700
H27   H     H_    0.033742 0.255702 0.776149 0.232947
H28   H     H_    0.099490 0.295862 0.737762 0.235215
H29   H     H_    0.053354 0.286945 0.856316 0.238728
H30   H     H_    0.734552 0.212664 0.790646 0.177676
H31   H     H_    0.249496 0.757611 0.223354 0.176050
H32   H     H_    0.274761 0.200396 0.206939 0.190053
H33   H     H_    0.750448 0.760383 0.776589 0.184139
H34   H     H_    0.235270 0.713900 0.789894 0.177365
H35   H     H_    0.863210 0.291887 0.620114 0.216625
H36   H     H_    0.749337 0.257331 0.223543 0.175986
H37   H     H_    0.774799 0.700337 0.206922 0.190067
H38   H     H_    0.250405 0.260488 0.776625 0.184193
H39   H     H_    0.785705 0.341967 0.737869 0.244787
H40   H     H_    0.790732 0.420353 0.671730 0.240866
H41   H     H_    0.838439 0.406815 0.713274 0.233311
H42   H     H_    0.055814 0.733721 0.629863 0.211513
H43   H     H_    0.065674 0.712658 0.757644 0.234451
H44   H     H_    0.018037 0.646686 0.758674 0.235278
H45   H     H_    0.281326 0.999831 0.443856 0.196327
H46   H     H_    0.087701 0.621564 0.721907 0.239347
H47   H     H_    0.641487 0.798373 0.371171 0.223816
H48   H     H_    0.724064 0.851692 0.265384 0.261468
H49   H     H_    0.711538 0.928792 0.336124 0.238956
H50   H     H_    0.670703 0.913425 0.281962 0.226678
H51   H     H_    0.444253 0.233742 0.372794 0.213341
H52   H     H_    0.435214 0.212332 0.244384 0.234519
H53   H     H_    0.412403 0.121519 0.280920 0.236624
H54   H     H_    0.482129 0.145974 0.244896 0.237329
H55   H     H_    0.363906 0.791003 0.617763 0.217119
H56   H     H_    0.217839 0.499835 0.559896 0.196763
H57   H     H_    0.286864 0.841473 0.737251 0.245356
H58   H     H_    0.293451 0.921722 0.673021 0.238681
H59   H     H_    0.341173 0.903529 0.713360 0.234550
H60   H     H_    0.555759 0.233589 0.629710 0.212263
H61   H     H_    0.565365 0.212336 0.757701 0.235115
H62   H     H_    0.517826 0.146390 0.758339 0.235219
H63   H     H_    0.587462 0.121284 0.721838 0.239044
H64   H     H_    0.049329 0.333723 0.441092 0.143873
H65   H     H_    0.989079 0.682551 0.444677 0.141071
H66   H     H_    0.954042 0.331346 0.551983 0.144768
H67   H     H_    0.781480 0.499821 0.443398 0.196452
H68   H     H_    0.009142 0.681890 0.561665 0.139121
H69   H     H_    0.549973 0.833848 0.439678 0.143829
H70   H     H_    0.489152 0.182606 0.444273 0.141048
H71   H     H_    0.454755 0.831156 0.550336 0.144908
H72   H     H_    0.509218 0.181799 0.561257 0.139174
H73   H     H_    0.717798 0.364800 0.993961 0.160832
H74   H     H_    0.270387 0.613186 0.016291 0.150410
H75   H     H_    0.359833 0.231429 0.914516 0.144900
H76   H     H_    0.660000 0.727052 0.069778 0.155347
H77   H     H_    0.218130 0.865251 0.993639 0.161090
H78   H     H_    0.140825 0.298293 0.371851 0.223363
H79   H     H_    0.769976 0.112749 0.016857 0.150367
H80   H     H_    0.859865 0.731339 0.914499 0.144881
H81   H     H_    0.159967 0.227112 0.069800 0.155308
H82   H     H_    0.740632 0.079764 0.910237 0.219568
H83   H     H_    0.650635 0.078757 0.045795 0.237211
H84   H     H_    0.650284 0.056299 0.943183 0.237523
H85   H     H_    0.630641 0.145618 0.989448 0.253098
H86   H     H_    0.299802 0.888401 0.034766 0.226901
H87   H     H_    0.206146 0.925948 0.127275 0.232470
H88   H     H_    0.245102 0.932326 0.185244 0.244717
H89   H     H_    0.223572 0.351305 0.266112 0.261446
H90   H     H_    0.200189 0.856615 0.206722 0.243462
H91   H     H_    0.172109 0.288678 0.196038 0.227816
H92   H     H_    0.155689 0.188173 0.298491 0.235402
H93   H     H_    0.202236 0.134902 0.205166 0.247109
H94   H     H_    0.139541 0.165464 0.211443 0.234006
H95   H     H_    0.857761 0.719812 0.776491 0.218632
H96   H     H_    0.844400 0.612439 0.713308 0.244313
H97   H     H_    0.780348 0.598044 0.811334 0.251217
H98   H     H_    0.842414 0.589484 0.817659 0.235830
H99   H     H_    0.241317 0.580387 0.909217 0.219549
H100  H     H_    0.211205 0.428383 0.336793 0.238724
H101  H     H_    0.151344 0.578932 0.044781 0.237102
H102  H     H_    0.151006 0.556684 0.942105 0.237513
H103  H     H_    0.131198 0.645869 0.988729 0.253118
H104  H     H_    0.799580 0.387970 0.034759 0.226870
H105  H     H_    0.705966 0.425633 0.127426 0.232434
H106  H     H_    0.745036 0.432076 0.185192 0.244669
H107  H     H_    0.700064 0.356394 0.206939 0.243454
H108  H     H_    0.672153 0.788615 0.196026 0.227814
H109  H     H_    0.655677 0.688094 0.298465 0.235269
H110  H     H_    0.702258 0.634829 0.205165 0.247140
H111  H     H_    0.170351 0.413290 0.282609 0.226544
H112  H     H_    0.639584 0.665386 0.211359 0.234022
H113  H     H_    0.357717 0.219985 0.776501 0.218607
H114  H     H_    0.344407 0.112587 0.713294 0.244224
H115  H     H_    0.280375 0.098129 0.811340 0.251363
H116  H     H_    0.342459 0.089649 0.817622 0.235870
H117  H     H_    0.622929 0.334593 0.017618 0.166812
H118  H     H_    0.363293 0.642582 0.993826 0.165899
H119  H     H_    0.375251 0.334780 0.983367 0.160098
H120  H     H_    0.642996 0.629549 0.996896 0.167990
H121  H     H_    0.123213 0.834664 0.017646 0.167012
H122  H     H_    0.944290 0.733678 0.373008 0.213319
H123  H     H_    0.863067 0.142228 0.994037 0.165826
H124  H     H_    0.875269 0.834739 0.983351 0.160121
H125  H     H_    0.142989 0.129597 0.996901 0.168059
H126  H     H_    0.606561 0.390837 0.736470 0.244109
H127  H     H_    0.638178 0.507216 0.755991 0.241985
H128  H     H_    0.694325 0.470519 0.657198 0.242619
H129  H     H_    0.693553 0.464722 0.763224 0.225963
H130  H     H_    0.402527 0.654215 0.264547 0.249944
H131  H     H_    0.466227 0.750976 0.229378 0.228993
H132  H     H_    0.401658 0.793620 0.264450 0.237731
N1    N     N_2   0.153833 0.343822 0.390813 -0.263042
N2    N     N_2   0.272438 0.854521 0.083625 -0.303523
N3    N     N_2   0.199118 0.246370 0.178944 -0.314500
N4    N     N_2   0.819893 0.696419 0.807359 -0.321708
N5    N     N_2   0.214830 0.623442 0.927733 -0.318415
N6    N     N_2   0.772229 0.354149 0.083723 -0.303518
N7    N     N_2   0.699153 0.746295 0.178927 -0.314440
N8    N     N_2   0.319864 0.196552 0.807367 -0.321833
N9    N     N_2   0.640250 0.393708 0.745090 -0.279781
N10   N     N_2   0.410260 0.688030 0.211716 -0.290568
N11   N     N_2   0.358254 0.394568 0.254800 -0.278440
N12   N     N_2   0.925588 0.686221 0.370946 -0.271279
N13   N     N_2   0.589713 0.689831 0.790138 -0.291217
N14   N     N_2   0.136449 0.892571 0.748380 -0.281811
N15   N     N_2   0.910248 0.188112 0.211607 -0.290565
N16   N     N_2   0.858291 0.894524 0.254784 -0.278315
N17   N     N_2   0.089693 0.189860 0.790151 -0.291359
N18   N     N_2   0.849284 0.339306 0.606324 -0.263700
N19   N     N_2   0.074412 0.686222 0.632032 -0.272253
N20   N     N_2   0.654376 0.844012 0.390132 -0.263164
N21   N     N_2   0.425536 0.186290 0.370765 -0.271279
N22   N     N_2   0.349982 0.839016 0.605341 -0.263475
N23   N     N_2   0.574350 0.186086 0.631882 -0.271986
N24   N     N_2   0.714228 0.122906 0.928598 -0.318610
O1    O     O_R   0.746490 0.236330 0.638080 -0.640902
O2    O     O_R   0.325830 0.813840 0.483730 -0.613943
O3    O     O_R   0.325830 0.186160 0.483730 -0.607279
O4    O     O_R   0.674170 0.813840 0.516270 -0.613820
O5    O     O_R   0.174170 0.686160 0.516270 -0.608103
O6    O     O_R   0.825830 0.313840 0.483730 -0.615333
O7    O     O_R   0.825830 0.686160 0.483730 -0.607209
O8    O     O_R   0.174170 0.313840 0.516270 -0.613478
O9    O     O_R   0.739960 0.127620 0.525000 -0.639403
O10   O     O_R   0.260040 0.872380 0.475000 -0.643389
O11   O     O_R   0.260040 0.127620 0.475000 -0.640911
O12   O     O_R   0.253510 0.763670 0.361920 -0.634502
O13   O     O_R   0.739960 0.872380 0.525000 -0.638756
O14   O     O_R   0.239960 0.627620 0.525000 -0.638964
O15   O     O_R   0.760040 0.372380 0.475000 -0.638220
O16   O     O_R   0.760040 0.627620 0.475000 -0.641154
O17   O     O_R   0.239960 0.372380 0.525000 -0.638733
O18   O     O_R   0.680700 0.294870 0.629350 -0.613234
O19   O     O_R   0.319300 0.705130 0.370650 -0.630579
O20   O     O_R   0.319300 0.294870 0.370650 -0.614230
O21   O     O_R   0.680700 0.705130 0.629350 -0.631029
O22   O     O_R   0.180700 0.794870 0.629350 -0.627379
O23   O     O_R   0.253510 0.236330 0.361920 -0.633080
O24   O     O_R   0.819300 0.205130 0.370650 -0.630846
O25   O     O_R   0.819300 0.794870 0.370650 -0.614341
O26   O     O_R   0.180700 0.205130 0.629350 -0.631522
O27   O     O_R   0.062020 0.072840 0.007170 -0.632296
O28   O     O_R   0.937980 0.927160 0.992830 -0.633836
O29   O     O_R   0.937980 0.072840 0.992830 -0.630192
O30   O     O_R   0.062020 0.927160 0.007170 -0.636684
O31   O     O_R   0.562020 0.572840 0.007170 -0.630588
O32   O     O_R   0.437980 0.427160 0.992830 -0.632687
O33   O     O_R   0.437980 0.572840 0.992830 -0.629169
O34   O     O_R   0.746490 0.763670 0.638080 -0.635450
O35   O     O_R   0.562020 0.427160 0.007170 -0.632947
O36   O     O_R   0.947860 0.073950 0.109290 -0.615786
O37   O     O_R   0.052140 0.926050 0.890710 -0.612081
O38   O     O_R   0.052140 0.073950 0.890710 -0.610402
O39   O     O_R   0.947860 0.926050 0.109290 -0.626420
O40   O     O_R   0.447860 0.573950 0.109290 -0.615467
O41   O     O_R   0.552140 0.426050 0.890710 -0.627691
O42   O     O_R   0.552140 0.573950 0.890710 -0.616255
O43   O     O_R   0.447860 0.426050 0.109290 -0.625731
O44   O     O_R   0.246490 0.736330 0.638080 -0.638236
O45   O     O_R   0.753510 0.263670 0.361920 -0.635639
O46   O     O_R   0.753510 0.736330 0.361920 -0.633082
O47   O     O_R   0.246490 0.263670 0.638080 -0.635294
O48   O     O_R   0.674170 0.186160 0.516270 -0.609070
Zn1   Zn    Zn3+2 0.792340 0.208750 0.507670 0.932889
Zn2   Zn    Zn3+2 0.494040 0.500000 0.919480 0.917679
Zn3   Zn    Zn3+2 0.005960 0.000000 0.080520 0.918130
Zn4   Zn    Zn3+2 0.994040 0.000000 0.919480 0.925368
Zn5   Zn    Zn3+2 0.207660 0.791250 0.492330 0.935660
Zn6   Zn    Zn3+2 0.207660 0.208750 0.492330 0.933314
Zn7   Zn    Zn3+2 0.792340 0.791250 0.507670 0.945912
Zn8   Zn    Zn3+2 0.292340 0.708750 0.507670 0.932677
Zn9   Zn    Zn3+2 0.707660 0.291250 0.492330 0.943888
Zn10  Zn    Zn3+2 0.707660 0.708750 0.492330 0.933560
Zn11  Zn    Zn3+2 0.292340 0.291250 0.507670 0.945951
Zn12  Zn    Zn3+2 0.505960 0.500000 0.080520 0.918579

loop_
_geom_bond_atom_site_label_1
_geom_bond_atom_site_label_2
_ccdc_geom_bond_type
C172  O29   A    
C28   C47   A    
C36   C42   A    
O16   Zn10  S    
O25   Zn7   S    
C83   C154  S    
C170  O27   A    
H35   N18   S    
C124  C133  A    
C129  O24   A    
C60   H43   S    
C16   C35   A    
C67   H93   S    
C7    O35   A    
C48   C162  A    
C32   C163  S    
C36   C168  S    
C111  H119  S    
H55   N22   S    
C37   C42   A    
C147  H33   S    
O6    Zn1   S    
C86   C156  S    
H95   N4    S    
O38   Zn4   S    
C134  C143  A    
C161  O9    A    
O2    Zn8   S    
C113  C122  A    
C59   H39   S    
C77   H9    S    
C63   N22   S    
C78   H14   S    
C88   C158  S    
C91   C100  A    
C65   N24   S    
C117  C126  A    
C88   C97   A    
C24   H68   S    
C167  O15   A    
C97   C105  A    
C24   C51   A    
C143  C151  S    
C93   N3    S    
C114  H123  S    
C8    C16   A    
C70   H101  S    
C94   N4    S    
C113  H121  S    
C80   H20   S    
C132  N15   S    
C58   H2    S    
C3    O37   A    
H126  N9    S    
C107  O34   A    
C71   H106  S    
C150  C159  A    
O39   Zn3   S    
C17   C24   A    
C85   O12   A    
C137  C146  A    
C127  C136  A    
C64   H63   S    
C76   H5    S    
O19   Zn8   S    
C145  H31   S    
C29   C45   A    
C33   C161  S    
O46   Zn10  S    
C22   C31   A    
C85   O19   A    
C63   H58   S    
C13   C18   A    
C4    O42   A    
C163  O10   A    
C75   H131  S    
C56   H100  S    
O27   Zn3   S    
C64   N23   S    
O12   Zn5   S    
C14   C57   A    
C2    C19   A    
C25   C55   A    
C52   N20   S    
C59   H41   S    
C164  O3    A    
C62   H53   S    
C98   C106  A    
C102  H81   S    
C96   O23   A    
C107  C138  S    
C56   H89   S    
C9    C15   A    
C66   N2    S    
C142  C150  A    
C122  C131  A    
C76   N11   S    
C65   H83   S    
C46   C53   A    
C77   H11   S    
C84   C93   A    
H12   N14   S    
O42   Zn2   S    
C129  C141  S    
O44   Zn8   S    
C131  N14   S    
C113  C157  A    
C111  C155  A    
C62   N21   S    
H78   N1    S    
C11   C18   A    
C123  C132  A    
C7    C117  S    
C74   H128  S    
C121  C130  A    
C76   H7    S    
C25   C43   A    
C67   N3    S    
H108  N7    S    
C99   C108  A    
C12   C68   A    
C133  C142  A    
C56   H111  S    
C110  C154  A    
C3    O30   A    
C48   N1    S    
C66   H88   S    
C56   N1    S    
C81   H23   S    
C74   H129  S    
C73   N8    S    
C61   H50   S    
C90   C102  A    
C146  H32   S    
C26   C45   A    
C69   H98   S    
C87   C101  A    
C6    O40   A    
C73   H114  S    
C114  C158  A    
O41   Zn2   S    
C87   C95   A    
C29   C38   A    
O33   Zn2   S    
C169  O17   A    
C163  O2    A    
C62   H52   S    
C149  C158  A    
C70   N5    S    
C79   C91   A    
C123  C172  S    
C41   H56   S    
C20   C162  A    
C97   N6    S    
C89   C103  A    
C61   N20   S    
C99   N8    S    
C86   C106  A    
C149  H36   S    
C6    O33   A    
O3    Zn11  S    
C89   C159  S    
C151  O47   A    
O21   Zn10  S    
C139  C148  A    
C164  O11   A    
O20   Zn11  S    
C38   C41   A    
H104  N6    S    
C10   C20   A    
O34   Zn7   S    
C71   H107  S    
C87   C157  S    
O9    Zn1   S    
O10   Zn5   S    
C64   H62   S    
C60   H46   S    
C79   C153  S    
C130  N13   S    
C8    C12   A    
C53   N21   S    
C10   C45   A    
C105  H73   S    
C34   C169  S    
C171  O39   A    
C72   H112  S    
C114  C123  A    
C116  H125  S    
C35   H69   S    
C104  H74   S    
C116  C125  A    
C59   N18   S    
O13   Zn7   S    
C145  C154  A    
O11   Zn6   S    
C58   N12   S    
C167  O6    A    
C90   C99   A    
C63   H59   S    
C29   C51   A    
C27   C47   A    
C132  C141  A    
O7    Zn7   S    
C31   C164  S    
C101  H77   S    
C30   C165  S    
C107  O21   A    
C110  C119  A    
O37   Zn4   S    
C148  H34   S    
C128  N11   S    
O1    Zn1   S    
O17   Zn11  S    
C89   C98   A    
C60   H44   S    
C5    O32   A    
C1    O1    A    
C82   H27   S    
C129  O45   A    
C73   H116  S    
C92   N2    S    
C28   C37   A    
C140  O46   A    
C58   H24   S    
C165  O4    A    
C30   C39   A    
C148  C157  A    
C69   N4    S    
C80   N15   S    
C131  C139  A    
C85   C136  S    
C13   C50   A    
C78   H16   S    
H4    N11   S    
C112  C156  A    
C98   N7    S    
C72   H109  S    
C15   C46   A    
C1    C135  S    
C27   C49   A    
C72   N7    S    
C25   C33   A    
C54   C57   A    
C119  C127  A    
C125  C134  A    
C4    O31   A    
C70   H102  S    
C166  O5    A    
H42   N19   S    
C6    C119  S    
C11   C47   A    
C8    C43   A    
C39   H1    S    
C100  H79   S    
C55   C68   A    
C170  O38   A    
C109  C117  A    
C37   C167  S    
C109  H117  S    
C59   H40   S    
C11   C19   A    
C71   H105  S    
O24   Zn1   S    
C140  C142  S    
C116  C160  A    
C76   H6    S    
C81   H25   S    
O32   Zn2   S    
H82   N24   S    
C151  O26   A    
C31   C40   A    
C161  O48   A    
C95   N5    S    
C152  H38   S    
O18   Zn9   S    
C146  C155  A    
H21   N16   S    
C109  C153  A    
O31   Zn12  S    
C26   C48   A    
C63   H57   S    
C162  H64   S    
C7    O41   A    
C169  O8    A    
H130  N10   S    
C58   H13   S    
H47   N20   S    
C168  O16   A    
C34   C41   A    
C165  O13   A    
O43   Zn12  S    
C5    C120  S    
C75   H3    S    
C67   H94   S    
C62   H54   S    
O14   Zn8   S    
C134  N17   S    
C23   C44   A    
C115  C159  A    
O28   Zn4   S    
C9    C14   A    
C50   N18   S    
C12   C15   A    
C77   N13   S    
C77   H10   S    
C2    H65   S    
C125  C170  S    
C71   N6    S    
C88   C100  A    
C49   N12   S    
C92   C101  A    
H122  N12   S    
C143  C152  A    
C94   C103  A    
C172  O36   A    
C80   H19   S    
C46   H70   S    
O30   Zn3   S    
O5    Zn5   S    
C171  O28   A    
C38   C166  S    
C115  C124  A    
C60   N19   S    
O35   Zn12  S    
C93   C102  A    
C82   H29   S    
C42   H67   S    
C120  C128  A    
C81   N16   S    
C13   H66   S    
C27   C36   A    
C21   C30   A    
C23   C32   A    
O15   Zn9   S    
C57   H71   S    
C124  C171  S    
C84   C108  A    
C4    C121  S    
C90   C160  S    
C61   H49   S    
C168  O7    A    
C69   H97   S    
C112  C121  A    
C35   C52   A    
C82   N17   S    
C106  H76   S    
C75   H132  S    
C66   H90   S    
C126  N9    S    
C152  C160  A    
C65   H85   S    
C54   N22   S    
C61   H48   S    
H51   N21   S    
C74   N9    S    
C69   H96   S    
C67   H92   S    
C141  C149  A    
C51   N19   S    
C83   C92   A    
C108  H75   S    
C33   C39   A    
O8    Zn6   S    
C103  H80   S    
H99   N5    S    
C84   C155  S    
C10   C17   A    
C65   H84   S    
C79   C105  A    
C144  C153  A    
H86   N2    S    
C81   H22   S    
C21   C43   A    
C28   C50   A    
C26   C34   A    
C22   C44   A    
O47   Zn11  S    
C118  O22   A    
C86   C94   A    
C136  C145  A    
C3    C122  S    
C110  H118  S    
C74   H127  S    
O4    Zn10  S    
H26   N17   S    
C91   N24   S    
C22   C53   A    
H8    N13   S    
O29   Zn4   S    
C83   C104  A    
O48   Zn9   S    
C75   N10   S    
C150  H37   S    
C66   H87   S    
C96   C137  S    
H17   N15   S    
C55   N23   S    
C111  C120  A    
C166  O14   A    
C128  C137  A    
C82   H28   S    
C1    O18   A    
C147  C156  A    
C2    C49   A    
C73   H115  S    
C138  C147  A    
O40   Zn12  S    
C144  H30   S    
C135  C144  A    
C118  O44   A    
C112  H120  S    
H60   N23   S    
C14   C16   A    
C72   H110  S    
O36   Zn3   S    
O45   Zn9   S    
C95   C104  A    
C23   C54   A    
O22   Zn5   S    
C9    C44   A    
C70   H103  S    
C115  H124  S    
C96   O20   A    
C80   H18   S    
C133  N16   S    
C126  C135  A    
C78   H15   S    
H113  N8    S    
C78   N14   S    
H91   N3    S    
C64   H61   S    
C5    O43   A    
O23   Zn6   S    
C140  O25   A    
C68   H72   S    
C17   C19   A    
C18   C20   A    
C32   C40   A    
C40   H45   S    
O26   Zn6   S    
C127  N10   S    
C21   C52   A    
C118  C139  S    
C130  C138  A    
