data_mof_unit_66932.cif
_audit_creation_date              2013-03-05T15:57:29-0500
_audit_creation_method            fapswitch 2.2
_symmetry_space_group_name_H-M    P1
_symmetry_Int_Tables_number       1
_space_group_crystal_system       triclinic
_cell_length_a                    17.409453
_cell_length_b                    19.238982
_cell_length_c                    8.38985
_cell_angle_alpha                 90.47002
_cell_angle_beta                  102.35796
_cell_angle_gamma                 88.100931
_cell_volume                      2743.47703626

loop_
_atom_site_label
_atom_site_type_symbol
_atom_site_description
_atom_site_fract_x
_atom_site_fract_y
_atom_site_fract_z
_atom_type_partial_charge
P1    P     P_3+3 0.834140 0.419320 0.003900 0.418473
P2    P     P_3+3 0.834140 0.580680 0.503900 0.429757
P3    P     P_3+3 0.334140 0.919320 0.003900 0.421925
P4    P     P_3+3 0.334140 0.080680 0.503900 0.422782
O1    O     O_2   0.841960 0.394640 0.833410 -0.387758
O2    O     O_2   0.841960 0.605360 0.333410 -0.373350
O3    O     O_2   0.341960 0.894640 0.833410 -0.386634
O4    O     O_2   0.341960 0.105360 0.333410 -0.377337
O5    O     O_3   0.907950 0.463080 0.102990 -0.400243
O6    O     O_3   0.907950 0.536920 0.602990 -0.410771
O7    O     O_3   0.407950 0.963080 0.102990 -0.402320
O8    O     O_3   0.407950 0.036920 0.602990 -0.412892
O9    O     O_3   0.972780 0.329600 0.629720 -0.392333
O10   O     O_3   0.972780 0.670400 0.129720 -0.411647
O11   O     O_3   0.472780 0.829600 0.629720 -0.393605
O12   O     O_3   0.472780 0.170400 0.129720 -0.394864
O13   O     O_2   0.844706 0.275136 0.704056 -0.390760
O14   O     O_2   0.836862 0.718728 0.201379 -0.382723
O15   O     O_2   0.341401 0.779501 0.701779 -0.386008
O16   O     O_2   0.337815 0.219282 0.192836 -0.387895
O17   O     O_3   0.757376 0.480455 0.958521 -0.620788
O18   O     O_3   0.755795 0.528899 0.442494 -0.597333
O19   O     O_3   0.258396 0.982521 0.960673 -0.608262
O20   O     O_3   0.254083 0.030886 0.441186 -0.595979
O21   O     O_3   0.943870 0.187416 0.616833 -0.519765
O22   O     O_3   0.927342 0.809711 0.129277 -0.520060
O23   O     O_3   0.437162 0.687673 0.624961 -0.518059
O24   O     O_3   0.432015 0.312291 0.140133 -0.509698
H1    H     H_    0.062336 0.207768 0.667753 0.112485
H2    H     H_    0.041497 0.774352 0.222182 0.178646
H3    H     H_    0.556214 0.703247 0.692080 0.126587
H4    H     H_    0.549616 0.282398 0.204076 0.155805
C1    C     C_3   0.038157 0.115704 0.519482 -1.139535
C2    C     C_3   0.037173 0.875728 0.132275 -1.152845
C3    C     C_3   0.531310 0.610494 0.548077 -1.160182
C4    C     C_3   0.533301 0.387498 0.122429 -1.118085
H5    H     H_    0.593180 0.607031 0.534909 0.240035
H6    H     H_    0.594424 0.388687 0.105351 0.231394
H7    H     H_    0.097080 0.115917 0.488969 0.244820
H8    H     H_    0.099083 0.869687 0.118913 0.230505
H9    H     H_    0.037698 0.078869 0.619653 0.274183
H10   H     H_    0.033253 0.898635 0.251715 0.294832
H11   H     H_    0.521648 0.575476 0.645290 0.285360
H12   H     H_    0.528999 0.408507 0.243151 0.283847
P5    P     P_3+3 0.165830 0.418670 0.685610 0.448572
P6    P     P_3+3 0.165830 0.581330 0.185610 0.451867
P7    P     P_3+3 0.665830 0.918670 0.685610 0.447939
P8    P     P_3+3 0.665830 0.081330 0.185610 0.453304
P9    P     P_3+3 0.095726 0.263010 0.108320 0.431451
P10   P     P_3+3 0.087278 0.738181 0.606422 0.419547
P11   P     P_3+3 0.594320 0.762243 0.107924 0.440608
P12   P     P_3+3 0.588101 0.237573 0.603513 0.425274
O25   O     O_2   0.157990 0.394030 0.856030 -0.376632
O26   O     O_2   0.157990 0.605970 0.356030 -0.379329
O27   O     O_2   0.657990 0.894030 0.856030 -0.379276
O28   O     O_2   0.657990 0.105970 0.356030 -0.376287
O29   O     O_3   0.027110 0.329490 0.059550 -0.384732
O30   O     O_3   0.027110 0.670510 0.559550 -0.362596
O31   O     O_3   0.527110 0.829490 0.059550 -0.385247
O32   O     O_3   0.527110 0.170510 0.559550 -0.362470
O33   O     O_2   0.147358 0.265136 0.979484 -0.387682
O34   O     O_2   0.138872 0.735932 0.477168 -0.401744
O35   O     O_2   0.645975 0.763434 0.979081 -0.389018
O36   O     O_2   0.639691 0.233238 0.474430 -0.393358
O37   O     O_3   0.249018 0.468515 0.709226 -0.619741
O38   O     O_3   0.248957 0.526661 0.208169 -0.611445
O39   O     O_3   0.749444 0.968013 0.709898 -0.620169
O40   O     O_3   0.748711 0.026044 0.208966 -0.612747
O41   O     O_3   0.038550 0.189731 0.060544 -0.561831
O42   O     O_3   0.015238 0.803750 0.543089 -0.547219
O43   O     O_3   0.534736 0.691055 0.059461 -0.560200
O44   O     O_3   0.516436 0.302946 0.534746 -0.540523
C5    C     C_3   0.961003 0.206000 0.073050 0.530152
C6    C     C_3   0.948536 0.791900 0.607248 0.527347
C7    C     C_3   0.458413 0.708869 0.078892 0.512995
C8    C     C_3   0.449264 0.292416 0.597937 0.541643
H13   H     H_    0.932178 0.242009 0.974159 0.170745
H14   H     H_    0.906868 0.761665 0.516333 0.141693
H15   H     H_    0.428931 0.745352 0.981388 0.172712
H16   H     H_    0.407837 0.261659 0.507840 0.143488
H17   H     H_    0.958851 0.228793 0.193580 0.027855
H18   H     H_    0.962798 0.763512 0.725098 0.019817
H19   H     H_    0.459369 0.731628 0.201149 0.027857
H20   H     H_    0.463118 0.265383 0.717335 0.016018
C9    C     C_3   0.915328 0.140406 0.052062 -1.055909
C10   C     C_3   0.909262 0.861157 0.635824 -1.068995
C11   C     C_3   0.410410 0.644552 0.060872 -1.067972
C12   C     C_3   0.410144 0.362130 0.622223 -1.076630
H21   H     H_    0.347548 0.659111 0.043499 0.243950
H22   H     H_    0.345823 0.358816 0.592647 0.247815
H23   H     H_    0.852917 0.152663 0.051973 0.239652
H24   H     H_    0.844897 0.858067 0.604631 0.248581
H25   H     H_    0.920262 0.115245 0.934937 0.289065
H26   H     H_    0.926359 0.901320 0.557951 0.294004
H27   H     H_    0.419838 0.614610 0.952700 0.293975
H28   H     H_    0.426971 0.401029 0.540902 0.295580
C13   C     C_3   0.265957 0.490135 0.354129 0.556825
C14   C     C_3   0.260521 0.511429 0.845507 0.558820
C15   C     C_3   0.766459 0.990721 0.356778 0.552488
C16   C     C_3   0.761184 0.010450 0.847038 0.554210
H29   H     H_    0.217105 0.491373 0.419483 0.120566
H30   H     H_    0.211639 0.511813 0.910829 0.117738
H31   H     H_    0.717711 0.992394 0.422315 0.122168
H32   H     H_    0.712208 0.010909 0.912098 0.119038
C17   C     C_3   0.340613 0.520101 0.458019 -0.968447
C18   C     C_3   0.338020 0.486835 0.955927 -0.970084
C19   C     C_3   0.841112 0.021420 0.459216 -0.960029
C20   C     C_3   0.838399 0.985184 0.957865 -0.954542
H33   H     H_    0.356106 0.496606 0.580607 0.261671
H34   H     H_    0.353451 0.518895 0.066740 0.267069
H35   H     H_    0.856854 0.998482 0.582416 0.258215
H36   H     H_    0.833176 0.930691 0.995353 0.273907
H37   H     H_    0.390780 0.511939 0.396653 0.240396
H38   H     H_    0.386609 0.488857 0.889350 0.232196
H39   H     H_    0.891319 0.013169 0.397949 0.239893
H40   H     H_    0.853644 0.016955 0.069213 0.264606
H41   H     H_    0.331983 0.576672 0.474883 0.270672
H42   H     H_    0.333491 0.432364 0.994252 0.273528
H43   H     H_    0.832193 0.077974 0.474951 0.267610
H44   H     H_    0.887511 0.986911 0.892604 0.235371
Ba1   Ba    Ba6+2 0.000000 0.447380 0.844850 1.534264
Ba2   Ba    Ba6+2 0.000000 0.552620 0.344850 1.534350
Ba3   Ba    Ba6+2 0.500000 0.947380 0.844850 1.535660
Ba4   Ba    Ba6+2 0.500000 0.052620 0.344850 1.535396
C21   C     C_3   0.785223 0.546214 0.934505 0.364736
C22   C     C_3   0.779734 0.459570 0.435994 0.352808
C23   C     C_3   0.289223 0.046530 0.928627 0.363370
C24   C     C_3   0.276676 0.961186 0.434489 0.351747
H45   H     H_    0.814500 0.543760 0.829717 0.076294
H46   H     H_    0.794267 0.449233 0.316189 0.059353
H47   H     H_    0.322670 0.040021 0.830765 0.085686
H48   H     H_    0.290928 0.950367 0.314530 0.065868
H49   H     H_    0.827565 0.563715 0.044378 0.143571
H50   H     H_    0.829347 0.442773 0.536057 0.144022
H51   H     H_    0.329214 0.066082 0.039769 0.141812
H52   H     H_    0.326128 0.943812 0.534436 0.138965
C25   C     C_3   0.717049 0.600716 0.901586 -0.606063
C26   C     C_3   0.710172 0.419166 0.454612 -0.600819
C27   C     C_3   0.223756 0.102801 0.877096 -0.645899
C28   C     C_3   0.206446 0.921814 0.453056 -0.592429
H53   H     H_    0.704594 0.615770 0.771074 0.174056
H54   H     H_    0.666545 0.420248 0.339112 0.206650
H55   H     H_    0.212042 0.109664 0.743094 0.185009
H56   H     H_    0.162868 0.924457 0.338034 0.220986
H57   H     H_    0.734590 0.648064 0.974592 0.227834
H58   H     H_    0.729294 0.364065 0.482527 0.201728
H59   H     H_    0.242318 0.152608 0.936838 0.232186
H60   H     H_    0.224525 0.866371 0.479287 0.201909
O45   O     O_3   0.092100 0.536880 0.086720 -0.377490
O46   O     O_3   0.092100 0.463120 0.586720 -0.382572
O47   O     O_3   0.592100 0.036880 0.086720 -0.378121
O48   O     O_3   0.592100 0.963120 0.586720 -0.381910
P13   P     P_3+3 0.891043 0.727958 0.080452 0.432700
P14   P     P_3+3 0.897469 0.269154 0.577776 0.434713
P15   P     P_3+3 0.395000 0.231313 0.079721 0.439881
P16   P     P_3+3 0.395561 0.770584 0.579070 0.436206
C29   C     C_3   0.015962 0.188504 0.566488 0.510895
C30   C     C_3   0.006280 0.805080 0.119075 0.546156
C31   C     C_3   0.511702 0.684916 0.586053 0.509671
C32   C     C_3   0.508081 0.313512 0.110518 0.535580
H61   H     H_    0.014206 0.222078 0.458606 0.036631
H62   H     H_    0.014278 0.783087 0.000255 0.014622
H63   H     H_    0.515030 0.716400 0.477125 0.033776
H64   H     H_    0.510892 0.293960 0.986828 -0.000736
H65   H     H_    0.492221 0.594300 0.433114 0.276811
H66   H     H_    0.494364 0.419270 0.027000 0.279307
H67   H     H_    0.994772 0.098132 0.412287 0.275796
H68   H     H_    0.001698 0.908839 0.034292 0.288843
H69   H     H_    0.426806 0.612512 0.172414 0.253572
H70   H     H_    0.426635 0.379410 0.750882 0.252738
H71   H     H_    0.938771 0.104411 0.153889 0.255803
H72   H     H_    0.925649 0.876805 0.765655 0.254179
C33   C     C_R   0.134844 0.679989 0.922493 -0.453527
C34   C     C_R   0.137281 0.323947 0.420464 -0.470732
C35   C     C_R   0.635095 0.179867 0.921339 -0.446157
C36   C     C_R   0.637078 0.824107 0.418527 -0.469934
C37   C     C_R   0.852570 0.325155 0.265231 -0.532518
C38   C     C_R   0.854459 0.673095 0.767179 -0.544721
C39   C     C_R   0.351217 0.826130 0.266725 -0.534736
C40   C     C_R   0.359450 0.176049 0.765418 -0.531604
C41   C     C_R   0.782635 0.221310 0.305449 -0.193561
C42   C     C_R   0.781024 0.778932 0.806445 -0.173450
C43   C     C_R   0.281564 0.722036 0.307027 -0.186448
C44   C     C_R   0.285247 0.281822 0.805294 -0.183019
C45   C     C_R   0.838443 0.272004 0.365580 0.220822
C46   C     C_R   0.837479 0.726814 0.867077 0.209067
C47   C     C_R   0.337197 0.772883 0.366870 0.225390
C48   C     C_R   0.343424 0.230837 0.864615 0.196612
C49   C     C_R   0.808932 0.334708 0.106692 0.233265
C50   C     C_R   0.810644 0.664675 0.609035 0.253906
C51   C     C_R   0.307927 0.835399 0.107961 0.232719
C52   C     C_R   0.314532 0.166851 0.608112 0.250056
C53   C     C_R   0.749518 0.282405 0.043055 -0.019983
C54   C     C_R   0.750185 0.717304 0.545885 -0.056276
C55   C     C_R   0.248428 0.783133 0.044739 -0.024973
C56   C     C_R   0.254453 0.219956 0.545733 -0.053436
C57   C     C_R   0.236230 0.724336 0.145676 -0.053455
C58   C     C_R   0.239638 0.278506 0.645254 -0.060782
C59   C     C_R   0.737343 0.223621 0.143945 -0.052907
C60   C     C_R   0.736580 0.776601 0.645087 -0.071685
C61   C     C_R   0.180249 0.669753 0.080806 0.235476
C62   C     C_R   0.181429 0.332531 0.579467 0.260840
C63   C     C_R   0.680761 0.169438 0.079643 0.233628
C64   C     C_R   0.680318 0.831977 0.578591 0.260108
C65   C     C_R   0.145196 0.736171 0.823533 0.217928
C66   C     C_R   0.152330 0.268027 0.322479 0.233185
C67   C     C_R   0.645801 0.235793 0.821654 0.206949
C68   C     C_R   0.649566 0.766605 0.322345 0.237140
C69   C     C_R   0.202693 0.785939 0.883909 -0.245522
C70   C     C_R   0.211483 0.218119 0.384872 -0.248646
C71   C     C_R   0.703739 0.285242 0.882020 -0.246245
C72   C     C_R   0.704920 0.714050 0.386104 -0.222862
H73   H     H_    0.274024 0.681060 0.388315 0.180687
H74   H     H_    0.276923 0.323815 0.886099 0.186519
H75   H     H_    0.774683 0.180563 0.386836 0.180432
H76   H     H_    0.773731 0.821346 0.886860 0.187839
H77   H     H_    0.714456 0.325222 0.801506 0.181502
H78   H     H_    0.713821 0.671982 0.307461 0.174130
H79   H     H_    0.213170 0.826167 0.803727 0.182489
H80   H     H_    0.227925 0.180068 0.305396 0.181521
H81   H     H_    0.092685 0.641316 0.871736 0.164341
H82   H     H_    0.093147 0.363180 0.369119 0.172678
H83   H     H_    0.592595 0.141404 0.871020 0.163386
H84   H     H_    0.595107 0.864708 0.365480 0.173092
H85   H     H_    0.897607 0.361662 0.314591 0.164918
H86   H     H_    0.900667 0.635326 0.816829 0.170600
H87   H     H_    0.396049 0.862802 0.316229 0.165693
H88   H     H_    0.405032 0.137815 0.815465 0.169803
C73   C     C_3   0.640142 0.577002 0.939955 -0.263526
C74   C     C_3   0.649963 0.546946 0.112722 -0.100901
C75   C     C_3   0.577508 0.552684 0.185032 -0.944164
H89   H     H_    0.524295 0.541436 0.091064 0.286313
H90   H     H_    0.582382 0.515227 0.285863 0.256508
H91   H     H_    0.574273 0.603853 0.243023 0.299032
H92   H     H_    0.665905 0.491030 0.113860 0.206832
H93   H     H_    0.698098 0.573637 0.191710 0.235697
H94   H     H_    0.597703 0.620609 0.915654 0.257714
H95   H     H_    0.616772 0.538599 0.849238 0.206224
C76   C     C_3   0.674127 0.451900 0.592036 -0.329259
C77   C     C_3   0.602185 0.415657 0.607222 -0.215543
C78   C     C_3   0.582014 0.417583 0.774942 -0.981393
H96   H     H_    0.634256 0.424800 0.872894 0.286996
H97   H     H_    0.534973 0.457454 0.778829 0.263070
H98   H     H_    0.560125 0.366931 0.802110 0.274110
H99   H     H_    0.551125 0.433049 0.511388 0.219572
H100  H     H_    0.620980 0.363295 0.587621 0.274442
H101  H     H_    0.718728 0.444745 0.702001 0.269179
H102  H     H_    0.658201 0.507680 0.576211 0.235903
C79   C     C_3   0.146050 0.087367 0.919109 -0.256976
C80   C     C_3   0.152683 0.075521 0.101208 -0.076722
C81   C     C_3   0.089974 0.028992 0.130230 -0.989367
H103  H     H_    0.032285 0.041543 0.049185 0.291874
H104  H     H_    0.110640 0.977955 0.098998 0.283241
H105  H     H_    0.085214 0.030273 0.259873 0.281190
H106  H     H_    0.210559 0.052921 0.159731 0.241092
H107  H     H_    0.145639 0.123663 0.162968 0.216301
H108  H     H_    0.103721 0.130517 0.875854 0.235080
H109  H     H_    0.123685 0.042156 0.847789 0.228612
C82   C     C_3   0.171027 0.954961 0.590535 -0.332249
C83   C     C_3   0.100681 0.917236 0.610904 -0.211601
C84   C     C_3   0.081979 0.920744 0.779697 -1.004166
H110  H     H_    0.135487 0.926430 0.875408 0.295698
H111  H     H_    0.036903 0.962323 0.785136 0.268242
H112  H     H_    0.058547 0.870879 0.807979 0.280856
H113  H     H_    0.048571 0.932857 0.515476 0.222066
H114  H     H_    0.120314 0.864711 0.594442 0.274451
H115  H     H_    0.216846 0.950226 0.700134 0.266614
H116  H     H_    0.152950 0.010189 0.569338 0.234732
C85   C     C_1   0.280009 0.417807 0.310681 0.024011
N1    N     N_1   0.290802 0.361018 0.272840 -0.017162
C86   C     C_1   0.267078 0.581871 0.786284 0.015030
N2    N     N_1   0.272369 0.636883 0.735912 -0.023214
C87   C     C_1   0.781090 0.917995 0.317180 0.024344
N3    N     N_1   0.792350 0.860836 0.282676 -0.017927
C88   C     C_1   0.767963 0.081028 0.789027 0.009764
N4    N     N_1   0.773297 0.136177 0.739465 -0.025609

loop_
_geom_bond_atom_site_label_1
_geom_bond_atom_site_label_2
_geom_bond_distance
_ccdc_geom_bond_type
C43   H73   1.076023 S    
C15   H31   1.105095 S    
C12   H28   1.104461 S    
P1    O17   1.731972 S    
C49   C53   1.480302 A    
O16   P15   1.539043 D    
P12   O36   1.548026 D    
P12   C67   1.889864 S    
C20   H44   1.111089 S    
P3    O19   1.745027 S    
C76   C77   1.482825 S    
C34   H82   1.082072 S    
C35   C67   1.409506 A    
C79   H109  1.086460 S    
O44   C8    1.404476 S    
O6    Ba1   2.852313 S    
C33   H81   1.082049 S    
C28   H60   1.112302 S    
C9    H23   1.104012 S    
C37   C45   1.390824 A    
C81   H103  1.106178 S    
C27   C79   1.508304 S    
P8    C63   1.970847 S    
C27   H59   1.103263 S    
C79   C80   1.525728 S    
C43   C57   1.413770 A    
C7    H15   1.109564 S    
O11   Ba3   2.873123 S    
P12   O32   1.686287 S    
C18   H38   1.110781 S    
C10   H72   1.107164 S    
C38   H86   1.082340 S    
C32   H64   1.111260 S    
O38   C13   1.387878 S    
C25   H57   1.107883 S    
C28   C82   1.543899 S    
C23   H47   1.107702 S    
C23   H51   1.108802 S    
O37   C14   1.387995 S    
C55   C69   1.412834 A    
Ba1   O45   2.895967 S    
P3    O3    1.535551 D    
P15   C48   1.835741 S    
C24   H52   1.110229 S    
C84   H110  1.099859 S    
P4    O20   1.703944 S    
C54   C72   1.404174 A    
O18   C22   1.388319 S    
C39   C47   1.390468 A    
P13   C46   1.833302 S    
C22   H46   1.102783 S    
O23   C31   1.403532 S    
C86   N2    1.156586 T    
C11   H69   1.104846 S    
O1    Ba1   2.946066 S    
O24   C32   1.399636 S    
P9    O29   1.711249 S    
Ba1   O46   2.980275 S    
P4    Ba4   3.456019 S    
C76   H101  1.077692 S    
P5    O46   1.596982 S    
C42   C46   1.399711 A    
P7    O39   1.738711 S    
O32   Ba4   2.872570 S    
P4    C52   1.922468 S    
C25   H53   1.108729 S    
C82   H116  1.102991 S    
C40   C48   1.395363 A    
P7    O48   1.596982 S    
P5    O37   1.738523 S    
C27   H55   1.107023 S    
P6    C61   1.969122 S    
C54   C60   1.449535 A    
C36   C68   1.402425 A    
C88   N4    1.156533 T    
P3    Ba3   3.489174 S    
P5    C62   1.913808 S    
C14   H30   1.106226 S    
C11   H27   1.109664 S    
P2    O18   1.702670 S    
O24   P15   1.735816 S    
O41   C5    1.401327 S    
O23   P16   1.741080 S    
P4    O8    1.591747 S    
C10   H26   1.104210 S    
C8    C12   1.516119 S    
O28   Ba4   2.950041 S    
P11   O35   1.547777 D    
P4    O4    1.545566 D    
C82   H115  1.082920 S    
C56   C70   1.396824 A    
C73   H95   1.081128 S    
C28   H56   1.092836 S    
O26   Ba2   2.950041 S    
C16   C20   1.528731 S    
P5    O25   1.544867 D    
C36   C64   1.401612 A    
C2    H10   1.105927 S    
P9    O41   1.746998 S    
C85   N1    1.155868 T    
C18   H42   1.108918 S    
O17   C21   1.401011 S    
C77   H100  1.071177 S    
O15   P16   1.542799 D    
C17   H41   1.105820 S    
P2    O2    1.545566 D    
C9    H25   1.110361 S    
C6    H18   1.110110 S    
C2    H68   1.108254 S    
O13   P14   1.545014 D    
C24   H48   1.103548 S    
C19   H43   1.104804 S    
P11   O43   1.738283 S    
C1    C29   1.512216 S    
C87   N3    1.155988 T    
C50   C54   1.453705 A    
C51   C55   1.480041 A    
P2    Ba2   3.456019 S    
O31   Ba3   2.871206 S    
C71   H77   1.074585 S    
P14   C45   1.855595 S    
O27   Ba3   2.886467 S    
C8    H20   1.108573 S    
O30   Ba2   2.872570 S    
C37   C49   1.393695 A    
C16   C88   1.463073 S    
P10   O30   1.688952 S    
Ba2   O45   2.965832 S    
P2    C50   1.908923 S    
Ba3   Ba4   4.672921 S    
P3    O7    1.629139 S    
C1    H9    1.105261 S    
C56   C58   1.445707 A    
C26   H54   1.095706 S    
C70   H80   1.059371 S    
O3    Ba3   2.946066 S    
C84   H111  1.109475 S    
C4    C32   1.499715 S    
P11   C68   1.852194 S    
O4    Ba4   2.883130 S    
C33   C61   1.404412 A    
H1    C29   1.109973 S    
C12   H70   1.107207 S    
P5    Ba1   3.458031 S    
C80   C81   1.494864 S    
C53   C59   1.465885 A    
C67   C71   1.419859 A    
O29   Ba1   2.871206 S    
C40   H88   1.082080 S    
C39   H87   1.082772 S    
C6    C10   1.518193 S    
C20   H36   1.109180 S    
C76   H102  1.101370 S    
C78   H97   1.108850 S    
C69   H79   1.074820 S    
C13   C85   1.461623 S    
O42   C6    1.406166 S    
C73   C74   1.538095 S    
P12   O44   1.752462 S    
C38   C46   1.389090 A    
C43   C47   1.411988 A    
C60   C64   1.453398 A    
C84   H112  1.101900 S    
O9    Ba1   2.873123 S    
C66   C70   1.403019 A    
C13   H29   1.105708 S    
C44   H74   1.076401 S    
C52   C56   1.454430 A    
C34   C62   1.401258 A    
C65   C69   1.419103 A    
C68   C72   1.400278 A    
C19   H39   1.111392 S    
P6    O26   1.534861 D    
O12   P15   1.744331 S    
C4    H66   1.105636 S    
O5    Ba2   2.896019 S    
Ba1   Ba2   4.672921 S    
P1    O5    1.629139 S    
C26   C76   1.546385 S    
C41   H75   1.075359 S    
C1    H7    1.109307 S    
P8    O40   1.741382 S    
C57   C61   1.476563 A    
C5    C9    1.502938 S    
O11   P16   1.767973 S    
O14   P13   1.540873 D    
O39   C16   1.388247 S    
C5    H17   1.106402 S    
C58   C62   1.453308 A    
C2    C30   1.472879 S    
C25   C73   1.527047 S    
C81   H104  1.083966 S    
C12   H22   1.097772 S    
C44   C58   1.408197 A    
C11   H21   1.099767 S    
O10   P13   1.753087 S    
C40   C52   1.395782 A    
C77   H99   1.107873 S    
P10   O34   1.548615 D    
P1    O1    1.535551 D    
C4    H12   1.103890 S    
P11   O31   1.706656 S    
O2    Ba2   2.883130 S    
C83   H114  1.073342 S    
C82   C83   1.485392 S    
C41   C59   1.414594 A    
C29   H61   1.110768 S    
C3    H11   1.105729 S    
P7    O27   1.544867 D    
C18   H34   1.100752 S    
P16   C47   1.851475 S    
C17   H37   1.111125 S    
C80   H106  1.099122 S    
H2    C30   1.109526 S    
C17   H33   1.102584 S    
Ba3   O48   2.980275 S    
C22   C26   1.496875 S    
C41   C45   1.412315 A    
C36   H84   1.082041 S    
C80   H107  1.073857 S    
C3    H5    1.105846 S    
O21   P14   1.744656 S    
C19   H35   1.102933 S    
C13   C17   1.529010 S    
Ba4   O47   2.965832 S    
Ba3   O47   2.895967 S    
P6    Ba2   3.491930 S    
C8    H16   1.108730 S    
C79   H108  1.101756 S    
C83   C84   1.519990 S    
C81   H105  1.108390 S    
C59   C63   1.476278 A    
P8    Ba4   3.491930 S    
C74   H92   1.101664 S    
C33   C65   1.407773 A    
C42   H76   1.076079 S    
C24   C28   1.495920 S    
P6    O38   1.738263 S    
P7    Ba3   3.458031 S    
P8    O28   1.534861 D    
C14   C86   1.463614 S    
C15   C19   1.530036 S    
O19   C23   1.409902 S    
C21   H49   1.107703 S    
C14   C18   1.527213 S    
C78   H98   1.101021 S    
C21   C25   1.538308 S    
C74   H93   1.091021 S    
C20   H40   1.100930 S    
C16   H32   1.106188 S    
C4    H6    1.104672 S    
O12   Ba4   2.871707 S    
O40   C15   1.389639 S    
C35   C63   1.406459 A    
C74   C75   1.512800 S    
O25   Ba1   2.886467 S    
O43   C7    1.404002 S    
C15   C87   1.462170 S    
P9    O33   1.548256 D    
C7    H19   1.109018 S    
P10   O42   1.751435 S    
O8    Ba3   2.852313 S    
C72   H78   1.068218 S    
C26   H58   1.112102 S    
C78   H96   1.099276 S    
C38   C50   1.392830 A    
C42   C60   1.409371 A    
C77   C78   1.521357 S    
C3    H65   1.103921 S    
C1    H67   1.102173 S    
P7    C64   1.922530 S    
O22   C30   1.394982 S    
C75   H91   1.099634 S    
C31   H63   1.113330 S    
Ba4   O48   2.852246 S    
P3    C51   1.954420 S    
P1    Ba1   3.489174 S    
O9    P14   1.763387 S    
Ba2   O46   2.852246 S    
C3    C31   1.508231 S    
C53   C71   1.414555 A    
C30   H62   1.113909 S    
O21   C29   1.408154 S    
C37   H85   1.082729 S    
C9    H71   1.103505 S    
P10   C65   1.883769 S    
C44   C48   1.400733 A    
P6    O45   1.634802 S    
C39   C51   1.392601 A    
P9    C66   1.858582 S    
C22   H50   1.109425 S    
C5    H13   1.108286 S    
C75   H90   1.103351 S    
C21   H45   1.106555 S    
C6    H14   1.109157 S    
P8    O47   1.634802 S    
C75   H89   1.106558 S    
O20   C24   1.388995 S    
O10   Ba2   2.871707 S    
C35   H83   1.081988 S    
C2    H8    1.109491 S    
O22   P13   1.727852 S    
C10   H24   1.098321 S    
O7    Ba4   2.896019 S    
H4    C32   1.110599 S    
C83   H113  1.108742 S    
C73   H94   1.090206 S    
C23   C27   1.540436 S    
H3    C31   1.110896 S    
C7    C11   1.504577 S    
P1    C49   1.954124 S    
C34   C66   1.400306 A    
C55   C57   1.466452 A    
P2    O6    1.591747 S    
