data_mof_unit_51229.cif
_audit_creation_date              2012-12-10T18:47:46-0500
_audit_creation_method            fapswitch 2.2
_symmetry_space_group_name_H-M    P1
_symmetry_Int_Tables_number       1
_space_group_crystal_system       triclinic
_cell_length_a                    9.859322
_cell_length_b                    10.709738
_cell_length_c                    15.417766
_cell_angle_alpha                 90.017143
_cell_angle_beta                  66.992845
_cell_angle_gamma                 90.072892
_cell_volume                      1498.47686891

loop_
_atom_site_label
_atom_site_type_symbol
_atom_type_description
_atom_site_fract_x
_atom_site_fract_y
_atom_site_fract_z
_atom_type_partial_charge
C1    C     C_R   0.500113 0.740073 0.499982 0.867066
C2    C     C_R   0.499958 0.259942 0.499936 0.879400
C3    C     C_R   0.309692 0.497428 0.115011 -0.028959
C4    C     C_R   0.607212 0.331736 0.919963 -0.047733
C5    C     C_R   0.209620 0.519878 0.073063 -0.227168
C6    C     C_R   0.709888 0.311599 0.960120 -0.222601
C7    C     C_R   0.605795 0.936249 0.522443 -0.164694
C8    C     C_R   0.394528 0.063819 0.477266 -0.160721
C9    C     C_R   0.605691 0.064179 0.522469 -0.150955
C10   C     C_R   0.394577 0.935892 0.477299 -0.173419
C11   C     C_R   0.500030 0.127504 0.499889 -0.008559
C12   C     C_R   0.500211 0.872549 0.499890 -0.015180
C13   C     C_R   0.941217 0.394178 0.478570 -0.068101
C14   C     C_R   0.056851 0.604670 0.524747 -0.114212
C15   C     C_R   0.085004 0.394340 0.478167 0.020793
C16   C     C_R   0.913389 0.604747 0.524413 -0.069562
C17   C     C_R   0.406500 0.499794 0.677031 0.881595
C18   C     C_R   0.593297 0.495672 0.323054 0.879844
C19   C     C_R   0.343258 0.495297 0.780743 -0.144437
C20   C     C_R   0.653211 0.469496 0.221053 -0.139014
C21   C     C_R   0.151255 0.532680 0.935263 -0.225814
C22   C     C_R   0.793110 0.339720 0.086547 -0.233630
C23   C     C_R   0.194194 0.524149 0.837578 -0.016357
C24   C     C_R   0.769577 0.383745 0.176817 -0.043211
C25   C     C_R   0.439202 0.463713 0.824143 -0.185396
C26   C     C_R   0.566661 0.508138 0.172884 -0.186617
C27   C     C_R   0.391067 0.455920 0.921926 0.123577
C28   C     C_R   0.569684 0.443499 0.093126 0.117653
C29   C     C_R   0.250246 0.502958 0.976998 0.110925
C30   C     C_R   0.692745 0.366903 0.045397 0.116335
C31   C     C_R   0.485290 0.413470 0.965537 -0.015715
C32   C     C_R   0.455091 0.453648 0.059142 -0.021781
H1    H     H_    0.897968 0.309330 0.461129 0.134583
H2    H     H_    0.098897 0.688639 0.544341 0.152546
H3    H     H_    0.149950 0.309884 0.459779 0.141852
H4    H     H_    0.847757 0.688777 0.543785 0.139089
N1    N     N_R   0.142780 0.500030 0.500020 -0.076045
N2    N     N_R   0.857220 0.499970 0.499980 -0.068706
O1    O     O_R   0.385370 0.683250 0.500010 -0.635289
O2    O     O_R   0.614630 0.316750 0.499990 -0.630703
O3    O     O_R   0.614700 0.683220 0.500000 -0.626486
O4    O     O_R   0.385300 0.316780 0.500000 -0.620927
O5    O     O_R   0.319830 0.500020 0.632250 -0.573276
O6    O     O_R   0.680170 0.499980 0.367750 -0.559493
O7    O     O_R   0.549160 0.499990 0.632240 -0.613875
O8    O     O_R   0.450840 0.500010 0.367760 -0.575750
Zn1   Zn    Zn3+2 0.346870 0.500020 0.500000 1.001521
Zn2   Zn    Zn3+2 0.653130 0.499980 0.500000 0.988787
H5    H     H_    0.099097 0.551935 0.115624 0.204147
H6    H     H_    0.801175 0.248128 0.926452 0.197178
H7    H     H_    0.489455 0.583267 0.202818 0.151151
H8    H     H_    0.554319 0.448474 0.781003 0.159999
C33   C     C_2   0.860818 0.329273 0.223754 0.901055
O9    O     O_2   0.877092 0.216026 0.223381 -0.613273
O10   O     O_R   0.933997 0.406266 0.264244 -0.778033
H9    H     H_    0.995295 0.356359 0.291351 0.347098
C34   C     C_2   0.080873 0.548473 0.799146 0.921120
O11   O     O_2   0.015203 0.648070 0.815213 -0.625055
O12   O     O_R   0.043167 0.454947 0.749261 -0.755880
H10   H     H_    0.961959 0.481706 0.728430 0.346190
H11   H     H_    0.039901 0.561705 0.978936 0.163613
H12   H     H_    0.884509 0.277029 0.051069 0.175209
C35   C     C_2   0.247963 0.504668 0.218844 0.910093
O13   O     O_2   0.269521 0.420117 0.265167 -0.637178
O14   O     O_R   0.160523 0.606802 0.263554 -0.779061
H13   H     H_    0.123853 0.601746 0.334473 0.349768
C36   C     C_2   0.619570 0.249358 0.839586 0.896352
O15   O     O_2   0.508985 0.203859 0.834600 -0.606778
O16   O     O_R   0.758476 0.220715 0.771070 -0.792663
H14   H     H_    0.752744 0.163741 0.720072 0.340689
H15   H     H_    0.687226 0.887612 0.540748 0.149492
H16   H     H_    0.313119 0.112464 0.458943 0.155616
H17   H     H_    0.687059 0.113120 0.540817 0.150075
H18   H     H_    0.313127 0.886953 0.459037 0.157896

loop_
_geom_bond_atom_site_label_1
_geom_bond_atom_site_label_2
_ccdc_geom_bond_type
C14   H2    S    
C4    C36   S    
C19   C23   A    
O10   H9    S    
C35   O14   S    
C2    O2    A    
C13   H1    S    
C14   C16   A    
C18   O6    A    
C22   H12   S    
C10   H18   S    
C21   H11   S    
C31   C32   A    
C13   C15   A    
C3    C5    A    
O16   H14   S    
C7    C9    A    
C20   C24   A    
C28   C30   A    
N1    Zn1   S    
C34   O11   D    
C25   H8    S    
O12   H10   S    
C26   H7    S    
C16   H4    S    
C14   N1    A    
C9    C11   A    
C5    H5    S    
C13   N2    A    
C7    C12   A    
C1    C12   S    
C20   C26   A    
C2    O4    A    
C8    C11   A    
C2    C11   S    
C10   C12   A    
C15   H3    S    
C26   C28   A    
C6    C30   A    
O3    Zn2   S    
C17   O7    A    
O5    Zn1   S    
C3    C35   S    
O4    Zn1   S    
C33   O10   S    
C21   C23   A    
C7    H15   S    
C3    C32   A    
C19   C25   A    
C22   C24   A    
C34   O12   S    
C4    C31   A    
C8    H16   S    
C1    O1    A    
C27   C31   A    
C36   O15   D    
C5    C29   A    
C18   O8    A    
C28   C32   A    
N2    Zn2   S    
C27   C29   A    
C18   C20   S    
C4    C6    A    
O14   H13   S    
O7    Zn2   S    
C1    O3    A    
C17   O5    A    
C23   C34   S    
O2    Zn2   S    
O8    Zn1   S    
C15   N1    A    
C22   C30   A    
C17   C19   S    
C24   C33   S    
C33   O9    D    
O1    Zn1   S    
C21   C29   A    
C9    H17   S    
C8    C10   A    
C6    H6    S    
O6    Zn2   S    
C16   N2    A    
C35   O13   D    
C36   O16   S    
C25   C27   A    
