data_mof_unit_10933.cif
_audit_creation_date              2013-03-05T15:57:19-0500
_audit_creation_method            fapswitch 2.2
_symmetry_space_group_name_H-M    P1
_symmetry_Int_Tables_number       1
_space_group_crystal_system       triclinic
_cell_length_a                    7.278352
_cell_length_b                    17.332566
_cell_length_c                    18.764913
_cell_angle_alpha                 105.384857
_cell_angle_beta                  88.650643
_cell_angle_gamma                 89.760909
_cell_volume                      2281.64596441

loop_
_atom_site_label
_atom_site_type_symbol
_atom_site_description
_atom_site_fract_x
_atom_site_fract_y
_atom_site_fract_z
_atom_type_partial_charge
O1    O     O_R   0.505770 0.442340 0.559500 -0.570547
O2    O     O_R   0.168070 0.405470 0.411510 -0.519483
O3    O     O_R   0.005580 0.557660 0.440500 -0.568476
C1    C     C_R   0.341498 0.375349 0.391561 1.090650
O4    O     O_R   0.175550 0.432860 0.557160 -0.560330
O5    O     O_R   0.013110 0.585240 0.587190 -0.538115
C2    C     C_R   0.343385 0.416291 0.579827 1.001102
O6    O     O_R   0.498240 0.414760 0.412810 -0.537956
O7    O     O_3   0.341770 0.549960 0.509680 -0.215798
V1    V     V_3+5 0.063870 0.490730 0.498200 1.374802
O8    O     O_R   0.683850 0.594530 0.588490 -0.531727
C3    C     C_R   0.851677 0.619605 0.615174 1.005014
O9    O     O_R   0.676380 0.567140 0.442840 -0.547560
C4    C     C_R   0.845541 0.583540 0.420082 0.980863
V2    V     V_3+5 0.564820 0.509270 0.501800 1.387287
O10   O     O_3   0.836790 0.450040 0.490320 -0.217347
C5    C     C_1   0.857195 0.635337 0.367530 -0.164420
C6    C     C_1   0.868255 0.677706 0.323458 0.147290
C7    C     C_1   0.882105 0.727623 0.270979 0.075268
C8    C     C_1   0.893950 0.769700 0.226669 0.070345
C9    C     C_1   0.907828 0.819717 0.174287 0.127900
C10   C     C_1   0.919012 0.862404 0.130503 -0.180889
C11   C     C_3   0.739473 0.840386 0.762686 0.534491
C12   C     C_3   0.763183 0.774228 0.684865 -0.006371
H1    H     H_    0.838936 0.806015 0.653010 0.197830
H2    H     H_    0.745730 0.750297 0.871070 0.160475
H3    H     H_    0.654621 0.663884 0.754792 0.246293
C13   C     C_3   0.860237 0.738880 0.830043 0.124602
C14   C     C_3   0.093894 0.799997 0.757391 0.139232
C15   C     C_3   0.909831 0.819937 0.808987 -0.592874
H4    H     H_    0.198149 0.790024 0.794627 0.238635
C16   C     C_3   0.871189 0.693869 0.685708 -0.441476
C17   C     C_3   0.803265 0.673138 0.758284 -0.333684
C18   C     C_3   0.081150 0.716580 0.692485 0.494695
H5    H     H_    0.835969 0.613058 0.762624 0.230338
C19   C     C_3   0.577044 0.267244 0.314766 0.500998
C20   C     C_3   0.584067 0.191253 0.239773 -0.045931
H6    H     H_    0.686828 0.205129 0.202589 0.262072
C21   C     C_3   0.310718 0.327480 0.252635 0.000917
C22   C     C_3   0.265635 0.216330 0.323076 0.043574
C23   C     C_3   0.370617 0.299502 0.323165 -0.608979
H7    H     H_    0.361952 0.176540 0.336146 0.186818
C24   C     C_3   0.402446 0.181246 0.190892 -0.705739
C25   C     C_3   0.349684 0.265912 0.173217 0.456863
C26   C     C_3   0.238424 0.158554 0.242628 0.484227
H8    H     H_    0.160621 0.327221 0.262655 0.203861
C27   C     C_1   0.351993 0.365037 0.633023 -0.212234
C28   C     C_1   0.363671 0.323454 0.677746 0.111219
C29   C     C_1   0.379938 0.274579 0.731071 0.059545
C30   C     C_1   0.394229 0.233314 0.775965 0.061262
C31   C     C_1   0.410800 0.183806 0.828726 0.087700
C32   C     C_1   0.423196 0.140645 0.872072 -0.179522
O11   O     O_R   0.278700 0.085270 0.087180 -0.536829
O12   O     O_R   0.601470 0.067150 0.942830 -0.564964
O13   O     O_R   0.763830 0.914750 0.912810 -0.586374
C33   C     C_R   0.433080 0.085849 0.922152 1.072849
O14   O     O_R   0.608870 0.094540 0.088490 -0.528272
O15   O     O_R   0.771290 0.942340 0.059510 -0.563277
C34   C     C_R   0.435199 0.115780 0.116498 1.183252
O16   O     O_R   0.271240 0.057690 0.940480 -0.541544
O17   O     O_3   0.435150 0.950050 0.990310 -0.256001
V3    V     V_3+5 0.713080 0.009270 0.001800 1.361502
O18   O     O_R   0.100490 0.932820 0.057180 -0.557979
C35   C     C_R   0.931124 0.915252 0.078852 1.028852
O19   O     O_R   0.093090 0.905430 0.911530 -0.513576
C36   C     C_R   0.926126 0.886546 0.881990 1.091437
V4    V     V_3+5 0.212120 0.990690 0.998230 1.393753
O20   O     O_3   0.940180 0.049940 0.009690 -0.236111
N1    N     N_R   0.561874 0.836371 0.804175 0.255737
O21   O     O_R   0.498518 0.771495 0.815865 -0.398282
O22   O     O_R   0.479703 0.900810 0.843142 -0.263659
S1    S     S_3+6 0.210297 0.628586 0.715615 0.025279
O23   O     O_2   0.092345 0.557131 0.713093 -0.339675
O24   O     O_2   0.362723 0.594477 0.661278 -0.232342
O25   O     O_3   0.304280 0.651882 0.799036 -0.436602
H9    H     H_    0.364199 0.601916 0.803293 0.377032
N2    N     N_R   0.001017 0.707983 0.870697 0.272794
O26   O     O_R   0.976284 0.638090 0.882733 -0.321101
O27   O     O_R   0.112371 0.756262 0.913857 -0.369792
N3    N     N_R   0.704971 0.330608 0.304496 0.272023
O28   O     O_R   0.734851 0.343070 0.240264 -0.264314
O29   O     O_R   0.819312 0.364050 0.355083 -0.253352
S2    S     S_3+6 0.637416 0.240975 0.404473 0.061167
O30   O     O_2   0.482238 0.211093 0.443906 -0.293114
O31   O     O_2   0.784949 0.178443 0.390439 -0.120919
O32   O     O_3   0.711810 0.318161 0.469912 -0.454045
H10   H     H_    0.741759 0.296300 0.512054 0.366539
N4    N     N_R   0.646270 0.112939 0.250625 0.302041
O33   O     O_R   0.729974 0.061293 0.197065 -0.275238
O34   O     O_R   0.593493 0.085966 0.305788 -0.232988
N5    N     N_R   0.342748 0.412326 0.254418 0.278046
O35   O     O_R   0.484069 0.451742 0.285575 -0.323995
O36   O     O_R   0.215923 0.452148 0.231105 -0.287802
S3    S     S_3+6 0.521005 0.298153 0.111332 0.063159
O37   O     O_2   0.443759 0.285068 0.035438 -0.285437
O38   O     O_2   0.562240 0.385839 0.137013 -0.124704
O39   O     O_3   0.721248 0.247153 0.098960 -0.476981
H11   H     H_    0.773755 0.252376 0.051301 0.398566
N6    N     N_R   0.128560 0.216036 0.381971 0.308245
O40   O     O_R   0.048976 0.281138 0.419613 -0.294612
O41   O     O_R   0.125941 0.156228 0.411869 -0.219183
S4    S     S_3+6 0.732714 0.942795 0.744638 0.070306
O42   O     O_2   0.871043 0.998291 0.787636 -0.287646
O43   O     O_2   0.753506 0.937452 0.663429 -0.195807
O44   O     O_3   0.536351 0.994043 0.768603 -0.486943
H12   H     H_    0.530270 0.031260 0.736706 0.367753
S5    S     S_3+6 0.233607 0.050758 0.243406 0.063469
O45   O     O_2   0.273173 0.037831 0.317587 -0.161308
O46   O     O_2   0.045886 0.018224 0.224979 -0.238738
O47   O     O_3   0.381555 0.992816 0.181561 -0.533770
H13   H     H_    0.356642 0.937371 0.183848 0.364565
N7    N     N_R   0.058001 0.175497 0.218392 0.236731
O48   O     O_R   0.992618 0.135698 0.155735 -0.279177
O49   O     O_R   0.950729 0.224363 0.264454 -0.406890
N8    N     N_R   0.177228 0.261415 0.130532 0.258524
O50   O     O_R   0.061471 0.321346 0.145421 -0.249786
O51   O     O_R   0.163483 0.211149 0.065729 -0.347457
N9    N     N_R   0.598243 0.755967 0.646312 0.289245
O52   O     O_R   0.468295 0.730193 0.680109 -0.305863
O53   O     O_R   0.578856 0.764929 0.580096 -0.276041
S6    S     S_3+6 0.182937 0.886178 0.727109 0.092424
O54   O     O_2   0.369805 0.870106 0.693578 -0.155031
O55   O     O_2   0.077282 0.908763 0.668606 -0.166315
O56   O     O_3   0.196286 0.966470 0.799885 -0.462750
H14   H     H_    0.201961 0.013081 0.778699 0.376697
N10   N     N_R   0.149364 0.727357 0.618319 0.255266
O57   O     O_R   0.274317 0.681478 0.579174 -0.227768
O58   O     O_R   0.067338 0.770638 0.581645 -0.359606

loop_
_geom_bond_atom_site_label_1
_geom_bond_atom_site_label_2
_geom_bond_distance
_ccdc_geom_bond_type
O15   V3    1.839040 S    
N10   O57   1.285141 A    
C11   N1    1.504653 S    
C20   N4    1.494917 S    
C7    C8    1.244827 T    
C1    O6    1.345547 A    
C22   N6    1.472375 S    
N7    O49   1.283858 A    
O39   H11   0.990555 S    
O11   C34   1.326630 A    
C26   N7    1.453718 S    
O14   V3    2.015620 S    
C21   C23   1.594611 S    
N2    O26   1.302316 A    
H3    C17   1.095313 S    
C20   H6    1.081700 S    
S2    O30   1.503437 D    
C19   C20   1.652357 S    
O5    C3    1.345437 A    
O14   C34   1.368105 A    
C11   S4    1.893878 S    
C1    C23   1.584299 S    
C19   S2    1.916735 S    
V2    O10   2.205524 S    
O13   V3    2.030571 S    
S4    O44   1.667644 S    
C6    C7    1.475329 S    
N1    O22   1.296259 A    
N9    O52   1.273550 A    
S6    O56   1.676337 S    
S4    O42   1.491454 D    
O47   H13   0.990562 S    
O8    V2    2.093356 S    
N6    O40   1.288437 A    
O16   V4    1.832490 S    
O19   V4    2.093468 S    
C14   S6    1.848037 S    
C11   C12   1.604724 S    
O1    V2    1.830713 S    
O7    V1    2.260966 S    
C24   C34   1.560357 S    
S3    O38   1.501387 D    
C22   H7    1.058795 S    
O9    C4    1.349683 A    
C3    C16   1.592243 S    
S5    O46   1.493166 D    
C4    C5    1.500692 S    
C19   C23   1.590560 S    
N1    O21   1.286712 A    
S1    O25   1.672956 S    
C21   N5    1.481649 S    
N7    O48   1.297485 A    
C30   C31   1.478723 S    
O12   C33   1.357765 A    
N2    O27   1.300005 A    
O15   C35   1.345829 A    
C22   C26   1.592022 S    
O18   V4    1.855552 S    
V4    O20   2.205498 S    
C11   C15   1.621226 S    
C12   H1    1.061411 S    
C25   N8    1.496066 S    
S1    O24   1.497111 D    
C19   N3    1.490855 S    
N5    O35   1.299529 A    
O4    C2    1.357183 A    
O32   H10   0.991395 S    
S1    O23   1.500933 D    
O12   V3    1.874932 S    
S3    O39   1.680427 S    
N8    O51   1.300792 A    
C14   C18   1.629273 S    
C33   O16   1.348625 A    
C16   C18   1.579256 S    
C20   C24   1.610424 S    
O2    C1    1.369149 A    
O25   H9    0.990846 S    
C12   C16   1.600413 S    
C14   C15   1.615263 S    
N5    O36   1.301444 A    
O17   V4    1.754104 S    
C27   C28   1.246904 T    
C18   N10   1.524606 S    
C5    C6    1.244717 T    
S3    O37   1.504368 D    
C8    C9    1.475161 S    
S4    O43   1.505947 D    
C13   N2    1.472298 S    
C24   C26   1.635331 S    
S6    O54   1.478810 D    
C15   C36   1.546995 S    
O3    C4    1.346353 A    
C21   H8    1.104380 S    
N3    O29   1.295735 A    
C28   C29   1.479002 S    
N6    O41   1.303050 A    
N4    O34   1.295053 A    
C13   C17   1.581029 S    
C29   C30   1.247107 T    
O6    V2    2.073654 S    
O9    V2    1.855470 S    
C24   C25   1.634182 S    
S5    O47   1.681841 S    
S5    O45   1.501544 D    
O2    V1    2.015500 S    
C18   S1    1.938179 S    
O13   C36   1.334835 A    
C22   C23   1.634003 S    
N10   O58   1.297042 A    
S2    O31   1.490846 D    
O1    C2    1.349374 A    
C12   N9    1.409713 S    
N3    O28   1.293419 A    
O5    V1    2.030484 S    
O8    C3    1.359948 A    
C21   C25   1.604319 S    
O44   H12   0.991063 S    
H2    C13   1.101831 S    
V3    O20   1.793551 S    
C16   C17   1.567702 S    
C13   C15   1.597583 S    
O7    V2    1.754596 S    
C31   C32   1.247049 T    
C14   H4    1.087134 S    
O3    V1    1.839037 S    
V1    O10   1.793545 S    
C32   C33   1.505498 S    
C17   H5    1.091560 S    
O17   V3    2.261086 S    
O11   V4    2.073903 S    
N9    O53   1.303232 A    
S6    O55   1.488296 D    
C25   S3    1.870194 S    
C10   C35   1.501306 S    
O18   C35   1.350144 A    
C26   S5    1.872766 S    
O4    V1    1.874901 S    
S2    O32   1.660275 S    
N4    O33   1.292998 A    
O19   C36   1.352751 A    
C9    C10   1.244582 T    
N8    O50   1.301744 A    
C2    C27   1.504193 S    
O56   H14   0.991150 S    
