data_mof_unit_24506.cif
_audit_creation_date              2012-12-10T17:00:04-0500
_audit_creation_method            fapswitch 2.2
_symmetry_space_group_name_H-M    P1
_symmetry_Int_Tables_number       1
_space_group_crystal_system       triclinic
_cell_length_a                    23.524278
_cell_length_b                    10.929364
_cell_length_c                    9.694101
_cell_angle_alpha                 91.320248
_cell_angle_beta                  90.325849
_cell_angle_gamma                 89.953238
_cell_volume                      2491.70314558

loop_
_atom_site_label
_atom_site_type_symbol
_atom_type_description
_atom_site_fract_x
_atom_site_fract_y
_atom_site_fract_z
_atom_type_partial_charge
C1    C     C_R   0.498980 0.264820 0.497840 0.826684
C2    C     C_R   0.969549 0.328503 0.336740 -0.151460
C3    C     C_R   0.028857 0.327219 0.337837 -0.155383
C4    C     C_R   0.059460 0.414333 0.416979 -0.014549
C5    C     C_R   0.029863 0.503270 0.495744 -0.014348
C6    C     C_R   0.060112 0.591207 0.575145 -0.015200
C7    C     C_R   0.030166 0.679203 0.653843 -0.154941
C8    C     C_R   0.970862 0.679747 0.653921 -0.147873
C9    C     C_R   0.119098 0.414672 0.419863 0.535528
C10   C     C_R   0.119732 0.588963 0.573419 0.536397
C11   C     C_R   0.238914 0.519661 0.375262 -0.097092
C12   C     C_R   0.390958 0.499898 0.499683 0.790712
C13   C     C_R   0.298180 0.518897 0.375708 -0.220197
C14   C     C_R   0.328383 0.499839 0.498868 -0.036192
C15   C     C_R   0.298244 0.480883 0.621293 -0.214162
C16   C     C_R   0.238978 0.480745 0.620380 -0.098559
C17   C     C_R   0.209023 0.500460 0.497500 0.348103
C18   C     C_R   0.762783 0.428545 0.581508 -0.156356
C19   C     C_R   0.703478 0.425200 0.585633 0.020237
C20   C     C_R   0.671690 0.504304 0.500174 -0.143935
C21   C     C_R   0.700527 0.586455 0.413329 0.072767
C22   C     C_R   0.760384 0.585812 0.408859 0.183718
C23   C     C_R   0.500105 0.734662 0.501411 0.881701
C24   C     C_R   0.791065 0.506886 0.493826 0.248838
C25   C     C_2   0.484723 0.927551 0.393400 -0.156656
C26   C     C_2   0.503007 0.866710 0.503389 -0.326647
C27   C     C_2   0.493824 0.059753 0.378247 0.127554
C28   C     C_2   0.492751 0.132091 0.494085 -0.360259
C29   C     C_2   0.459977 0.452683 0.922738 -0.013460
C30   C     C_2   0.455467 0.476371 0.075682 -0.069065
C31   C     C_R   0.608995 0.501564 0.500280 0.835364
C32   C     C_R   0.880667 0.591496 0.573041 0.576037
C33   C     C_R   0.880003 0.419711 0.415845 0.567794
C34   C     C_R   0.939613 0.416649 0.415152 -0.021611
C35   C     C_R   0.969870 0.504239 0.495167 -0.016031
C36   C     C_R   0.940280 0.592665 0.574802 -0.023098
Cu1   Cu    Cu3+1 0.500010 0.500020 0.638630 0.989664
Cu2   Cu    Cu3+1 0.499990 0.499980 0.361370 0.963711
H1    H     H_    0.947280 0.260166 0.274454 0.193627
H2    H     H_    0.464715 0.876916 0.308720 0.168126
H3    H     H_    0.523231 0.911961 0.591516 0.156756
H4    H     H_    0.483942 0.092784 0.593518 0.144380
H5    H     H_    0.427361 0.396696 0.873289 0.113571
H6    H     H_    0.413962 0.468891 0.122548 0.145476
H7    H     H_    0.050603 0.257896 0.276349 0.191366
H8    H     H_    0.538180 0.477580 0.110240 0.238198
H9    H     H_    0.052423 0.747773 0.715820 0.191403
H10   H     H_    0.949106 0.748711 0.715905 0.194323
H11   H     H_    0.216144 0.535635 0.279956 0.149106
H12   H     H_    0.320279 0.534198 0.279949 0.152844
H13   H     H_    0.320400 0.465444 0.717583 0.154062
H14   H     H_    0.216254 0.465159 0.715200 0.148459
H15   H     H_    0.787554 0.369278 0.646916 0.156594
N1    N     N_R   0.851974 0.506509 0.493539 -0.454919
N2    N     N_R   0.147960 0.501356 0.496930 -0.468286
N3    N     N_2   0.499380 0.498660 0.846910 -0.093805
N4    N     N_2   0.499370 0.498630 0.153040 -0.259158
O1    O     O_R   0.500010 0.321960 0.617040 -0.587281
O2    O     O_2   0.850209 0.336999 0.339467 -0.520050
O3    O     O_2   0.148037 0.328418 0.347269 -0.537323
O4    O     O_2   0.149289 0.674308 0.646564 -0.535768
O5    O     O_R   0.499990 0.321920 0.382900 -0.591295
O6    O     O_R   0.417890 0.499980 0.617100 -0.586088
O7    O     O_R   0.417870 0.499940 0.382950 -0.592236
O8    O     O_R   0.500010 0.678080 0.617100 -0.547031
O9    O     O_R   0.499990 0.678040 0.382960 -0.551696
O10   O     O_R   0.582130 0.500060 0.617050 -0.559882
O11   O     O_R   0.582110 0.500020 0.382900 -0.560203
O12   O     O_2   0.851507 0.674511 0.649802 -0.510901
C37   C     C_3   0.676269 0.336588 0.683360 -0.385959
C38   C     C_3   0.673135 0.393834 0.829210 -0.269512
C39   C     C_3   0.637853 0.315642 0.924688 -0.822557
H16   H     H_    0.593450 0.308589 0.885689 0.259314
H17   H     H_    0.656602 0.222661 0.931437 0.257506
H18   H     H_    0.637155 0.358576 0.029620 0.252238
H19   H     H_    0.716784 0.403634 0.872645 0.227174
H20   H     H_    0.653855 0.486492 0.825643 0.261798
H21   H     H_    0.633572 0.307476 0.646127 0.205981
H22   H     H_    0.701869 0.251055 0.686644 0.201099
I1    I     I_    0.654595 0.719866 0.297706 -0.268752
I2    I     I_    0.806441 0.701481 0.274370 -0.226588
C40   C     C_3   0.503686 0.109805 0.233927 -0.349068
C41   C     C_3   0.506870 0.013103 0.116040 -0.363966
C42   C     C_3   0.523489 0.070701 0.980172 -0.818703
H23   H     H_    0.493455 0.145229 0.953774 0.245482
H24   H     H_    0.567201 0.108080 0.988330 0.258611
H25   H     H_    0.522530 0.000049 0.895982 0.259165
H26   H     H_    0.538944 0.942065 0.141141 0.263427
H27   H     H_    0.464668 0.968945 0.101198 0.221847
H28   H     H_    0.468465 0.173507 0.208609 0.210813
H29   H     H_    0.544615 0.160734 0.235664 0.220574
I3    I     I_    0.546602 0.652107 0.915514 -0.280026

loop_
_geom_bond_atom_site_label_1
_geom_bond_atom_site_label_2
_ccdc_geom_bond_type
C37   H21   S    
C35   C36   A    
C42   H25   S    
C1    O5    A    
C7    C8    A    
C31   O10   A    
Cu1   Cu2   S    
C18   C24   A    
C32   C36   A    
C23   O9    A    
C42   H24   S    
C18   C19   A    
C25   H2    S    
C5    C6    A    
C12   O7    A    
C24   N1    S    
C15   C16   A    
C30   N4    D    
Cu1   O10   S    
C34   C35   A    
C8    C36   A    
C23   C26   S    
C18   H15   S    
Cu1   N3    S    
C2    H1    S    
C19   C20   A    
C16   C17   A    
Cu1   O8    S    
C1    C28   S    
C37   C38   S    
C9    N2    A    
C15   H13   S    
C17   N2    S    
Cu1   O1    S    
C2    C34   A    
C41   H26   S    
C33   O2    S    
C21   C22   A    
C29   H5    S    
C30   H6    S    
C39   H18   S    
C32   N1    A    
Cu1   O6    S    
Cu2   O7    S    
C31   O11   A    
C41   H27   S    
C22   I2    S    
Cu2   O9    S    
C42   H23   S    
C39   H17   S    
C12   O6    A    
C39   H16   S    
C25   C26   D    
C3    H7    S    
C40   H29   S    
C7    H9    S    
C8    H10   S    
C29   C30   S    
C11   H11   S    
Cu2   N4    S    
C41   C42   S    
C33   C34   A    
C10   N2    A    
C32   O12   S    
C12   C14   S    
H8    N4    S    
C22   C24   A    
C10   O4    S    
C3    C4    A    
C38   H20   S    
C33   N1    A    
C11   C17   A    
C37   H22   S    
C27   C40   S    
C16   H14   S    
Cu2   O11   S    
C4    C5    A    
C6    C10   A    
C6    C7    A    
C29   N3    D    
C25   C27   S    
C40   H28   S    
C9    O3    S    
C23   O8    A    
C2    C3    A    
C38   C39   S    
C1    O1    A    
C11   C13   A    
C38   H19   S    
C5    C35   A    
C21   I1    S    
C28   H4    S    
C13   H12   S    
N3    I3    S    
C20   C21   A    
C40   C41   S    
C27   C28   D    
C14   C15   A    
C19   C37   S    
C4    C9    A    
C13   C14   A    
C26   H3    S    
Cu2   O5    S    
C20   C31   S    
