data_mof_unit_22644.cif
_audit_creation_date              2012-12-10T17:29:16-0500
_audit_creation_method            fapswitch 2.2
_symmetry_space_group_name_H-M    P1
_symmetry_Int_Tables_number       1
_space_group_crystal_system       triclinic
_cell_length_a                    12.006781
_cell_length_b                    12.891657
_cell_length_c                    13.102329
_cell_angle_alpha                 87.759114
_cell_angle_beta                  113.709078
_cell_angle_gamma                 93.417105
_cell_volume                      1853.34689226

loop_
_atom_site_label
_atom_site_type_symbol
_atom_type_description
_atom_site_fract_x
_atom_site_fract_y
_atom_site_fract_z
_atom_type_partial_charge
C1    C     C_R   0.477669 0.299423 0.499094 0.881835
C2    C     C_R   0.560761 0.511182 0.988484 0.062734
C3    C     C_R   0.547391 0.549488 0.882137 0.068763
C4    C     C_R   0.470316 0.531962 0.027164 0.088607
C5    C     C_R   0.376984 0.600417 0.966395 0.172190
C6    C     C_R   0.376593 0.649798 0.869885 -0.342064
C7    C     C_R   0.464867 0.629424 0.830479 -0.009755
C8    C     C_R   0.470300 0.486490 0.125229 -0.231053
C9    C     C_R   0.300096 0.585748 0.111506 -0.205177
C10   C     C_R   0.614449 0.503572 0.830080 -0.075236
C11   C     C_R   0.534815 0.811908 0.499257 -0.024810
C12   C     C_R   0.567759 0.499662 0.708886 0.917153
C13   C     C_R   0.464199 0.188050 0.497921 -0.055639
C14   C     C_R   0.339721 0.029946 0.470144 -0.222100
C15   C     C_R   0.350738 0.137262 0.475811 -0.203804
C16   C     C_R   0.566922 0.132175 0.516269 -0.276950
C17   C     C_R   0.556683 0.025676 0.510130 0.186228
C18   C     C_R   0.442163 0.974242 0.486625 0.191753
C19   C     C_R   0.431971 0.867733 0.480564 -0.292207
C20   C     C_R   0.648235 0.862698 0.521292 -0.159952
C21   C     C_R   0.659164 0.969994 0.526722 -0.218510
C22   C     C_R   0.003241 0.590935 0.383891 -0.109154
C23   C     C_R   0.521743 0.700552 0.499274 0.943092
C24   C     C_R   0.126360 0.583560 0.400325 -0.095244
C25   C     C_R   0.159759 0.461615 0.547980 -0.049757
C26   C     C_R   0.038139 0.467111 0.537611 0.059260
C27   C     C_R   0.958113 0.533036 0.455451 0.056074
C28   C     C_R   0.837673 0.539324 0.450540 -0.022541
C29   C     C_R   0.874810 0.415259 0.597235 0.015357
C30   C     C_R   0.995276 0.407975 0.607975 -0.314100
C31   C     C_R   0.433024 0.504176 0.291141 0.873211
C32   C     C_R   0.289988 0.624060 0.007357 -0.178979
C33   C     C_R   0.393948 0.520118 0.171934 -0.059458
C34   C     C_R   0.715728 0.445958 0.893293 -0.208358
C35   C     C_R   0.743519 0.425443 0.005286 -0.138303
C36   C     C_R   0.664908 0.454442 0.052095 -0.110662
H1    H     H_    0.240078 0.612350 0.147438 0.150553
H2    H     H_    0.728194 0.819704 0.535811 0.160154
H3    H     H_    0.251676 0.990728 0.452415 0.136220
H4    H     H_    0.747220 0.009210 0.544512 0.137865
H5    H     H_    0.270873 0.180270 0.461612 0.163100
H6    H     H_    0.655211 0.171314 0.534502 0.159480
H7    H     H_    0.774814 0.592252 0.393600 0.188680
H8    H     H_    0.842694 0.369423 0.651803 0.122873
H9    H     H_    0.054651 0.356454 0.671165 0.144771
H10   H     H_    0.161722 0.627194 0.346599 0.122837
H11   H     H_    0.311414 0.708592 0.828617 0.140649
H12   H     H_    0.221060 0.410600 0.610219 0.131726
H13   H     H_    0.219110 0.677095 0.962208 0.141745
H14   H     H_    0.534101 0.428883 0.171196 0.141622
H15   H     H_    0.770294 0.413052 0.855055 0.150970
H16   H     H_    0.689549 0.433363 0.138609 0.147698
H17   H     H_    0.822306 0.381717 0.054379 0.144275
H18   H     H_    0.343752 0.828517 0.462497 0.149529
N1    N     N_R   0.798200 0.480260 0.519790 -0.110890
N2    N     N_R   0.201820 0.519740 0.480210 -0.095363
O1    O     O_R   0.579910 0.341070 0.505280 -0.628558
O2    O     O_R   0.388440 0.353740 0.492580 -0.621522
O3    O     O_R   0.643280 0.490550 0.663120 -0.609964
O4    O     O_R   0.451810 0.503220 0.650420 -0.629752
O5    O     O_R   0.611560 0.646260 0.507420 -0.619008
O6    O     O_R   0.420090 0.658930 0.494720 -0.637895
O7    O     O_R   0.548190 0.496780 0.349580 -0.612183
O8    O     O_R   0.356720 0.509450 0.336880 -0.620873
Zn1   Zn    Zn3+2 0.627850 0.491540 0.508480 0.954293
Zn2   Zn    Zn3+2 0.372150 0.508460 0.491520 0.936797
C37   C     C_2   0.927825 0.657877 0.289498 0.354016
H19   H     H_    0.971460 0.721903 0.260871 0.067435
O9    O     O_2   0.818818 0.639461 0.238379 -0.580789
C38   C     C_2   0.479298 0.703906 0.747222 0.442782
H20   H     H_    0.401730 0.745292 0.690192 0.055838
O10   O     O_2   0.579384 0.724261 0.746015 -0.591552

loop_
_geom_bond_atom_site_label_1
_geom_bond_atom_site_label_2
_ccdc_geom_bond_type
C2    C4    A    
O7    Zn1   S    
C38   H20   S    
O5    Zn1   S    
C35   H17   S    
C31   O7    A    
C20   H2    S    
C14   C18   A    
C28   H7    S    
C3    C7    A    
C35   C36   A    
C36   H16   S    
C25   N2    A    
C4    C8    A    
C5    C32   A    
C24   H10   S    
C7    C38   S    
C31   C33   S    
C2    C3    A    
C34   H15   S    
C30   H9    S    
O4    Zn2   S    
C10   C34   A    
C3    C10   A    
C1    O2    A    
O3    Zn1   S    
C9    C33   A    
C12   O3    A    
C25   H12   S    
C11   C19   A    
C26   C27   A    
C29   C30   A    
C21   H4    S    
C10   C12   S    
C32   H13   S    
N2    Zn2   S    
C4    C5    A    
C19   H18   S    
C11   C23   S    
N1    Zn1   S    
C28   N1    A    
C26   C30   A    
C6    C7    A    
C1    O1    A    
C22   C27   A    
C13   C15   A    
C29   H8    S    
C5    C6    A    
C22   C37   S    
C22   C24   A    
C11   C20   A    
C24   N2    A    
C6    H11   S    
O6    Zn2   S    
C37   H19   S    
C12   O4    A    
C8    H14   S    
C23   O5    A    
C1    C13   S    
C20   C21   A    
C15   H5    S    
C17   C18   A    
C34   C35   A    
C13   C16   A    
C2    C36   A    
C27   C28   A    
C14   C15   A    
C18   C19   A    
C38   O10   D    
C29   N1    A    
C9    C32   A    
C37   O9    D    
C25   C26   A    
C16   H6    S    
C31   O8    A    
O2    Zn2   S    
C23   O6    A    
C17   C21   A    
C16   C17   A    
C14   H3    S    
C8    C33   A    
O1    Zn1   S    
C9    H1    S    
O8    Zn2   S    
