data_mof_unit_5133.cif
_audit_creation_date              2012-12-10T18:19:13-0500
_audit_creation_method            fapswitch 2.2
_symmetry_space_group_name_H-M    P1
_symmetry_Int_Tables_number       1
_space_group_crystal_system       triclinic
_cell_length_a                    14.970056
_cell_length_b                    14.038121
_cell_length_c                    11.544704
_cell_angle_alpha                 90.624268
_cell_angle_beta                  89.162271
_cell_angle_gamma                 90.375188
_cell_volume                      2425.68353624

loop_
_atom_site_label
_atom_site_type_symbol
_atom_type_description
_atom_site_fract_x
_atom_site_fract_y
_atom_site_fract_z
_atom_type_partial_charge
C1    C     C_R   0.327217 0.499744 0.503277 0.965169
C2    C     C_R   0.469636 0.202925 0.594683 -0.050305
C3    C     C_R   0.469532 0.798370 0.594751 -0.046805
C4    C     C_R   0.531581 0.201732 0.405720 -0.047348
C5    C     C_R   0.471858 0.899425 0.600273 -0.024733
C6    C     C_R   0.532838 0.100546 0.401765 -0.022372
C7    C     C_R   0.535333 0.897949 0.403234 -0.023362
C8    C     C_R   0.470356 0.101897 0.599510 -0.023951
C9    C     C_R   0.502421 0.949502 0.501097 0.016976
C10   C     C_R   0.502030 0.050441 0.500858 0.016531
C11   C     C_R   0.445886 0.950571 0.702487 0.081249
C12   C     C_R   0.672763 0.500281 0.494871 0.962961
C13   C     C_R   0.564677 0.049213 0.302270 0.079399
C14   C     C_R   0.569402 0.947615 0.304886 0.074700
C15   C     C_R   0.442079 0.052208 0.700879 0.076492
C16   C     C_R   0.499087 0.499572 0.281776 0.931892
C17   C     C_R   0.500087 0.500440 0.718256 0.938740
C18   C     C_1   0.497078 0.498905 0.161446 -0.146936
C19   C     C_1   0.498858 0.501229 0.838665 -0.165558
C20   C     C_1   0.496361 0.499509 0.059345 -0.005476
C21   C     C_1   0.497516 0.500818 0.940792 -0.024335
C22   C     C_R   0.815437 0.518292 0.386885 0.003253
C23   C     C_R   0.909881 0.511819 0.388082 -0.084467
C24   C     C_R   0.184812 0.489107 0.612891 -0.009522
C25   C     C_R   0.768034 0.500968 0.490919 -0.240831
C26   C     C_R   0.231996 0.499226 0.507297 -0.238818
C27   C     C_R   0.810087 0.482571 0.594280 0.631207
C28   C     C_R   0.189879 0.508013 0.402031 0.630363
C29   C     C_R   0.902436 0.482780 0.598598 -0.218253
C30   C     C_R   0.097525 0.507633 0.397826 -0.218062
C31   C     C_R   0.953042 0.496820 0.495827 -0.149087
C32   C     C_R   0.046984 0.496314 0.501211 -0.146458
C33   C     C_3   0.764722 0.545893 0.278459 -0.337976
C34   C     C_R   0.090174 0.485118 0.609728 -0.085757
C35   C     C_3   0.745912 0.458970 0.200154 -0.339713
C36   C     C_3   0.728515 0.489218 0.075849 -0.682986
C37   C     C_3   0.236276 0.485391 0.726108 -0.299190
C38   C     C_3   0.246746 0.382329 0.767563 -0.317585
C39   C     C_3   0.262859 0.378985 0.897662 -0.743664
C40   C     C_3   0.429917 0.896835 0.815224 -0.439468
C41   C     C_3   0.332823 0.862035 0.827268 -0.366284
C42   C     C_3   0.320091 0.801023 0.934954 -0.815073
C43   C     C_3   0.590315 0.102824 0.192279 -0.439630
C44   C     C_3   0.686742 0.140657 0.197046 -0.361911
C45   C     C_R   0.944753 0.468978 0.704183 0.625185
C46   C     C_3   0.709448 0.201142 0.091567 -0.836503
C47   C     C_3   0.613485 0.891734 0.205230 -0.430594
C48   C     C_3   0.543575 0.849032 0.123037 -0.358875
C49   C     C_3   0.586052 0.778289 0.037741 -0.848068
C50   C     C_3   0.409758 0.108521 0.807393 -0.436980
C51   C     C_3   0.489299 0.149826 0.874851 -0.343237
C52   C     C_3   0.460166 0.229802 0.956993 -0.869369
C53   C     C_R   0.055108 0.517680 0.291577 0.625219
C54   C     C_R   0.036773 0.470628 0.710316 0.500408
C55   C     C_R   0.963068 0.519711 0.286252 0.498205
C56   C     C_R   0.533687 0.796900 0.407007 -0.047936
F1    F     F_    0.759436 0.466872 0.691335 -0.619648
F2    F     F_    0.240493 0.517471 0.303709 -0.617322
F3    F     F_    0.897241 0.454547 0.803795 -0.557531
F4    F     F_    0.102517 0.525823 0.190788 -0.550043
F5    F     F_    0.070937 0.456037 0.816562 -0.626842
F6    F     F_    0.928520 0.526572 0.178907 -0.628136
H1    H     H_    0.558079 0.753515 0.336048 0.149189
H2    H     H_    0.700006 0.580096 0.300203 0.158192
H3    H     H_    0.800950 0.603518 0.232070 0.252845
H4    H     H_    0.323854 0.420073 0.919833 0.244603
H5    H     H_    0.205166 0.409366 0.946609 0.337961
H6    H     H_    0.271097 0.303898 0.924439 0.232418
H7    H     H_    0.186289 0.339001 0.748138 0.258387
H8    H     H_    0.304032 0.348782 0.720748 0.195256
H9    H     H_    0.303941 0.517395 0.717407 0.134602
H10   H     H_    0.204183 0.532329 0.792247 0.261061
H11   H     H_    0.362591 0.736529 0.928552 0.259612
H12   H     H_    0.446649 0.246201 0.666447 0.149247
H13   H     H_    0.337880 0.842459 0.013940 0.258840
H14   H     H_    0.249157 0.778060 0.942646 0.269404
H15   H     H_    0.287175 0.923974 0.833539 0.226722
H16   H     H_    0.313575 0.819205 0.750025 0.225218
H17   H     H_    0.476766 0.836241 0.820738 0.200753
H18   H     H_    0.448028 0.940682 0.891628 0.199607
H19   H     H_    0.700392 0.159012 0.010521 0.267993
H20   H     H_    0.665862 0.264738 0.090250 0.251884
H21   H     H_    0.780054 0.225492 0.095782 0.268235
H22   H     H_    0.696616 0.184694 0.276395 0.223688
H23   H     H_    0.443292 0.756355 0.665132 0.145897
H24   H     H_    0.734021 0.080119 0.200038 0.227796
H25   H     H_    0.581822 0.058050 0.113706 0.201802
H26   H     H_    0.542725 0.161538 0.177973 0.200682
H27   H     H_    0.636083 0.814956 0.981630 0.265541
H28   H     H_    0.619049 0.720086 0.085150 0.259413
H29   H     H_    0.533706 0.746101 0.982322 0.251491
H30   H     H_    0.489811 0.811719 0.172256 0.234667
H31   H     H_    0.511834 0.907082 0.074211 0.210835
H32   H     H_    0.661670 0.935421 0.154846 0.207776
H33   H     H_    0.656878 0.835418 0.240367 0.193934
H34   H     H_    0.556659 0.244094 0.335024 0.144078
H35   H     H_    0.434278 0.290081 0.906456 0.269604
H36   H     H_    0.407909 0.204118 0.018586 0.264636
H37   H     H_    0.518285 0.256216 0.006599 0.254521
H38   H     H_    0.520636 0.092415 0.925278 0.209140
H39   H     H_    0.541231 0.178684 0.814868 0.239246
H40   H     H_    0.363058 0.165122 0.780968 0.192966
H41   H     H_    0.367432 0.065642 0.866691 0.203913
H42   H     H_    0.677178 0.545754 0.074360 0.223093
H43   H     H_    0.790873 0.517115 0.035110 0.334537
H44   H     H_    0.704913 0.427202 0.024045 0.251310
H45   H     H_    0.802907 0.408638 0.199414 0.271110
H46   H     H_    0.686539 0.419984 0.234548 0.187564
N1    N     N_R   0.500000 0.750030 0.500000 -0.106088
N2    N     N_R   0.500000 0.249970 0.500000 -0.106389
O1    O     O_R   0.367850 0.580280 0.500030 -0.606228
O2    O     O_R   0.632150 0.419720 0.499970 -0.599493
O3    O     O_R   0.632150 0.580280 0.499970 -0.623722
O4    O     O_R   0.367850 0.419720 0.500030 -0.618107
O5    O     O_R   0.500010 0.580270 0.334450 -0.624222
O6    O     O_R   0.499990 0.419730 0.665550 -0.621294
O7    O     O_R   0.499990 0.580270 0.665550 -0.631006
O8    O     O_R   0.500010 0.419730 0.334450 -0.632571
Zn1   Zn    Zn3+2 0.500000 0.607200 0.500000 0.962785
Zn2   Zn    Zn3+2 0.500000 0.392800 0.500000 0.964114

loop_
_geom_bond_atom_site_label_1
_geom_bond_atom_site_label_2
_ccdc_geom_bond_type
C38   H8    S    
C40   C41   S    
C27   C29   A    
C41   C42   S    
C35   C36   S    
C13   C43   S    
C49   H28   S    
C42   H14   S    
C33   H3    S    
C42   H13   S    
C43   H26   S    
C19   C21   T    
C24   C26   A    
C5    C11   A    
O7    Zn1   S    
C41   H15   S    
C38   C39   S    
C3    H23   S    
C55   F6    S    
C52   H35   S    
O1    Zn1   S    
C39   H6    S    
C15   C50   S    
C35   H46   S    
C17   C19   S    
O3    Zn1   S    
C11   C15   A    
C7    C14   A    
C2    N2    A    
C31   C32   A    
C22   C25   A    
C40   H18   S    
C9    C10   A    
C2    H12   S    
C17   O7    A    
C38   H7    S    
C50   H41   S    
C4    H34   S    
C13   C14   A    
C7    C56   A    
C49   H29   S    
C44   H24   S    
C53   F4    S    
C44   C46   S    
C50   C51   S    
C53   C55   A    
C30   C53   A    
C40   H17   S    
C48   H31   S    
C36   H44   S    
C51   C52   S    
C46   H20   S    
C4    C6    A    
C27   F1    S    
N2    Zn2   S    
C41   H16   S    
O2    Zn2   S    
C44   H22   S    
C24   C34   A    
O6    Zn2   S    
C29   C45   A    
C32   C34   A    
C43   C44   S    
C5    C9    A    
C37   C38   S    
C16   O8    A    
C46   H19   S    
C47   C48   S    
C24   C37   S    
C56   H1    S    
C23   C55   A    
C16   C18   S    
C48   C49   S    
C45   C54   A    
C34   C54   A    
C8    C15   A    
O5    Zn1   S    
C37   H9    S    
C1    C26   S    
C39   H4    S    
C51   H39   S    
C1    O4    A    
C16   O5    A    
C56   N1    A    
C12   O2    A    
N1    Zn1   S    
C12   O3    A    
C51   H38   S    
C7    C9    A    
C22   C33   S    
C4    N2    A    
C45   F3    S    
C42   H11   S    
C36   H43   S    
C39   H5    S    
C2    C8    A    
C49   H27   S    
C3    C5    A    
C6    C10   A    
C50   H40   S    
C14   C47   S    
C54   F5    S    
C28   F2    S    
C25   C27   A    
C52   H37   S    
C26   C28   A    
C12   C25   S    
C36   H42   S    
C43   H25   S    
C28   C30   A    
C29   C31   A    
C1    O1    A    
C6    C13   A    
C30   C32   A    
C3    N1    A    
C33   H2    S    
C52   H36   S    
C33   C35   S    
C47   H32   S    
C18   C20   T    
C11   C40   S    
O8    Zn2   S    
C35   H45   S    
C46   H21   S    
C20   C21   S    
C8    C10   A    
C48   H30   S    
C37   H10   S    
C47   H33   S    
C22   C23   A    
O4    Zn2   S    
C17   O6    A    
C23   C31   A    
