data_mof_unit_26644.cif
_audit_creation_date              2012-12-10T17:54:18-0500
_audit_creation_method            fapswitch 2.2
_symmetry_space_group_name_H-M    P1
_symmetry_Int_Tables_number       1
_space_group_crystal_system       triclinic
_cell_length_a                    27.103836
_cell_length_b                    10.792163
_cell_length_c                    10.00905
_cell_angle_alpha                 90.595054
_cell_angle_beta                  91.194929
_cell_angle_gamma                 95.532395
_cell_volume                      2913.23975295

loop_
_atom_site_label
_atom_site_type_symbol
_atom_type_description
_atom_site_fract_x
_atom_site_fract_y
_atom_site_fract_z
_atom_type_partial_charge
Br1   Br    Br    0.677233 0.644935 0.316854 -0.184859
Br2   Br    Br    0.863704 0.388740 0.964506 -0.227018
Br3   Br    Br    0.618876 0.160006 0.955679 -0.322249
Br4   Br    Br    0.449178 0.853643 0.239238 -0.271664
Br5   Br    Br    0.570203 0.712498 0.167059 -0.236598
C1    C     C_R   0.503817 0.261285 0.499688 0.949183
C2    C     C_R   0.961707 0.252342 0.443966 0.002040
C3    C     C_R   0.965781 0.355973 0.663781 0.025917
C4    C     C_R   0.405745 0.498571 0.499058 1.041673
C5    C     C_R   0.937709 0.297968 0.555870 0.089242
C6    C     C_R   0.932119 0.195752 0.338363 -0.234540
C7    C     C_R   0.880577 0.189399 0.339038 0.472520
C8    C     C_R   0.856476 0.241370 0.447170 -0.115573
C9    C     C_R   0.885222 0.288932 0.559288 -0.132192
C10   C     C_R   0.861688 0.331854 0.673596 -0.099720
C11   C     C_R   0.810970 0.348127 0.663128 0.600936
C12   C     C_R   0.276041 0.347235 0.530216 -0.173064
C13   C     C_R   0.805226 0.254749 0.445414 0.643019
C14   C     C_R   0.697516 0.308076 0.604424 -0.081307
C15   C     C_R   0.652088 0.356621 0.595388 -0.220862
C16   C     C_R   0.501718 0.740088 0.499265 1.002871
C17   C     C_R   0.684005 0.505475 0.430392 0.244890
C18   C     C_R   0.730457 0.458141 0.442047 0.382453
C19   C     C_R   0.736877 0.358459 0.528594 0.131070
C20   C     C_R   0.014342 0.266760 0.440499 0.095331
C21   C     C_R   0.041457 0.342029 0.539665 0.050930
C22   C     C_R   0.016947 0.392563 0.648753 -0.037226
C23   C     C_R   0.247961 0.444656 0.497530 0.065548
C24   C     C_R   0.040925 0.212153 0.338857 -0.180998
C25   C     C_R   0.095366 0.506419 0.721370 -0.130053
C26   C     C_R   0.941845 0.370605 0.785124 -0.170590
C27   C     C_R   0.890457 0.361655 0.791005 0.349708
C28   C     C_R   0.594151 0.494684 0.501504 0.986760
C29   C     C_R   0.044295 0.483013 0.733320 0.351931
C30   C     C_R   0.554736 0.130692 0.722633 -0.222680
C31   C     C_R   0.588414 0.073734 0.802976 0.257996
C32   C     C_R   0.603962 0.960483 0.762945 -0.126527
C33   C     C_R   0.581063 0.896599 0.652873 0.422364
C34   C     C_R   0.093376 0.369183 0.527856 -0.053769
C35   C     C_R   0.540302 0.943492 0.587259 -0.043577
C36   C     C_R   0.533443 0.069743 0.605567 -0.029018
C37   C     C_R   0.511175 0.130031 0.496887 -0.210680
C38   C     C_R   0.498992 0.061946 0.377332 0.394308
C39   C     C_R   0.489179 0.935076 0.383994 0.275064
C40   C     C_R   0.169715 0.346603 0.411690 0.576133
C41   C     C_R   0.509358 0.874002 0.492832 -0.218068
C42   C     C_R   0.431032 0.315927 0.119221 0.481283
C43   C     C_R   0.403813 0.229017 0.034931 -0.102404
C44   C     C_R   0.406663 0.236220 0.899782 -0.217442
C45   C     C_R   0.118428 0.317380 0.422189 -0.027693
C46   C     C_R   0.436833 0.330248 0.845110 -0.072416
C47   C     C_R   0.467973 0.415464 0.922468 0.011091
C48   C     C_R   0.467049 0.412329 0.067081 0.014688
C49   C     C_R   0.530228 0.582208 0.073749 0.292955
C50   C     C_R   0.531728 0.577739 0.932055 0.389153
C51   C     C_R   0.171645 0.474371 0.607961 0.625645
C52   C     C_R   0.271456 0.561524 0.463323 0.426213
C53   C     C_R   0.323476 0.580321 0.464754 0.251202
C54   C     C_R   0.327406 0.364263 0.529800 0.358996
C55   C     C_R   0.091953 0.237358 0.329960 -0.098176
C56   C     C_R   0.120283 0.449325 0.620771 -0.116721
C57   C     C_R   0.351572 0.481217 0.497303 -0.274414
C58   C     C_R   0.644463 0.454363 0.508210 -0.163850
Cl1   Cl    Cl    0.359649 0.234957 0.568639 -0.561867
Cl2   Cl    Cl    0.353124 0.729150 0.432004 -0.449005
Cl3   Cl    Cl    0.235547 0.683111 0.418048 -0.419048
Cl4   Cl    Cl    0.781617 0.527353 0.353825 -0.418539
Cl5   Cl    Cl    0.017100 0.589936 0.837245 -0.538607
Cl6   Cl    Cl    0.506769 0.124263 0.215039 -0.484161
Cl7   Cl    Cl    0.613874 0.784239 0.575100 -0.511366
Cl8   Cl    Cl    0.409762 0.281142 0.278273 -0.515933
Cl9   Cl    Cl    0.578476 0.668607 0.852500 -0.479353
Cl10  Cl    Cl    0.849292 0.115485 0.198803 -0.400474
H1    H     H_    0.115281 0.574609 0.787916 0.232867
H2    H     H_    0.622494 0.316943 0.656622 0.178698
H3    H     H_    0.702480 0.232711 0.672550 0.196311
H4    H     H_    0.947949 0.159636 0.250018 0.179861
H5    H     H_    0.023510 0.148016 0.265051 0.160858
H6    H     H_    0.962915 0.387488 0.877356 0.210426
H7    H     H_    0.548774 0.223613 0.752567 0.207701
H8    H     H_    0.257561 0.257593 0.556634 0.213409
H9    H     H_    0.635037 0.924494 0.814179 0.233416
H10   H     H_    0.378311 0.154747 0.073542 0.224852
H11   H     H_    0.384360 0.169528 0.836839 0.233611
H12   H     H_    0.434962 0.332459 0.740163 0.251329
H13   H     H_    0.110556 0.194213 0.249502 0.203828
N1    N     N_R   0.195117 0.423778 0.504034 -0.325939
N2    N     N_R   0.784915 0.315508 0.547855 -0.355552
N3    N     N_R   0.499540 0.498800 0.142780 -0.155887
N4    N     N_R   0.499520 0.498720 0.857170 -0.167448
O1    O     O_R   0.500000 0.316780 0.614690 -0.681378
O2    O     O_R   0.571250 0.499990 0.614680 -0.566478
O3    O     O_R   0.571240 0.499970 0.385350 -0.578558
O4    O     O_2   0.194094 0.298362 0.310243 -0.505868
O5    O     O_2   0.775950 0.213772 0.340494 -0.413527
O6    O     O_2   0.198073 0.547811 0.699156 -0.498162
O7    O     O_2   0.788224 0.403076 0.763059 -0.441991
O8    O     O_R   0.500000 0.316750 0.385360 -0.536909
O9    O     O_R   0.428760 0.500030 0.614650 -0.640137
O10   O     O_R   0.428750 0.500010 0.385320 -0.549416
O11   O     O_R   0.500000 0.683250 0.614640 -0.576053
O12   O     O_R   0.500000 0.683220 0.385310 -0.564202
Zn1   Zn    Zn3+2 0.500000 0.500020 0.653130 1.030057
Zn2   Zn    Zn3+2 0.500000 0.499980 0.346870 1.111473

loop_
_geom_bond_atom_site_label_1
_geom_bond_atom_site_label_2
_ccdc_geom_bond_type
C53   C57   A    
C2    C5    A    
O9    Zn1   S    
C33   Cl7   S    
C35   C36   A    
C36   C37   A    
C47   N4    A    
C14   C15   A    
C52   Cl3   S    
C46   H12   S    
C10   C27   A    
C23   C52   A    
C35   C41   A    
C54   Cl1   S    
C8    C13   A    
C1    O8    A    
C44   H11   S    
C14   H3    S    
C40   N1    A    
C50   N4    A    
C25   H1    S    
C21   C34   A    
C1    O1    A    
C30   H7    S    
O10   Zn2   S    
Br2   C27   S    
C18   Cl4   S    
C6    H4    S    
O2    Zn1   S    
C17   C58   A    
C24   H5    S    
C42   C43   A    
C44   C46   A    
C18   C19   A    
C8    C9    A    
C50   Cl9   S    
C42   C48   A    
C16   O11   A    
Br1   C17   S    
C4    O9    A    
C7    Cl10  S    
C13   O5    S    
C12   C23   A    
C30   C36   A    
C40   O4    S    
O3    Zn2   S    
C39   C41   A    
C22   C29   A    
C20   C24   A    
C34   C56   A    
C25   C29   A    
C4    C57   S    
Br5   C49   S    
C49   N3    A    
C5    C9    A    
C28   O2    A    
C29   Cl5   S    
C55   H13   S    
C51   N1    A    
Br4   C39   S    
C20   C21   A    
C13   N2    A    
C46   C47   A    
C15   H2    S    
C30   C31   A    
C2    C6    A    
C38   C39   A    
C32   C33   A    
C53   Cl2   S    
C26   C27   A    
C24   C55   A    
C28   C58   S    
C23   N1    S    
C21   C22   A    
C51   C56   A    
O12   Zn2   S    
C19   N2    S    
C42   Cl8   S    
C12   C54   A    
C16   O12   A    
C3    C5    A    
C43   C44   A    
C4    O10   A    
N3    Zn2   S    
C48   N3    A    
C32   H9    S    
C37   C38   A    
C47   C48   A    
C16   C41   S    
C51   O6    S    
C49   C50   A    
C31   C32   A    
C54   C57   A    
C9    C10   A    
C3    C26   A    
O1    Zn1   S    
C28   O3    A    
C6    C7    A    
C26   H6    S    
C2    C20   A    
C43   H10   S    
C45   C55   A    
C15   C58   A    
C14   C19   A    
C33   C35   A    
C52   C53   A    
Br3   C31   S    
O8    Zn2   S    
C12   H8    S    
C11   O7    S    
N4    Zn1   S    
C34   C45   A    
C7    C8    A    
O11   Zn1   S    
C1    C37   S    
C25   C56   A    
C11   N2    A    
C3    C22   A    
C17   C18   A    
C40   C45   A    
C38   Cl6   S    
C10   C11   A    
