data_mof_unit_48880.cif
_audit_creation_date              2013-03-05T15:54:37-0500
_audit_creation_method            fapswitch 2.2
_symmetry_space_group_name_H-M    P1
_symmetry_Int_Tables_number       1
_space_group_crystal_system       triclinic
_cell_length_a                    17.419686
_cell_length_b                    24.3884
_cell_length_c                    15.014049
_cell_angle_alpha                 90.278614
_cell_angle_beta                  125.937212
_cell_angle_gamma                 89.46333
_cell_volume                      5164.22673502

loop_
_atom_site_label
_atom_site_type_symbol
_atom_site_description
_atom_site_fract_x
_atom_site_fract_y
_atom_site_fract_z
_atom_type_partial_charge
C1    C     C_R   0.858923 0.654446 0.907974 -0.131910
C2    C     C_R   0.190252 0.625567 0.095580 -0.107249
C3    C     C_R   0.358916 0.154442 0.907967 -0.132001
C4    C     C_R   0.690271 0.125540 0.095592 -0.106811
H1    H     H_    0.832592 0.668282 0.826643 0.142414
H2    H     H_    0.246172 0.634054 0.180681 0.105804
H3    H     H_    0.332580 0.168277 0.826634 0.142422
H4    H     H_    0.746202 0.134005 0.180698 0.105664
N1    N     N_R   0.892620 0.603790 0.941770 -0.050142
N2    N     N_R   0.107380 0.603790 0.058230 -0.046808
N3    N     N_R   0.392620 0.103790 0.941770 -0.050148
N4    N     N_R   0.607380 0.103790 0.058230 -0.046795
C5    C     C_R   0.944106 0.350242 0.093824 0.267099
C6    C     C_R   0.075445 0.358515 0.905005 0.325063
C7    C     C_R   0.444116 0.850235 0.093819 0.267060
C8    C     C_R   0.575470 0.858527 0.905009 0.325051
N5    N     N_R   0.952270 0.397640 0.058010 -0.079921
N6    N     N_R   0.047730 0.397640 0.941990 -0.075610
N7    N     N_R   0.452270 0.897640 0.058010 -0.079947
N8    N     N_R   0.547730 0.897640 0.941990 -0.075617
C9    C     C_R   0.972108 0.547154 0.235790 -0.058147
C10   C     C_R   0.957636 0.547163 0.700852 -0.096232
C11   C     C_R   0.472062 0.047149 0.235729 -0.058063
C12   C     C_R   0.457618 0.047163 0.700841 -0.096180
N9    N     N_R   0.026310 0.529110 0.206760 -0.040355
N10   N     N_R   0.973690 0.529110 0.793240 -0.054909
N11   N     N_R   0.526310 0.029110 0.206760 -0.040310
N12   N     N_R   0.473690 0.029110 0.793240 -0.054917
C13   C     C_R   0.732081 0.454840 0.753239 -0.074779
C14   C     C_R   0.261988 0.454252 0.297297 -0.044335
C15   C     C_R   0.232090 0.954823 0.753214 -0.074384
C16   C     C_R   0.761950 0.954266 0.297379 -0.044263
H5    H     H_    0.709759 0.412671 0.735241 0.155477
H6    H     H_    0.276423 0.412312 0.326108 0.155775
H7    H     H_    0.209811 0.912651 0.735224 0.155595
H8    H     H_    0.776409 0.912325 0.326191 0.155562
N13   N     N_R   0.818570 0.472310 0.793020 -0.058937
N14   N     N_R   0.181430 0.472310 0.206980 -0.054706
N15   N     N_R   0.318570 0.972310 0.793020 -0.058963
N16   N     N_R   0.681430 0.972310 0.206980 -0.054709
C17   C     C_R   0.978730 0.455879 0.246474 -0.008904
C18   C     C_R   0.956890 0.455691 0.697977 -0.013602
C19   C     C_R   0.478733 0.955877 0.246478 -0.009249
C20   C     C_R   0.456886 0.955692 0.697971 -0.013618
H9    H     H_    0.971715 0.414341 0.264528 0.149461
H10   H     H_    0.942146 0.414132 0.667623 0.165541
H11   H     H_    0.471721 0.914340 0.264534 0.149423
H12   H     H_    0.442139 0.914134 0.667616 0.165484
N17   N     N_R   0.026930 0.472300 0.207330 -0.039156
N18   N     N_R   0.973070 0.472300 0.792670 -0.051782
N19   N     N_R   0.526930 0.972300 0.207330 -0.039148
N20   N     N_R   0.473070 0.972300 0.792670 -0.051792
C21   C     C_R   0.730896 0.546676 0.753534 -0.138631
C22   C     C_R   0.262681 0.545916 0.298916 -0.097269
C23   C     C_R   0.230882 0.046660 0.753540 -0.138889
C24   C     C_R   0.762634 0.045928 0.298951 -0.097007
H13   H     H_    0.707637 0.589047 0.737813 0.118204
H14   H     H_    0.277798 0.587453 0.329950 0.121010
H15   H     H_    0.207606 0.089028 0.737839 0.118325
H16   H     H_    0.777713 0.087471 0.329956 0.120867
N21   N     N_R   0.817960 0.529130 0.792460 -0.055614
N22   N     N_R   0.182040 0.529130 0.207540 -0.052006
N23   N     N_R   0.317960 0.029130 0.792460 -0.055591
N24   N     N_R   0.682040 0.029130 0.207540 -0.052067
C25   C     C_R   0.848536 0.350072 0.910275 -0.063418
C26   C     C_R   0.175978 0.362362 0.089692 -0.110617
C27   C     C_R   0.348563 0.850064 0.910275 -0.063185
C28   C     C_R   0.676005 0.862382 0.089696 -0.110482
N25   N     N_R   0.894850 0.397640 0.943830 -0.067880
N26   N     N_R   0.105150 0.397640 0.056170 -0.064055
N27   N     N_R   0.394850 0.897640 0.943830 -0.067940
N28   N     N_R   0.605150 0.897640 0.056170 -0.064049
C29   C     C_R   0.945134 0.653623 0.089516 -0.104973
C30   C     C_R   0.098261 0.627190 0.911015 0.013943
C31   C     C_R   0.445130 0.153625 0.089510 -0.104822
C32   C     C_R   0.598278 0.127187 0.911031 0.013720
H17   H     H_    0.989840 0.665727 0.174390 0.176770
H18   H     H_    0.069519 0.637735 0.827507 0.162761
H19   H     H_    0.489833 0.165732 0.174382 0.176850
H20   H     H_    0.569537 0.137739 0.827533 0.162779
N29   N     N_R   0.950040 0.603780 0.055950 -0.058178
N30   N     N_R   0.049960 0.603780 0.944050 -0.059638
N31   N     N_R   0.450040 0.103780 0.055950 -0.058225
N32   N     N_R   0.549960 0.103780 0.944050 -0.059616
C33   C     C_R   0.890219 0.687155 0.998475 0.093678
C34   C     C_R   0.186780 0.640280 0.005230 0.117531
C35   C     C_R   0.390204 0.187152 0.998464 0.093743
C36   C     C_R   0.686812 0.140260 0.005255 0.117550
C37   C     C_R   0.878323 0.320751 0.003311 0.016522
C38   C     C_R   0.162490 0.339066 0.996045 0.029359
C39   C     C_R   0.378368 0.820736 0.003305 0.016273
C40   C     C_R   0.662528 0.839091 0.996052 0.029265
C41   C     C_R   0.945352 0.502571 0.266437 0.012069
C42   C     C_R   0.948349 0.502135 0.640581 0.053887
C43   C     C_R   0.445323 0.002569 0.266402 0.012060
C44   C     C_R   0.448333 0.002136 0.640562 0.054048
C45   C     C_R   0.676085 0.500624 0.729406 0.119723
C46   C     C_R   0.314265 0.499679 0.353763 0.108501
C47   C     C_R   0.176080 0.000593 0.729389 0.119578
C48   C     C_R   0.814182 0.999703 0.353876 0.108839
Ni1   Ni    Ni4+2 0.934160 0.565860 0.869070 0.239728
Ni2   Ni    Ni4+2 0.065840 0.565860 0.130930 0.266834
Ni3   Ni    Ni4+2 0.434160 0.065860 0.869070 0.239740
Ni4   Ni    Ni4+2 0.565840 0.065860 0.130930 0.266872
Ni5   Ni    Ni4+2 0.067260 0.435560 0.132230 0.288699
Ni6   Ni    Ni4+2 0.932740 0.435560 0.867770 0.262239
Ni7   Ni    Ni4+2 0.567260 0.935560 0.132230 0.288587
Ni8   Ni    Ni4+2 0.432740 0.935560 0.867770 0.262255
C49   C     C_3   0.505742 0.453039 0.605160 0.308674
C50   C     C_3   0.482654 0.456786 0.489799 0.290921
C51   C     C_3   0.005884 0.952855 0.604794 0.308294
C52   C     C_3   0.982717 0.957033 0.489464 0.291190
C53   C     C_3   0.427003 0.495631 0.573484 -0.153722
C54   C     C_3   0.553086 0.503725 0.526405 -0.224803
C55   C     C_3   0.927002 0.995238 0.573562 -0.153457
C56   C     C_3   0.052957 0.004105 0.526473 -0.225022
C57   C     C_3   0.405725 0.499215 0.458902 -0.010576
C58   C     C_3   0.575848 0.500043 0.642019 -0.015983
C59   C     C_3   0.905645 0.999255 0.459007 -0.010747
C60   C     C_3   0.075813 0.999994 0.642075 -0.015970
C61   C     C_3   0.475742 0.546511 0.495413 -0.150993
C62   C     C_3   0.499340 0.542998 0.611905 -0.128991
C63   C     C_3   0.975466 0.046687 0.495927 -0.151181
C64   C     C_3   0.999153 0.042743 0.612405 -0.128262
C65   C     C_R   0.811689 0.270261 0.078244 0.029059
C66   C     C_R   0.233363 0.305367 0.898294 0.037647
C67   C     C_R   0.311349 0.770366 0.077899 0.028598
C68   C     C_R   0.733423 0.805389 0.898323 0.037568
C69   C     C_R   0.840717 0.271209 0.009810 0.093567
C70   C     C_R   0.239394 0.314447 0.994780 -0.013746
C71   C     C_R   0.340696 0.771221 0.009787 0.093697
C72   C     C_R   0.739435 0.814465 0.994797 -0.013658
C73   C     C_R   0.839337 0.223044 0.957668 -0.193696
C74   C     C_R   0.329419 0.304721 0.094485 -0.199675
C75   C     C_R   0.339587 0.722995 0.957995 -0.193525
C76   C     C_R   0.829447 0.804723 0.094510 -0.199357
H21   H     H_    0.871435 0.221730 0.913966 0.189175
H22   H     H_    0.347552 0.320018 0.172157 0.194931
H23   H     H_    0.371917 0.721623 0.914570 0.189121
H24   H     H_    0.847570 0.820011 0.172183 0.194935
C77   C     C_R   0.295414 0.676572 0.962736 0.371614
C78   C     C_R   0.897114 0.772675 0.095580 0.344447
C79   C     C_R   0.795236 0.176598 0.962464 0.371678
C80   C     C_R   0.397087 0.272677 0.095549 0.344800
C81   C     C_R   0.248148 0.681088 0.012910 -0.019024
C82   C     C_R   0.870440 0.746012 0.997579 -0.020611
C83   C     C_R   0.748242 0.181045 0.012981 -0.019071
C84   C     C_R   0.370402 0.246006 0.997551 -0.020477
C85   C     C_R   0.263609 0.726934 0.076645 -0.104580
C86   C     C_R   0.798375 0.771970 0.899672 0.060993
C87   C     C_R   0.763977 0.226820 0.077017 -0.104620
C88   C     C_R   0.298315 0.271950 0.899638 0.060926
C89   C     C_3   0.205100 0.760784 0.100139 0.193568
C90   C     C_3   0.728229 0.755438 0.782150 0.110546
C91   C     C_3   0.705734 0.260636 0.100976 0.193650
C92   C     C_3   0.228151 0.255390 0.782138 0.110348
C93   C     C_3   0.761752 0.310055 0.104934 0.133703
C94   C     C_3   0.157229 0.293117 0.780275 0.155283
C95   C     C_3   0.261141 0.810198 0.104123 0.134151
C96   C     C_3   0.657309 0.793170 0.780283 0.155172
C97   C     C_R   0.975702 0.547703 0.518888 -0.080901
C98   C     C_R   0.974652 0.548091 0.427283 -0.067593
C99   C     C_R   0.475471 0.047773 0.518717 -0.080890
C100  C     C_R   0.474384 0.048178 0.427083 -0.067714
C101  C     C_R   0.931369 0.505694 0.535147 0.097778
C102  C     C_R   0.926821 0.507260 0.347277 0.106805
C103  C     C_R   0.431301 0.005699 0.535089 0.097704
C104  C     C_R   0.426724 0.007268 0.347190 0.106842
C105  C     C_R   0.875700 0.467333 0.451329 -0.119209
C106  C     C_R   0.873326 0.468167 0.356619 -0.114606
C107  C     C_R   0.375779 0.967260 0.451365 -0.118918
C108  C     C_R   0.373396 0.968093 0.356649 -0.114558
H25   H     H_    0.838797 0.435370 0.461659 0.145400
H26   H     H_    0.835528 0.436521 0.294945 0.143420
H27   H     H_    0.339017 0.935232 0.461782 0.145422
H28   H     H_    0.335743 0.936378 0.295075 0.143088
C109  C     C_3   0.075521 0.568312 0.489788 0.424029
C110  C     C_3   0.075769 0.568223 0.592296 0.467765
C111  C     C_3   0.575166 0.068579 0.489501 0.424070
C112  C     C_3   0.575485 0.068397 0.592057 0.467678
Br1   Br    Br    0.522972 0.385969 0.683956 -0.320189
Br2   Br    Br    0.477377 0.395138 0.404093 -0.456135
Br3   Br    Br    0.023202 0.885485 0.682803 -0.320930
Br4   Br    Br    0.977537 0.895767 0.403097 -0.456535
H29   H     H_    0.462516 0.584766 0.448392 0.150492
H30   H     H_    0.508321 0.578152 0.664439 0.163440
H31   H     H_    0.962083 0.085097 0.449281 0.150476
H32   H     H_    0.008026 0.077688 0.665280 0.163638
Br5   Br    Br    0.307708 0.608540 0.909224 -0.385242
Br6   Br    Br    0.023388 0.770223 0.229233 -0.409032
Br7   Br    Br    0.807465 0.108587 0.908788 -0.385126
Br8   Br    Br    0.523369 0.270237 0.229188 -0.408595
H33   H     H_    0.221325 0.750803 0.181755 0.095096
H34   H     H_    0.703955 0.712369 0.770147 0.035635
H35   H     H_    0.722179 0.250560 0.182668 0.094917
H36   H     H_    0.203903 0.212318 0.770184 0.035678
Br9   Br    Br    0.069754 0.760045 0.980559 -0.379291
Br10  Br    Br    0.771549 0.776135 0.693338 -0.288286
Br11  Br    Br    0.570283 0.260019 0.981708 -0.379311
Br12  Br    Br    0.271418 0.276072 0.693264 -0.288243
H37   H     H_    0.810962 0.326815 0.189451 0.086201
H38   H     H_    0.099259 0.267831 0.767149 0.124930
H39   H     H_    0.310142 0.827052 0.188585 0.085872
H40   H     H_    0.599314 0.767888 0.767097 0.124972
Br13  Br    Br    0.690739 0.367359 0.994611 -0.392637
Br14  Br    Br    0.117540 0.358662 0.688948 -0.350727
Br15  Br    Br    0.190246 0.867376 0.993490 -0.392704
Br16  Br    Br    0.617685 0.858740 0.689034 -0.350878
Br17  Br    Br    0.084483 0.640229 0.439563 -0.396369
Br18  Br    Br    0.162142 0.515744 0.708007 -0.312377
Br19  Br    Br    0.583659 0.140596 0.439128 -0.395954
Br20  Br    Br    0.662011 0.015915 0.707681 -0.312444
Br21  Br    Br    0.039736 0.319305 0.234865 -0.512694
Br22  Br    Br    0.977053 0.314690 0.787564 -0.578709
Br23  Br    Br    0.539714 0.819301 0.234872 -0.512805
Br24  Br    Br    0.477108 0.814694 0.787559 -0.578654
Br25  Br    Br    0.164385 0.516937 0.493286 -0.440765
Br26  Br    Br    0.080749 0.640302 0.652030 -0.413826
Br27  Br    Br    0.664361 0.017433 0.493038 -0.441097
Br28  Br    Br    0.580364 0.140439 0.651868 -0.413998
H41   H     H_    0.956295 0.589483 0.239719 0.142877
H42   H     H_    0.940781 0.589206 0.672854 0.144971
H43   H     H_    0.456163 0.089471 0.239551 0.142824
H44   H     H_    0.440733 0.089205 0.672836 0.145016
H45   H     H_    0.804505 0.335586 0.826264 0.163510
H46   H     H_    0.233191 0.355149 0.174883 0.144608
H47   H     H_    0.304529 0.835580 0.826262 0.163639
H48   H     H_    0.733228 0.855184 0.174890 0.144542
H49   H     H_    0.373262 0.491948 0.590430 0.222564
H50   H     H_    0.606022 0.507047 0.507944 0.172892
H51   H     H_    0.873294 0.991240 0.590485 0.222522
H52   H     H_    0.105830 0.007741 0.507986 0.172963

loop_
_geom_bond_atom_site_label_1
_geom_bond_atom_site_label_2
_geom_bond_distance
_ccdc_geom_bond_type
N6    N26   1.388016 A    
C107  C108  1.398357 A    
C7    N7    1.320847 A    
N5    N25   1.388017 A    
C56   C63   1.537096 S    
C23   H15   1.081668 S    
C91   C93   1.536747 S    
C105  C106  1.398354 A    
C6    N6    1.323937 A    
N7    N27   1.388017 A    
C99   C100  1.364853 A    
C76   H24   1.079124 S    
C85   C89   1.499394 S    
C43   C104  1.431297 S    
C32   N32   1.334782 A    
C97   C98   1.364797 A    
C63   C64   1.546521 S    
C52   Br4   1.941255 S    
C70   C74   1.413292 A    
C25   N25   1.336158 A    
C73   H21   1.083628 S    
C108  H28   1.083472 S    
C10   H42   1.080724 S    
N4    N32   1.388017 A    
C9    H41   1.076187 S    
C97   C101  1.394340 A    
C1    H1    1.076583 S    
C16   H8    1.080934 S    
C8    N8    1.323953 A    
C92   H36   1.109781 S    
N4    Ni4   1.876227 S    
C3    H3    1.076584 S    
C71   C75   1.400821 A    
C29   N29   1.334770 A    
C12   C44   1.368567 A    
N10   Ni1   1.863448 S    
C18   H10   1.078861 S    
C90   Br10  1.948611 S    
C65   C93   1.499591 S    
N9    Ni2   1.874945 S    
C62   H30   1.110278 S    
C27   N27   1.336145 A    
C39   C71   1.410438 S    
C66   C70   1.406166 A    
C109  Br17  1.955887 S    
C78   Br6   1.919990 S    
C13   H5    1.078575 S    
N11   Ni4   1.874945 S    
C37   C69   1.410514 S    
C6    Br22  1.912516 S    
C112  Br20  1.959056 S    
C54   H50   1.111470 S    
C58   C62   1.532734 S    
C5    Br21  1.918290 S    
C45   C58   1.442805 S    
C8    Br24  1.912504 S    
C78   C82   1.413369 A    
N8    N28   1.388016 A    
C6    C38   1.397330 A    
C98   C109  1.512449 S    
C76   C78   1.400434 A    
C65   C87   1.346068 A    
C7    Br23  1.918246 S    
C28   C40   1.400666 A    
C47   C60   1.442944 S    
C82   C86   1.402010 A    
C54   C61   1.537224 S    
C66   C88   1.378723 A    
C31   N31   1.334786 A    
C17   C41   1.383302 A    
C53   C62   1.556480 S    
C88   C92   1.496855 S    
C15   N15   1.327103 A    
C23   N23   1.332281 A    
C51   Br3   1.938331 S    
C19   C43   1.383305 A    
C32   H20   1.073541 S    
C24   N24   1.328941 A    
C15   C47   1.378317 A    
C4    N4    1.319740 A    
C19   H11   1.076327 S    
C4    H4    1.079125 S    
C50   C54   1.531847 S    
C55   H51   1.109205 S    
C49   C53   1.548845 S    
C5    C37   1.362076 A    
C20   N20   1.338333 A    
C66   C94   1.493903 S    
C98   C102  1.399233 A    
N27   Ni8   1.871213 S    
C56   H52   1.111325 S    
C38   C70   1.473171 S    
C101  C105  1.404443 A    
C10   C42   1.368523 A    
C2    H2    1.079134 S    
C21   N21   1.332178 A    
C30   N30   1.334743 A    
N19   Ni7   1.864407 S    
C68   C72   1.406163 A    
C42   C101  1.432532 S    
C17   N17   1.341116 A    
C110  Br18  1.958925 S    
N11   N19   1.385475 A    
C49   C58   1.529209 S    
C59   C63   1.534107 S    
C67   C71   1.386222 A    
N29   Ni2   1.871181 S    
C12   H44   1.080722 S    
C1    C33   1.381300 A    
N15   Ni8   1.837019 S    
C73   C79   1.400176 A    
C35   C84   1.471307 S    
C14   H6    1.080907 S    
C3    C35   1.381273 A    
C94   Br14  1.949682 S    
C1    N1    1.330850 A    
C84   C88   1.402011 A    
C100  C104  1.399461 A    
C77   Br5   1.904384 S    
C33   C82   1.471330 S    
N23   Ni3   1.874504 S    
C9    N9    1.322314 A    
N31   Ni4   1.871181 S    
C109  Br25  1.959028 S    
C64   H32   1.110089 S    
C21   H13   1.081668 S    
C111  Br19  1.956491 S    
C103  C107  1.404599 A    
C22   N22   1.328999 A    
N3    N31   1.388018 A    
N14   N22   1.385833 A    
C74   C80   1.400424 A    
N2    N30   1.388017 A    
C56   C60   1.539763 S    
C36   C83   1.421649 S    
C60   C64   1.532603 S    
C51   C60   1.529204 S    
C40   C72   1.473190 S    
C61   H29   1.110571 S    
C87   C91   1.499586 S    
C89   C95   1.536783 S    
N21   Ni1   1.874504 S    
N6    Ni6   1.861359 S    
C90   C96   1.520564 S    
C20   C44   1.379772 A    
N5    Ni5   1.874570 S    
C96   Br16  1.949687 S    
C51   C55   1.548631 S    
C95   H39   1.112029 S    
N28   Ni7   1.859578 S    
C27   H47   1.081320 S    
C99   C103  1.394495 A    
C28   N28   1.330879 A    
C26   H46   1.078341 S    
C27   C39   1.372460 A    
C44   C103  1.432697 S    
C25   H45   1.081322 S    
C48   C59   1.441514 S    
C30   C34   1.387475 A    
C95   Br15  1.952229 S    
C29   C33   1.383343 A    
C61   C62   1.546709 S    
C54   C58   1.539932 S    
C100  C111  1.512799 S    
C92   Br12  1.948622 S    
N16   Ni7   1.849827 S    
C69   C73   1.400995 A    
C49   Br1   1.938603 S    
C68   C86   1.378720 A    
C18   N18   1.338284 A    
C41   C102  1.431189 S    
C102  C106  1.402992 A    
C11   N11   1.322323 A    
C65   C69   1.386435 A    
C10   N10   1.320780 A    
C94   H38   1.102614 S    
C53   C57   1.535246 S    
C112  Br28  1.948988 S    
C8    C40   1.397359 A    
C93   H37   1.112126 S    
C96   H40   1.102600 S    
C24   C48   1.370480 A    
C23   C47   1.383787 A    
C2    N2    1.319760 A    
C34   C81   1.421517 S    
C67   C95   1.499411 S    
C79   C83   1.408372 A    
C52   C56   1.531625 S    
C91   Br11  1.953219 S    
C68   C96   1.493895 S    
C46   C57   1.441543 S    
C106  H26   1.083310 S    
C104  C108  1.403126 A    
C72   C76   1.413294 A    
N24   Ni4   1.861684 S    
C32   C36   1.387562 A    
C105  H25   1.082837 S    
C55   C64   1.556415 S    
C51   C52   1.533719 S    
C111  Br27  1.959700 S    
C18   C42   1.379707 A    
C110  Br26  1.948926 S    
N17   Ni5   1.864406 S    
N7    Ni7   1.874570 S    
C12   N12   1.320813 A    
C11   H43   1.076151 S    
N26   Ni5   1.859578 S    
C74   H22   1.079127 S    
C52   C59   1.526435 S    
N13   N21   1.385716 A    
N25   Ni6   1.871213 S    
C28   H48   1.078347 S    
C53   H49   1.109308 S    
C4    C36   1.371310 A    
C25   C37   1.372500 A    
C57   C61   1.534280 S    
C111  C112  1.536559 S    
C80   Br8   1.919989 S    
C14   C46   1.370770 A    
C55   C59   1.534952 S    
C22   H14   1.081238 S    
N16   N24   1.385833 A    
C13   C45   1.378440 A    
C75   H23   1.083425 S    
C21   C45   1.383617 A    
C91   H35   1.111772 S    
N14   Ni5   1.849827 S    
N10   N18   1.385594 A    
N13   Ni6   1.837019 S    
C17   H9    1.076335 S    
C49   C50   1.534014 S    
C67   C85   1.346050 A    
N12   N20   1.385594 A    
N12   Ni3   1.863448 S    
C19   N19   1.341125 A    
C26   N26   1.330884 A    
C107  H27   1.082952 S    
C50   C57   1.526682 S    
C83   C87   1.389865 A    
N2    Ni2   1.876227 S    
C92   C94   1.520541 S    
C77   C81   1.408209 A    
C26   C38   1.400659 A    
N30   Ni1   1.884401 S    
C11   C43   1.370116 A    
N15   N23   1.385716 A    
C2    C34   1.371353 A    
C15   H7    1.078498 S    
C16   N16   1.327716 A    
C24   H16   1.081234 S    
C63   H31   1.110394 S    
C9    C41   1.370140 A    
N9    N17   1.385477 A    
C89   H33   1.111661 S    
C3    N3    1.330817 A    
C7    C39   1.362028 A    
C5    N5    1.320792 A    
C90   H34   1.109780 S    
C16   C48   1.370823 A    
C75   C77   1.400133 A    
C89   Br9   1.953018 S    
C50   Br2   1.941583 S    
C29   H17   1.073894 S    
N1    Ni1   1.864272 S    
C109  C110  1.536549 S    
C86   C90   1.496857 S    
C13   N13   1.327202 A    
C99   C112  1.503328 S    
N18   Ni6   1.875965 S    
N32   Ni3   1.884401 S    
C79   Br7   1.904727 S    
C22   C46   1.370625 A    
N20   Ni8   1.875965 S    
N3    Ni3   1.864272 S    
C14   N14   1.327635 A    
N22   Ni2   1.861684 S    
C97   C110  1.503181 S    
C31   H19   1.073895 S    
C93   Br13  1.952443 S    
C81   C85   1.389655 A    
C31   C35   1.383350 A    
C20   H12   1.078857 S    
N1    N29   1.388018 A    
N8    Ni8   1.861359 S    
C80   C84   1.413361 A    
C30   H18   1.073621 S    
