data_mof_unit_33560.cif
_audit_creation_date              2012-12-11T16:58:14-0500
_audit_creation_method            fapswitch 2.2
_symmetry_space_group_name_H-M    P1
_symmetry_Int_Tables_number       1
_space_group_crystal_system       triclinic
_cell_length_a                    16.919888
_cell_length_b                    7.247018
_cell_length_c                    16.88733
_cell_angle_alpha                 91.318598
_cell_angle_beta                  100.589805
_cell_angle_gamma                 88.526747
_cell_volume                      2034.40970776

loop_
_atom_site_label
_atom_site_type_symbol
_atom_type_description
_atom_site_fract_x
_atom_site_fract_y
_atom_site_fract_z
_atom_type_partial_charge
O1    O     O_R   0.413450 0.494370 0.415710 -0.537522
O2    O     O_R   0.586550 0.994370 0.584290 -0.536406
O3    O     O_R   0.578420 0.819350 0.429360 -0.535610
O4    O     O_R   0.421580 0.319350 0.570640 -0.536752
C1    C     C_R   0.603455 0.651908 0.412358 0.715510
C2    C     C_R   0.396163 0.158587 0.587576 0.715852
O5    O     O_R   0.413570 0.823780 0.406240 -0.540883
O6    O     O_R   0.586430 0.323780 0.593760 -0.540849
O7    O     O_R   0.420530 0.998740 0.561000 -0.535154
O8    O     O_R   0.579470 0.498740 0.439000 -0.538470
C3    C     C_R   0.386237 0.655477 0.383546 0.698230
C4    C     C_R   0.613904 0.155232 0.616387 0.702458
O9    O     O_3   0.502480 0.662320 0.550800 -0.369372
O10   O     O_3   0.497520 0.162320 0.449200 -0.372318
V1    V     V_3+5 0.499540 0.935370 0.490580 1.469927
V2    V     V_3+5 0.500460 0.435370 0.509420 1.467481
C5    C     C_R   0.693195 0.995709 0.737938 0.071101
C6    C     C_R   0.307625 0.491961 0.261503 0.075753
C7    C     C_R   0.680944 0.147204 0.686650 -0.108829
C8    C     C_R   0.319406 0.647359 0.312995 -0.107615
C9    C     C_R   0.733671 0.295766 0.706367 -0.137746
C10   C     C_R   0.266366 0.799545 0.293018 -0.140066
H1    H     H_    0.726065 0.417916 0.669900 0.129914
H2    H     H_    0.273696 0.924950 0.329323 0.128741
C11   C     C_R   0.800197 0.283333 0.770184 -0.099838
C12   C     C_R   0.199833 0.787212 0.229160 -0.086722
H3    H     H_    0.841418 0.396733 0.780809 0.146439
H4    H     H_    0.158484 0.904143 0.218299 0.142318
C13   C     C_R   0.815635 0.122854 0.816879 -0.154441
C14   C     C_R   0.184518 0.622802 0.182855 -0.142555
C15   C     C_R   0.758209 0.984359 0.801579 0.186651
C16   C     C_R   0.242545 0.480581 0.198075 0.158111
C17   C     C_3   0.767663 0.780989 0.789700 0.216358
C18   C     C_3   0.234527 0.278877 0.208667 0.207555
C19   C     C_3   0.696659 0.793640 0.719788 -0.446042
C20   C     C_3   0.305712 0.291180 0.278516 -0.437903
H5    H     H_    0.825541 0.739924 0.771356 0.068224
H6    H     H_    0.177006 0.243532 0.226982 0.070901
H7    H     H_    0.641912 0.723247 0.730085 0.232939
H8    H     H_    0.360875 0.215836 0.267563 0.230829
H9    H     H_    0.713699 0.763134 0.660236 0.137245
H10   H     H_    0.289107 0.266165 0.338020 0.134903
C21   C     C_R   0.335764 0.164096 0.642261 -0.163985
C22   C     C_R   0.662792 0.628986 0.357129 -0.165296
C23   C     C_R   0.170411 0.102379 0.866104 -0.147853
C24   C     C_R   0.830048 0.642810 0.133407 -0.152948
C25   C     C_R   0.281328 0.933176 0.821136 -0.124932
C26   C     C_R   0.723177 0.831981 0.175506 -0.125763
C27   C     C_R   0.227858 0.955275 0.874715 0.425743
C28   C     C_R   0.776304 0.797418 0.122675 0.423394
C29   C     C_R   0.171769 0.231623 0.805594 -0.199486
C30   C     C_R   0.825250 0.520387 0.195602 -0.203191
C31   C     C_R   0.226595 0.211236 0.751561 0.069219
C32   C     C_R   0.770812 0.554124 0.249006 0.066963
C33   C     C_R   0.281153 0.057453 0.758242 0.002250
C34   C     C_R   0.720015 0.714319 0.239816 0.003520
C35   C     C_R   0.335266 0.033010 0.703073 -0.074817
C36   C     C_R   0.666327 0.752430 0.294127 -0.071858
C37   C     C_R   0.281742 0.315942 0.637409 -0.186705
C38   C     C_R   0.713193 0.470478 0.364609 -0.182257
C39   C     C_R   0.227886 0.340252 0.690607 0.403420
C40   C     C_R   0.766343 0.432361 0.311827 0.401840
H11   H     H_    0.281688 0.418639 0.591737 0.162472
H12   H     H_    0.711097 0.373571 0.412075 0.163619
H13   H     H_    0.323339 0.816985 0.829585 0.171193
H14   H     H_    0.684160 0.953165 0.165392 0.173176
H15   H     H_    0.127990 0.344341 0.799445 0.192191
H16   H     H_    0.866103 0.402142 0.203526 0.196100
O11   O     O_R   0.920630 0.775410 0.061150 -0.512468
O12   O     O_R   0.079370 0.275410 0.938850 -0.531390
O13   O     O_R   0.086500 0.441450 0.093690 -0.542188
O14   O     O_R   0.913500 0.941450 0.906310 -0.530896
C41   C     C_R   0.114021 0.610100 0.116150 0.726666
C42   C     C_R   0.886007 0.110268 0.883711 0.739032
O15   O     O_R   0.921670 0.445960 0.070740 -0.537068
O16   O     O_R   0.078330 0.945960 0.929260 -0.520218
O17   O     O_R   0.913380 0.271130 0.915780 -0.531222
O18   O     O_R   0.086620 0.771130 0.084220 -0.520273
C43   C     C_R   0.894491 0.617904 0.084285 0.764607
C44   C     C_R   0.105485 0.110387 0.915294 0.765612
O19   O     O_3   0.997500 0.603030 0.949220 -0.378325
O20   O     O_3   0.002500 0.103030 0.050780 -0.376147
V3    V     V_3+5 0.000470 0.329940 0.009420 1.572620
V4    V     V_3+5 0.999530 0.829940 0.990580 1.619824
Cl1   Cl    Cl    0.164619 0.538897 0.679451 -0.661639
Cl2   Cl    Cl    0.824860 0.226706 0.326221 -0.664805
Cl3   Cl    Cl    0.237701 0.796011 0.953711 -0.548744
Cl4   Cl    Cl    0.770353 0.953053 0.042707 -0.558535
Cl5   Cl    Cl    0.745349 0.658253 0.873077 -0.557655
Cl6   Cl    Cl    0.257166 0.150151 0.123913 -0.555133
C45   C     C_1   0.392327 0.878742 0.710961 0.344207
N1    N     N_1   0.437821 0.755544 0.717375 -0.313445
C46   C     C_1   0.613106 0.913816 0.283243 0.361914
N2    N     N_1   0.570755 0.042667 0.274467 -0.312686

loop_
_geom_bond_atom_site_label_1
_geom_bond_atom_site_label_2
_ccdc_geom_bond_type
C46   N2    T    
C27   Cl3   S    
C20   H10   S    
O1    C3    A    
O2    C4    A    
O16   V4    S    
C2    O7    A    
C25   C27   A    
O5    C3    A    
C40   Cl2   S    
C7    C9    A    
C36   C46   S    
C24   C43   S    
C23   C29   A    
C24   C30   A    
C38   C40   A    
C17   C19   S    
C31   C39   A    
C22   C36   A    
C42   O17   A    
C41   O18   A    
C15   C17   S    
C18   C20   S    
C30   H16   S    
C21   C37   A    
C26   C28   A    
O6    V2    S    
C30   C32   A    
O13   V3    S    
C31   C33   A    
C11   C13   A    
C32   C34   A    
C3    C8    S    
C37   C39   A    
O12   C44   A    
C20   H8    S    
O14   C42   A    
C45   N1    T    
O13   C41   A    
C14   C41   S    
C13   C42   S    
C32   C40   A    
C17   H5    S    
C29   C31   A    
C16   C18   S    
O4    V2    S    
C19   H7    S    
C18   Cl6   S    
O12   V3    S    
C17   Cl5   S    
C23   C27   A    
O6    C4    A    
O1    V2    S    
C29   H15   S    
O2    V1    S    
O14   V4    S    
C39   Cl1   S    
O4    C2    A    
C1    C22   S    
C8    C10   A    
C12   C14   A    
C2    C21   S    
C33   C35   A    
C5    C15   A    
C10   H2    S    
O11   C43   A    
C6    C16   A    
O19   V4    S    
O3    V1    S    
C25   C33   A    
C26   C34   A    
C9    C11   A    
C35   C45   S    
C18   H6    S    
C12   H4    S    
O16   C44   A    
O3    C1    A    
C28   Cl4   S    
C11   H3    S    
C24   C28   A    
C37   H11   S    
C38   H12   S    
C9    H1    S    
O7    V1    S    
C1    O8    A    
C13   C15   A    
O11   V4    S    
O8    V2    S    
C14   C16   A    
O15   V3    S    
O15   C43   A    
C22   C38   A    
C4    C7    S    
O5    V1    S    
C5    C7    A    
C34   C36   A    
C23   C44   S    
C6    C8    A    
C19   H9    S    
C21   C35   A    
O18   V4    S    
O20   V3    S    
C10   C12   A    
O9    V2    S    
O17   V3    S    
O10   V1    S    
C5    C19   S    
C26   H14   S    
C6    C20   S    
C25   H13   S    
