data_mof_unit_26017.cif
_audit_creation_date              2012-12-11T15:07:01-0500
_audit_creation_method            fapswitch 2.2
_symmetry_space_group_name_H-M    P1
_symmetry_Int_Tables_number       1
_space_group_crystal_system       triclinic
_cell_length_a                    19.606669
_cell_length_b                    11.479436
_cell_length_c                    18.678695
_cell_angle_alpha                 90.0
_cell_angle_beta                  90.66011
_cell_angle_gamma                 90.000017
_cell_volume                      4203.8002833

loop_
_atom_site_label
_atom_site_type_symbol
_atom_type_description
_atom_site_fract_x
_atom_site_fract_y
_atom_site_fract_z
_atom_type_partial_charge
C1    C     C_R   0.761090 0.526380 0.640279 0.527447
C2    C     C_3   0.255564 0.064553 0.564754 0.067885
C3    C     C_R   0.730559 0.002574 0.144136 0.547157
C4    C     C_R   0.777005 0.140047 0.861201 0.528746
C5    C     C_R   0.222994 0.140049 0.138798 0.528751
C6    C     C_R   0.277005 0.640047 0.861201 0.528759
C7    C     C_R   0.722994 0.640047 0.138799 0.528742
C8    C     C_R   0.970599 0.353426 0.852625 0.526823
C9    C     C_R   0.029401 0.353426 0.147375 0.526821
C10   C     C_R   0.470599 0.853426 0.852625 0.526824
C11   C     C_R   0.529401 0.853426 0.147375 0.526824
C12   C     C_3   0.679558 0.127746 0.465561 -0.104779
C13   C     C_3   0.244436 0.564553 0.435246 0.067884
C14   C     C_3   0.320442 0.127745 0.534440 -0.104776
C15   C     C_3   0.179559 0.627744 0.465560 -0.104777
C16   C     C_3   0.820440 0.627744 0.534438 -0.104785
C17   C     C_3   0.691047 0.156140 0.545894 -0.218021
C18   C     C_3   0.308953 0.156137 0.454106 -0.218023
C19   C     C_3   0.191047 0.656137 0.545894 -0.218023
C20   C     C_3   0.808953 0.656137 0.454104 -0.218015
C21   C     C_3   0.756054 0.949774 0.479069 -0.232357
C22   C     C_3   0.243944 0.949774 0.520932 -0.232356
C23   C     C_3   0.256056 0.449774 0.479068 -0.232354
C24   C     C_3   0.755563 0.564554 0.564754 0.067877
C25   C     C_3   0.743942 0.449775 0.520931 -0.232356
C26   C     C_3   0.648525 0.231207 0.422281 -0.267057
C27   C     C_3   0.573739 0.215589 0.398888 -0.311651
C28   C     C_3   0.544898 0.327762 0.366465 -0.451423
C29   C     C_3   0.351476 0.231206 0.577719 -0.267054
C30   C     C_3   0.426261 0.215583 0.601117 -0.311620
C31   C     C_3   0.455117 0.327777 0.633498 -0.451466
C32   C     C_3   0.148525 0.731206 0.422281 -0.267052
C33   C     C_3   0.073739 0.715586 0.398888 -0.311626
C34   C     C_3   0.044887 0.827773 0.366492 -0.451433
C35   C     C_3   0.757757 0.097696 0.573326 0.055736
C36   C     C_3   0.851478 0.731203 0.577715 -0.267037
C37   C     C_3   0.926278 0.715600 0.601057 -0.311688
C38   C     C_3   0.955112 0.827747 0.633523 -0.451273
C39   C     C_3   0.782438 0.246684 0.125766 -0.275529
C40   C     C_3   0.746816 0.269818 0.197443 -0.280027
C41   C     C_3   0.782715 0.366080 0.239881 -0.453820
C42   C     C_3   0.217570 0.246693 0.874232 -0.275519
C43   C     C_3   0.253209 0.269875 0.802569 -0.280057
C44   C     C_3   0.217292 0.366102 0.760120 -0.453779
C45   C     C_3   0.282433 0.746692 0.125767 -0.275530
C46   C     C_3   0.242241 0.097696 0.426675 0.055734
C47   C     C_3   0.246801 0.769851 0.197436 -0.280057
C48   C     C_3   0.282707 0.866095 0.239880 -0.453807
C49   C     C_3   0.717564 0.746685 0.874234 -0.275506
C50   C     C_3   0.753193 0.769832 0.802560 -0.280000
C51   C     C_3   0.717291 0.866090 0.760121 -0.453738
C52   C     C_3   0.257759 0.597696 0.573325 0.055735
C53   C     C_3   0.742241 0.597697 0.426675 0.055736
C54   C     C_3   0.748348 0.968982 0.559976 -0.280804
C55   C     C_3   0.251647 0.968983 0.440025 -0.280805
C56   C     C_3   0.248353 0.468983 0.559975 -0.280806
C57   C     C_R   0.238910 0.526380 0.359721 0.527467
C58   C     C_3   0.751646 0.468983 0.440025 -0.280806
C59   C     C_3   0.820159 0.140731 0.529467 -0.217127
C60   C     C_3   0.179840 0.140733 0.470534 -0.217131
C61   C     C_3   0.320160 0.640733 0.529466 -0.217131
C62   C     C_3   0.679840 0.640735 0.470534 -0.217129
C63   C     C_3   0.004142 0.202280 0.458741 -0.229430
C64   C     C_3   0.995856 0.202280 0.541258 -0.229429
C65   C     C_3   0.504142 0.702279 0.458741 -0.229432
C66   C     C_3   0.495858 0.702279 0.541259 -0.229433
C67   C     C_3   0.063717 0.399549 0.474312 -0.215032
C68   C     C_R   0.261090 0.026380 0.640279 0.527473
C69   C     C_3   0.936284 0.399553 0.525688 -0.215038
C70   C     C_3   0.563716 0.899550 0.474312 -0.215035
C71   C     C_3   0.436283 0.899548 0.525687 -0.215032
C72   C     C_3   0.940485 0.384052 0.444442 -0.268444
C73   C     C_3   0.059516 0.384049 0.555559 -0.268447
C74   C     C_3   0.440484 0.884048 0.444441 -0.268449
C75   C     C_3   0.559515 0.884049 0.555558 -0.268449
C76   C     C_3   0.009644 0.329267 0.430466 0.069269
C77   C     C_3   0.990356 0.329267 0.569534 0.069269
C78   C     C_3   0.509644 0.829266 0.430466 0.069271
C79   C     C_R   0.738909 0.026379 0.359722 0.527459
C80   C     C_3   0.490355 0.829265 0.569534 0.069270
C81   C     C_3   0.812626 0.003595 0.042915 -0.236317
C82   C     C_3   0.187373 0.003605 0.957083 -0.236323
C83   C     C_3   0.312627 0.503603 0.042916 -0.236322
C84   C     C_3   0.687374 0.503596 0.957085 -0.236319
C85   C     C_R   0.773772 0.122990 0.649125 0.533795
C86   C     C_R   0.226227 0.122991 0.350876 0.533797
C87   C     C_R   0.273772 0.622991 0.649124 0.533795
C88   C     C_R   0.726227 0.622991 0.350875 0.533801
C89   C     C_3   0.813715 0.012247 0.962432 -0.244254
C90   C     C_3   0.805318 0.144282 0.448725 -0.267787
C91   C     C_3   0.186283 0.012254 0.037566 -0.244254
C92   C     C_3   0.313716 0.512251 0.962434 -0.244255
C93   C     C_3   0.686284 0.512247 0.037567 -0.244253
C94   C     C_3   0.684233 0.005952 0.019663 -0.270302
C95   C     C_3   0.315765 0.005955 0.980336 -0.270300
C96   C     C_3   0.184234 0.505955 0.019665 -0.270299
C97   C     C_3   0.815766 0.505952 0.980337 -0.270305
C98   C     C_3   0.739964 0.182130 0.066748 -0.101583
C99   C     C_3   0.260039 0.182137 0.933253 -0.101591
C100  C     C_3   0.239962 0.682136 0.066747 -0.101590
C101  C     C_3   0.194681 0.144284 0.551276 -0.267788
C102  C     C_3   0.760036 0.682130 0.933253 -0.101585
C103  C     C_3   0.741872 0.048168 0.071205 0.083406
C104  C     C_3   0.258127 0.048175 0.928794 0.083400
C105  C     C_3   0.241873 0.548174 0.071206 0.083403
C106  C     C_3   0.758127 0.548168 0.928795 0.083403
C107  C     C_3   0.760910 0.106286 0.936730 0.056049
C108  C     C_3   0.239090 0.106290 0.063269 0.056051
C109  C     C_3   0.260910 0.606289 0.936730 0.056052
C110  C     C_3   0.739089 0.606286 0.063270 0.056051
C111  C     C_3   0.688098 0.062175 0.945017 -0.247525
C112  C     C_3   0.305319 0.644284 0.448724 -0.267789
C113  C     C_3   0.311900 0.062177 0.054982 -0.247526
C114  C     C_3   0.188099 0.562177 0.945018 -0.247524
C115  C     C_3   0.811900 0.562175 0.054984 -0.247528
C116  C     C_3   0.765329 0.210687 0.989630 -0.251493
C117  C     C_3   0.234672 0.210693 0.010369 -0.251495
C118  C     C_3   0.265328 0.710692 0.989630 -0.251493
C119  C     C_3   0.734670 0.710687 0.010370 -0.251494
C120  C     C_3   0.998324 0.479739 0.040543 -0.231005
C121  C     C_3   0.001676 0.479739 0.959456 -0.231005
C122  C     C_3   0.498324 0.979739 0.040543 -0.231005
C123  C     C_3   0.694681 0.644286 0.551276 -0.267790
C124  C     C_3   0.501676 0.979739 0.959457 -0.231005
C125  C     C_3   0.064888 0.286381 0.030393 -0.210728
C126  C     C_3   0.935111 0.286381 0.969606 -0.210728
C127  C     C_3   0.564888 0.786381 0.030394 -0.210727
C128  C     C_3   0.435111 0.786382 0.969607 -0.210728
C129  C     C_3   0.942598 0.288985 0.052352 -0.266847
C130  C     C_3   0.057401 0.288983 0.947647 -0.266845
C131  C     C_3   0.442598 0.788984 0.052353 -0.266847
C132  C     C_3   0.557402 0.788984 0.947648 -0.266846
C133  C     C_R   0.969507 0.341602 0.645550 0.535212
C134  C     C_3   0.744435 0.064552 0.435246 0.067884
C135  C     C_R   0.030493 0.341602 0.354450 0.535217
C136  C     C_R   0.469507 0.841602 0.645550 0.535216
C137  C     C_R   0.530493 0.841602 0.354450 0.535217
C138  C     C_3   0.008209 0.352864 0.070129 0.069177
C139  C     C_3   0.991790 0.352864 0.929871 0.069177
C140  C     C_3   0.508209 0.852864 0.070129 0.069177
C141  C     C_3   0.491790 0.852864 0.929871 0.069178
C142  C     C_R   0.769440 0.502575 0.855864 0.547156
C143  C     C_R   0.230561 0.502580 0.144137 0.547161
C144  C     C_R   0.269439 0.002581 0.855863 0.547164
Cr1   Cr    Cr6+3 0.885690 0.492860 0.745310 0.955254
Cr2   Cr    Cr6+3 0.111880 0.178590 0.246990 0.977781
Cr3   Cr    Cr6+3 0.388120 0.678590 0.753010 0.977778
Cr4   Cr    Cr6+3 0.611880 0.678590 0.246990 0.977781
Cr5   Cr    Cr6+3 0.114310 0.492860 0.254690 0.955233
Cr6   Cr    Cr6+3 0.385690 0.992860 0.745310 0.955231
Cr7   Cr    Cr6+3 0.614310 0.992860 0.254690 0.955235
Cr8   Cr    Cr6+3 0.729880 0.332270 0.748190 0.979463
Cr9   Cr    Cr6+3 0.270120 0.332270 0.251810 0.979467
Cr10  Cr    Cr6+3 0.229880 0.832270 0.748190 0.979467
Cr11  Cr    Cr6+3 0.770120 0.832270 0.251810 0.979463
Cr12  Cr    Cr6+3 0.888120 0.178590 0.753010 0.977791
H1    H     H_    0.641955 0.062103 0.464776 0.150057
H2    H     H_    0.190573 0.924605 0.531157 0.127393
H3    H     H_    0.888656 0.326099 0.949494 0.103250
H4    H     H_    0.600208 0.836278 0.923762 0.099979
H5    H     H_    0.399792 0.836278 0.076239 0.099978
H6    H     H_    0.100207 0.336276 0.923761 0.099978
H7    H     H_    0.899792 0.336280 0.076237 0.099978
H8    H     H_    0.943724 0.199056 0.074445 0.108594
H9    H     H_    0.056274 0.199054 0.925555 0.108596
H10   H     H_    0.443725 0.699055 0.074445 0.108596
H11   H     H_    0.556275 0.699055 0.925555 0.108594
H12   H     H_    0.934285 0.193626 0.952693 0.132872
H13   H     H_    0.309427 0.424605 0.468842 0.127395
H14   H     H_    0.065714 0.193626 0.047308 0.132872
H15   H     H_    0.434285 0.693627 0.952692 0.132873
H16   H     H_    0.565713 0.693625 0.047307 0.132872
H17   H     H_    0.646622 0.125410 0.577314 0.100822
H18   H     H_    0.353377 0.125404 0.422687 0.100821
H19   H     H_    0.146622 0.625403 0.577313 0.100815
H20   H     H_    0.853377 0.625402 0.422685 0.100820
H21   H     H_    0.722846 0.878704 0.461030 0.109221
H22   H     H_    0.277153 0.878705 0.538969 0.109222
H23   H     H_    0.222847 0.378705 0.461031 0.109221
H24   H     H_    0.690572 0.424607 0.531157 0.127397
H25   H     H_    0.777153 0.378706 0.538969 0.109221
H26   H     H_    0.697778 0.939199 0.578361 0.102154
H27   H     H_    0.302214 0.939193 0.421636 0.102152
H28   H     H_    0.197787 0.439192 0.578365 0.102152
H29   H     H_    0.802213 0.439193 0.421636 0.102150
H30   H     H_    0.850386 0.113680 0.418679 0.116768
H31   H     H_    0.149613 0.113683 0.581322 0.116764
H32   H     H_    0.350387 0.613683 0.418678 0.116766
H33   H     H_    0.649613 0.613687 0.581322 0.116764
H34   H     H_    0.793510 0.234111 0.430993 0.109636
H35   H     H_    0.786354 0.922021 0.591803 0.117806
H36   H     H_    0.206491 0.234113 0.569008 0.109639
H37   H     H_    0.293509 0.734113 0.430992 0.109639
H38   H     H_    0.706492 0.734115 0.569008 0.109642
H39   H     H_    0.839146 0.223901 0.549262 0.115638
H40   H     H_    0.160854 0.223903 0.450739 0.115637
H41   H     H_    0.339146 0.723903 0.549261 0.115638
H42   H     H_    0.660853 0.723904 0.450738 0.115637
H43   H     H_    0.545624 0.399035 0.406736 0.148281
H44   H     H_    0.575305 0.354557 0.319407 0.161413
H45   H     H_    0.491304 0.313126 0.348802 0.139212
H46   H     H_    0.213634 0.922029 0.408203 0.117818
H47   H     H_    0.569876 0.147037 0.357844 0.227799
H48   H     H_    0.542266 0.191422 0.445696 0.138531
H49   H     H_    0.646542 0.307701 0.456958 0.139697
H50   H     H_    0.679616 0.249737 0.374329 0.156102
H51   H     H_    0.454412 0.399001 0.593196 0.148262
H52   H     H_    0.424707 0.354644 0.680538 0.161438
H53   H     H_    0.508707 0.313136 0.651178 0.139215
H54   H     H_    0.430116 0.147067 0.642187 0.227788
H55   H     H_    0.457731 0.191363 0.554317 0.138534
H56   H     H_    0.353461 0.307698 0.543040 0.139703
H57   H     H_    0.286367 0.422030 0.591796 0.117815
H58   H     H_    0.320384 0.249741 0.625669 0.156081
H59   H     H_    0.045617 0.899025 0.406777 0.148277
H60   H     H_    0.075285 0.854595 0.319431 0.161416
H61   H     H_    0.991289 0.813141 0.348836 0.139214
H62   H     H_    0.069878 0.647055 0.357828 0.227788
H63   H     H_    0.042270 0.691386 0.445693 0.138518
H64   H     H_    0.146542 0.807699 0.456959 0.139697
H65   H     H_    0.179615 0.749738 0.374329 0.156092
H66   H     H_    0.954229 0.899159 0.593332 0.148319
H67   H     H_    0.924797 0.854323 0.680707 0.161291
H68   H     H_    0.713634 0.422030 0.408202 0.117824
H69   H     H_    0.008765 0.813170 0.651023 0.139210
H70   H     H_    0.930176 0.646992 0.642064 0.227761
H71   H     H_    0.957729 0.691510 0.554215 0.138501
H72   H     H_    0.853436 0.807705 0.543046 0.139677
H73   H     H_    0.820409 0.749715 0.625685 0.156137
H74   H     H_    0.837333 0.343975 0.248771 0.145766
H75   H     H_    0.778914 0.450353 0.211327 0.177978
H76   H     H_    0.758109 0.375688 0.292628 0.134651
H77   H     H_    0.692628 0.294774 0.188428 0.167453
H78   H     H_    0.749718 0.191491 0.231806 0.213650
H79   H     H_    0.047707 0.150508 0.442792 0.129049
H80   H     H_    0.831518 0.202350 0.137131 0.151785
H81   H     H_    0.793492 0.332085 0.103483 0.135070
H82   H     H_    0.162694 0.343902 0.751169 0.145742
H83   H     H_    0.221014 0.450366 0.788697 0.177933
H84   H     H_    0.241942 0.375788 0.707400 0.134705
H85   H     H_    0.307385 0.294889 0.811609 0.167425
H86   H     H_    0.250350 0.191553 0.768199 0.213651
H87   H     H_    0.168498 0.202344 0.862847 0.151808
H88   H     H_    0.206498 0.332082 0.896522 0.135065
H89   H     H_    0.337313 0.843942 0.248804 0.145755
H90   H     H_    0.952290 0.150510 0.557208 0.129038
H91   H     H_    0.278949 0.950360 0.211313 0.177959
H92   H     H_    0.258076 0.875748 0.292611 0.134684
H93   H     H_    0.192621 0.794836 0.188407 0.167442
H94   H     H_    0.249680 0.691530 0.231801 0.213651
H95   H     H_    0.331508 0.702350 0.137143 0.151799
H96   H     H_    0.293496 0.832085 0.103480 0.135070
H97   H     H_    0.662678 0.843923 0.751178 0.145731
H98   H     H_    0.721038 0.950361 0.788707 0.177933
H99   H     H_    0.741942 0.875758 0.707394 0.134701
H100  H     H_    0.807382 0.794801 0.811583 0.167428
H101  H     H_    0.547707 0.650507 0.442791 0.129047
H102  H     H_    0.750300 0.691504 0.768191 0.213631
H103  H     H_    0.668485 0.702346 0.862862 0.151785
H104  H     H_    0.706504 0.832083 0.896520 0.135057
H105  H     H_    0.358043 0.062100 0.535225 0.150060
H106  H     H_    0.452292 0.650506 0.557209 0.129051
H107  H     H_    0.960212 0.157278 0.433286 0.104898
H108  H     H_    0.039785 0.157276 0.566714 0.104897
H109  H     H_    0.460213 0.657276 0.433286 0.104895
H110  H     H_    0.539787 0.657276 0.566713 0.104896
H111  H     H_    0.615162 0.884162 0.455180 0.105823
H112  H     H_    0.384836 0.884159 0.544820 0.105821
H113  H     H_    0.115163 0.384159 0.455180 0.105821
H114  H     H_    0.884837 0.384159 0.544820 0.105821
H115  H     H_    0.601191 0.827649 0.576038 0.104778
H116  H     H_    0.141957 0.562100 0.464775 0.150059
H117  H     H_    0.398808 0.827647 0.423961 0.104781
H118  H     H_    0.101191 0.327648 0.576039 0.104779
H119  H     H_    0.898808 0.327652 0.423962 0.104780
H120  H     H_    0.935190 0.469990 0.417387 0.116239
H121  H     H_    0.064811 0.469986 0.582613 0.116234
H122  H     H_    0.435189 0.969986 0.417387 0.116236
H123  H     H_    0.564810 0.969987 0.582613 0.116238
H124  H     H_    0.950259 0.491542 0.535745 0.123649
H125  H     H_    0.049742 0.491537 0.464257 0.123655
H126  H     H_    0.450258 0.991535 0.535743 0.123655
H127  H     H_    0.858040 0.562096 0.535222 0.150055
H128  H     H_    0.549740 0.991538 0.464257 0.123653
H129  H     H_    0.827565 0.914876 0.059351 0.126423
H130  H     H_    0.172433 0.914886 0.940647 0.126427
H131  H     H_    0.327566 0.414884 0.059352 0.126426
H132  H     H_    0.672435 0.414877 0.940649 0.126424
H133  H     H_    0.854646 0.057529 0.065273 0.120349
H134  H     H_    0.145354 0.057543 0.934725 0.120347
H135  H     H_    0.354646 0.557540 0.065274 0.120347
H136  H     H_    0.645354 0.557531 0.934726 0.120349
H137  H     H_    0.867103 0.033254 0.948113 0.133557
H138  H     H_    0.860620 0.074671 0.537697 0.126724
H139  H     H_    0.132896 0.033261 0.051885 0.133556
H140  H     H_    0.367103 0.533258 0.948114 0.133556
H141  H     H_    0.632896 0.533256 0.051886 0.133558
H142  H     H_    0.801852 0.926834 0.937795 0.127724
H143  H     H_    0.198146 0.926840 0.062201 0.127726
H144  H     H_    0.301852 0.426838 0.937798 0.127727
H145  H     H_    0.698146 0.426835 0.062205 0.127723
H146  H     H_    0.691085 0.914833 0.010350 0.103611
H147  H     H_    0.308912 0.914836 0.989648 0.103611
H148  H     H_    0.191086 0.414836 0.010353 0.103610
H149  H     H_    0.139379 0.074675 0.462305 0.126743
H150  H     H_    0.808914 0.414833 0.989650 0.103612
H151  H     H_    0.672452 0.002947 0.901458 0.098086
H152  H     H_    0.327546 0.002948 0.098541 0.098097
H153  H     H_    0.172452 0.502948 0.901460 0.098090
H154  H     H_    0.827546 0.502947 0.098544 0.098104
H155  H     H_    0.686251 0.213059 0.070817 0.132546
H156  H     H_    0.313753 0.213062 0.929186 0.132549
H157  H     H_    0.186248 0.713062 0.070815 0.132548
H158  H     H_    0.813749 0.713059 0.929185 0.132544
H159  H     H_    0.818322 0.229350 0.996437 0.116542
H160  H     H_    0.360621 0.574675 0.537695 0.126745
H161  H     H_    0.181679 0.229357 0.003561 0.116542
H162  H     H_    0.318320 0.729356 0.996437 0.116542
H163  H     H_    0.681677 0.729350 0.003562 0.116542
H164  H     H_    0.737038 0.283304 0.967082 0.105233
H165  H     H_    0.262963 0.283309 0.032919 0.105235
H166  H     H_    0.237036 0.783308 0.967080 0.105234
H167  H     H_    0.762960 0.783304 0.032919 0.105233
H168  H     H_    0.634811 0.022758 0.043464 0.123294
H169  H     H_    0.365188 0.022759 0.956536 0.123295
H170  H     H_    0.134811 0.522760 0.043465 0.123295
H171  H     H_    0.639378 0.574676 0.462305 0.126741
H172  H     H_    0.865189 0.522758 0.956537 0.123294
H173  H     H_    0.693769 0.249050 0.556293 0.139410
H174  H     H_    0.306232 0.249047 0.443707 0.139408
H175  H     H_    0.193767 0.749047 0.556293 0.139405
H176  H     H_    0.806233 0.749047 0.443705 0.139412
H177  H     H_    0.651391 0.136129 0.941572 0.121537
H178  H     H_    0.348609 0.136129 0.058428 0.121536
H179  H     H_    0.151390 0.636130 0.941572 0.121535
H180  H     H_    0.848608 0.636128 0.058429 0.121537
H181  H     H_    0.033454 0.546511 0.061773 0.132946
H182  H     H_    0.809425 0.924606 0.468844 0.127396
H183  H     H_    0.966547 0.546510 0.938227 0.132946
H184  H     H_    0.533453 0.046511 0.061773 0.132946
H185  H     H_    0.466546 0.046510 0.938227 0.132946
H186  H     H_    0.948067 0.513404 0.057276 0.113705
H187  H     H_    0.051934 0.513403 0.942724 0.113706
H188  H     H_    0.448066 0.013404 0.057276 0.113705
H189  H     H_    0.551933 0.013404 0.942724 0.113706
H190  H     H_    0.611343 0.826098 0.050506 0.103250
H191  H     H_    0.388656 0.826101 0.949495 0.103251
H192  H     H_    0.111343 0.326099 0.050505 0.103250
O1    O     O_R   0.957210 0.449410 0.665480 -0.553337
O2    O     O_R   0.167480 0.095300 0.164000 -0.536910
O3    O     O_R   0.332520 0.595300 0.836000 -0.536906
O4    O     O_R   0.667480 0.595300 0.164000 -0.536916
O5    O     O_R   0.946380 0.253940 0.826940 -0.514557
O6    O     O_R   0.053620 0.253940 0.173060 -0.514556
O7    O     O_R   0.446380 0.753940 0.826940 -0.514557
O8    O     O_R   0.553620 0.753940 0.173060 -0.514555
O9    O     O_3   0.834560 0.334570 0.748840 -0.278284
O10   O     O_3   0.165440 0.334570 0.251160 -0.278282
O11   O     O_3   0.334560 0.834570 0.748840 -0.278281
O12   O     O_R   0.042790 0.449410 0.334520 -0.553328
O13   O     O_3   0.665440 0.834570 0.251160 -0.278284
O14   O     O_R   0.820730 0.541240 0.668250 -0.526430
O15   O     O_R   0.179270 0.541240 0.331750 -0.526453
O16   O     O_R   0.320730 0.041240 0.668250 -0.526458
O17   O     O_R   0.679270 0.041240 0.331750 -0.526449
O18   O     O_R   0.714240 0.455060 0.663710 -0.531394
O19   O     O_R   0.285760 0.455060 0.336290 -0.531391
O20   O     O_R   0.214240 0.955060 0.663710 -0.531393
O21   O     O_R   0.785760 0.955060 0.336290 -0.531394
O22   O     O_R   0.736780 0.204870 0.675910 -0.514807
O23   O     O_R   0.457210 0.949410 0.665480 -0.553325
O24   O     O_R   0.263220 0.204870 0.324090 -0.514805
O25   O     O_R   0.236780 0.704870 0.675910 -0.514806
O26   O     O_R   0.763220 0.704870 0.324090 -0.514808
O27   O     O_R   0.833070 0.087590 0.673490 -0.532878
O28   O     O_R   0.166930 0.087590 0.326510 -0.532897
O29   O     O_R   0.333070 0.587590 0.673490 -0.532901
O30   O     O_R   0.666930 0.587590 0.326510 -0.532894
O31   O     O_R   0.946890 0.246800 0.676300 -0.510428
O32   O     O_R   0.053110 0.246800 0.323700 -0.510427
O33   O     O_R   0.446890 0.746800 0.676300 -0.510428
O34   O     O_R   0.542790 0.949410 0.334520 -0.553333
O35   O     O_R   0.553110 0.746800 0.323700 -0.510427
O36   O     O_R   0.956650 0.457120 0.827980 -0.535029
O37   O     O_R   0.043350 0.457120 0.172020 -0.535035
O38   O     O_R   0.456650 0.957120 0.827980 -0.535036
O39   O     O_R   0.543350 0.957120 0.172020 -0.535034
O40   O     O_R   0.820220 0.548390 0.818890 -0.526777
O41   O     O_R   0.179780 0.548390 0.181110 -0.526781
O42   O     O_R   0.320220 0.048390 0.818890 -0.526782
O43   O     O_R   0.679780 0.048390 0.181110 -0.526780
O44   O     O_R   0.713680 0.462770 0.826210 -0.537376
O45   O     O_R   0.736260 0.212010 0.826560 -0.519348
O46   O     O_R   0.286320 0.462770 0.173790 -0.537373
O47   O     O_R   0.213680 0.962770 0.826210 -0.537370
O48   O     O_R   0.786320 0.962770 0.173790 -0.537376
O49   O     O_R   0.263740 0.212010 0.173440 -0.519346
O50   O     O_R   0.236260 0.712010 0.826560 -0.519346
O51   O     O_R   0.763740 0.712010 0.173440 -0.519346
O52   O     O_R   0.832520 0.095300 0.836000 -0.536907

loop_
_geom_bond_atom_site_label_1
_geom_bond_atom_site_label_2
_ccdc_geom_bond_type
C10   O38   A    
C114  H153  S    
C64   C77   S    
C137  O34   A    
C100  H157  S    
C15   C32   S    
Cr1   O40   S    
C97   H150  S    
Cr4   O35   S    
C13   C112  S    
C52   C61   S    
C79   O21   A    
C45   H96   S    
C90   C134  S    
C49   H104  S    
C92   C109  S    
C63   C76   S    
C88   O26   A    
C125  H192  S    
C94   C111  S    
C71   C80   S    
C47   H94   S    
C131  C140  S    
Cr2   O6    S    
C41   H75   S    
C131  H10   S    
Cr2   O32   S    
C46   C55   S    
C2    C22   S    
C12   H1    S    
C97   C115  S    
C23   H23   S    
Cr10  O25   S    
C93   C110  S    
C21   H21   S    
C84   H132  S    
Cr7   O39   S    
C96   H170  S    
C128  H191  S    
C93   H141  S    
C26   H50   S    
C94   H146  S    
C121  H187  S    
C17   H17   S    
C109  C118  S    
C106  C142  S    
C3    O43   A    
C45   C47   S    
C126  C139  S    
C4    C107  S    
C28   H43   S    
C21   H182  S    
C6    O3    A    
C61   H41   S    
C49   C102  S    
C83   H135  S    
C39   C98   S    
C90   H30   S    
C126  C129  S    
C73   H121  S    
Cr9   O49   S    
C82   C91   S    
C83   C105  S    
C129  H8    S    
C10   C141  S    
C11   C140  S    
C108  C113  S    
C65   H101  S    
C43   C44   S    
C31   H51   S    
C37   C38   S    
C9    C138  S    
Cr4   O30   S    
C31   H53   S    
C16   C20   S    
C5    O2    A    
Cr4   O4    S    
C7    O4    A    
C37   H70   S    
C87   O25   A    
C120  C138  S    
C84   H136  S    
C39   C40   S    
Cr8   O18   S    
C29   H56   S    
C86   O24   A    
C3    C103  S    
C46   C60   S    
C71   H126  S    
C40   H77   S    
C44   H82   S    
C53   C58   S    
C125  C138  S    
C6    O50   A    
C50   H102  S    
C136  O23   A    
C1    O14   A    
C34   H59   S    
C18   H174  S    
C130  H9    S    
C21   C54   S    
C94   H168  S    
Cr5   O10   S    
Cr11  O21   S    
C84   C93   S    
C2    C14   S    
Cr3   O3    S    
C48   H92   S    
C87   O29   A    
C95   H147  S    
Cr3   O29   S    
C51   H98   S    
C102  C119  S    
C11   O8    A    
C8    O5    A    
C71   H112  S    
C72   H119  S    
C69   C77   S    
C67   H125  S    
C25   H24   S    
C102  H158  S    
C126  H3    S    
C111  H151  S    
C118  H162  S    
C27   H47   S    
C28   H45   S    
Cr5   O41   S    
C36   C37   S    
C122  H188  S    
C2    C68   S    
C118  H166  S    
C13   C57   S    
C13   C23   S    
C60   H149  S    
C61   H160  S    
C11   O39   A    
C123  H38   S    
Cr8   O22   S    
C9    O37   A    
C95   H169  S    
C130  H6    S    
C19   H175  S    
C12   C134  S    
C99   H156  S    
C44   H84   S    
C76   C135  S    
C33   H63   S    
C43   H86   S    
Cr9   O10   S    
C144  O47   A    
Cr7   O13   S    
Cr8   O9    S    
Cr2   O10   S    
C30   H55   S    
C3    O48   A    
C68   O16   A    
Cr5   O12   S    
Cr12  O9    S    
C24   C123  S    
C12   C26   S    
Cr12  O5    S    
C69   C72   S    
C29   C30   S    
C99   C117  S    
C65   H109  S    
Cr11  O48   S    
C23   H13   S    
Cr7   O43   S    
C73   H118  S    
Cr9   O46   S    
C64   H90   S    
C32   H64   S    
C142  O44   A    
C109  C114  S    
C18   H18   S    
C85   O22   A    
C119  H167  S    
C6    C109  S    
C124  C141  S    
C81   H129  S    
C127  C140  S    
C14   C29   S    
C122  C124  S    
C15   H116  S    
C78   C137  S    
C39   H81   S    
C83   H131  S    
C120  C121  S    
C20   H176  S    
C48   H89   S    
C90   H34   S    
Cr9   O24   S    
C132  C141  S    
C79   C134  S    
C74   H122  S    
C82   C104  S    
Cr10  O50   S    
C107  C111  S    
C108  C117  S    
Cr6   O11   S    
C127  H190  S    
C110  C119  S    
C66   C80   S    
Cr4   O8    S    
C7    C110  S    
C121  C139  S    
C122  C140  S    
C34   H60   S    
C45   H95   S    
C35   C85   S    
C20   H20   S    
C59   H138  S    
C111  H177  S    
Cr6   O42   S    
Cr7   O34   S    
C19   H19   S    
C107  C116  S    
C47   H93   S    
Cr1   O1    S    
C63   C64   S    
C41   H74   S    
C128  H15   S    
C49   C50   S    
Cr11  O26   S    
C70   C75   S    
C96   H148  S    
C101  H31   S    
C61   C112  S    
C81   H133  S    
Cr12  O27   S    
C58   H29   S    
Cr11  O51   S    
C96   C105  S    
C128  C131  S    
Cr12  O52   S    
C1    O18   A    
C5    O49   A    
C132  H11   S    
C143  O46   A    
C96   C114  S    
C32   H65   S    
C116  H164  S    
Cr1   O14   S    
C15   C19   S    
C26   C27   S    
C57   O15   A    
C126  H12   S    
C81   C103  S    
C39   H80   S    
Cr9   O19   S    
C98   C103  S    
C42   H87   S    
C113  H152  S    
C129  H7    S    
C35   C59   S    
Cr10  O47   S    
C73   C77   S    
C19   C52   S    
C36   H73   S    
C12   C17   S    
C62   H171  S    
C84   C106  S    
C67   C73   S    
C128  C141  S    
C72   C76   S    
C81   C89   S    
C99   C104  S    
C35   C54   S    
Cr5   O37   S    
C137  O35   A    
C130  C139  S    
C18   C46   S    
C89   H142  S    
C10   O7    A    
C34   H61   S    
Cr11  O13   S    
C70   H111  S    
C40   H78   S    
C58   H68   S    
C22   H2    S    
C33   H62   S    
C69   H124  S    
Cr3   O11   S    
Cr6   O38   S    
C30   H54   S    
C9    O6    A    
C143  O41   A    
C41   H76   S    
C91   H143  S    
C89   C107  S    
C50   C51   S    
C28   H44   S    
C114  H179  S    
C125  H14   S    
C38   H69   S    
C97   C106  S    
C94   C103  S    
Cr7   O17   S    
C26   H49   S    
C100  C118  S    
C42   C43   S    
C51   H97   S    
C21   C134  S    
C68   O20   A    
C85   O27   A    
C65   C78   S    
C72   H120  S    
C91   C108  S    
C8    O36   A    
C20   C53   S    
C45   C100  S    
C63   H107  S    
C71   C74   S    
C64   H108  S    
C22   C55   S    
Cr10  O11   S    
C56   H28   S    
C92   H140  S    
C74   H117  S    
C80   C136  S    
C144  O42   A    
C32   C33   S    
C38   H66   S    
C16   H127  S    
C31   H52   S    
C142  O40   A    
C17   H173  S    
C89   H137  S    
C29   H58   S    
Cr5   O15   S    
C75   H115  S    
C91   H139  S    
C82   H130  S    
C79   O17   A    
C63   H79   S    
C67   H113  S    
Cr10  O20   S    
C37   H71   S    
C88   O30   A    
C74   C78   S    
C55   H27   S    
C17   C35   S    
C66   H106  S    
C110  C115  S    
C16   C36   S    
C5    C108  S    
C38   H67   S    
C133  O1    A    
Cr1   O36   S    
C70   C78   S    
C49   H103  S    
C14   C18   S    
C22   H22   S    
C101  H36   S    
C113  H178  S    
Cr8   O44   S    
C23   C56   S    
C115  H180  S    
C43   H85   S    
C83   C92   S    
C100  C105  S    
C132  H4    S    
C92   H144  S    
C8    C139  S    
Cr6   O16   S    
C93   H145  S    
C48   H91   S    
C124  H185  S    
C121  H183  S    
C116  H159  S    
C117  H165  S    
C131  H5    S    
C136  O33   A    
C127  C132  S    
C82   H134  S    
C125  C130  S    
C129  C138  S    
C4    O52   A    
C54   H26   S    
C123  H33   S    
C75   C80   S    
C66   H110  S    
C135  O32   A    
C69   H114  S    
Cr12  O31   S    
C16   C24   S    
C57   O19   A    
C77   C133  S    
C62   C123  S    
C25   H25   S    
C54   H35   S    
C27   H48   S    
C115  H154  S    
C50   H100  S    
C24   C25   S    
C62   H42   S    
C105  C143  S    
C120  H181  S    
Cr1   O9    S    
C124  H189  S    
C86   O28   A    
C2    C101  S    
C127  H16   S    
C55   H46   S    
C133  O31   A    
C75   H123  S    
C59   C90   S    
C14   H105  S    
Cr8   O45   S    
C53   C62   S    
C98   C116  S    
C47   C48   S    
C30   C31   S    
C7    O51   A    
C33   C34   S    
C97   H172  S    
C56   H57   S    
C1    C24   S    
C40   C41   S    
Cr4   O13   S    
C13   C15   S    
C25   C58   S    
C60   C101  S    
C44   H83   S    
C98   H155  S    
C95   C104  S    
C60   H40   S    
Cr3   O7    S    
C4    O45   A    
C51   H99   S    
Cr3   O33   S    
C52   C87   S    
C112  H32   S    
C42   C99   S    
C117  H161  S    
C95   C113  S    
C70   H128  S    
C42   H88   S    
Cr6   O23   S    
C119  H163  S    
C102  C106  S    
C53   C88   S    
C135  O12   A    
Cr2   O2    S    
C122  H184  S    
C112  H37   S    
C59   H39   S    
C104  C144  S    
C120  H186  S    
Cr2   O28   S    
C36   H72   S    
C65   C66   S    
C27   C28   S    
C67   C76   S    
C52   C56   S    
C46   C86   S    
