data_mof_unit_57492.cif
_audit_creation_date              2013-03-05T16:35:30-0500
_audit_creation_method            fapswitch 2.2
_symmetry_space_group_name_H-M    P1
_symmetry_Int_Tables_number       1
_space_group_crystal_system       triclinic
_cell_length_a                    10.797559
_cell_length_b                    14.864015
_cell_length_c                    14.313399
_cell_angle_alpha                 89.448414
_cell_angle_beta                  91.770511
_cell_angle_gamma                 92.058767
_cell_volume                      2294.567838

loop_
_atom_site_label
_atom_site_type_symbol
_atom_site_description
_atom_site_fract_x
_atom_site_fract_y
_atom_site_fract_z
_atom_type_partial_charge
O1    O     O_R   0.500010 0.369070 0.579480 -0.574417
O2    O     O_R   0.499990 0.630930 0.420520 -0.589528
O3    O     O_R   0.500010 0.369060 0.420520 -0.634591
O4    O     O_R   0.499990 0.630940 0.579480 -0.610202
C1    C     C_R   0.497956 0.327757 0.500158 0.885128
C2    C     C_R   0.496796 0.672382 0.499406 0.905753
O5    O     O_R   0.316760 0.500010 0.579480 -0.585614
O6    O     O_R   0.683240 0.499990 0.420520 -0.594765
O7    O     O_R   0.316760 0.500000 0.420520 -0.657846
O8    O     O_R   0.683240 0.500000 0.579480 -0.651286
C3    C     C_R   0.260194 0.501347 0.498439 0.869193
C4    C     C_R   0.739837 0.497532 0.501358 0.890793
Zn1   Zn    Zn3+2 0.500000 0.500010 0.606140 1.010871
Zn2   Zn    Zn3+2 0.500000 0.499990 0.393860 0.997379
H1    H     H_    0.206845 0.620768 0.075009 0.224943
H2    H     H_    0.809042 0.474228 0.942462 0.239949
C5    C     C_R   0.204646 0.646474 0.221258 -0.170453
C6    C     C_R   0.816473 0.403869 0.813614 -0.154341
H3    H     H_    0.251751 0.711623 0.214520 0.201989
H4    H     H_    0.782530 0.340779 0.843307 0.220206
C7    C     C_R   0.167357 0.616020 0.308561 -0.104683
C8    C     C_R   0.847987 0.408492 0.719977 -0.121982
H5    H     H_    0.184204 0.659103 0.368599 0.148237
H6    H     H_    0.840427 0.348150 0.678033 0.175146
C9    C     C_R   0.107541 0.531218 0.318807 -0.026284
C10   C     C_R   0.892575 0.489937 0.681241 -0.040861
C11   C     C_R   0.083191 0.476763 0.238430 0.424303
C12   C     C_R   0.902835 0.568475 0.736962 0.359749
C13   C     C_R   0.116283 0.510119 0.149088 0.373027
C14   C     C_R   0.874034 0.562293 0.831857 0.337205
C15   C     C_R   0.178660 0.594503 0.142172 -0.232642
C16   C     C_R   0.831768 0.479826 0.869754 -0.229042
C17   C     C_R   0.930029 0.497220 0.416585 -0.165304
C18   C     C_R   0.070103 0.490830 0.581916 -0.159684
H7    H     H_    0.876309 0.497400 0.351677 0.231486
H8    H     H_    0.123629 0.486507 0.647120 0.217026
C19   C     C_R   0.872441 0.493140 0.502831 -0.111251
C20   C     C_R   0.127551 0.500785 0.496067 -0.103576
C21   C     C_R   0.943404 0.489552 0.586652 -0.009475
C22   C     C_R   0.056856 0.506636 0.411775 -0.013433
C23   C     C_R   0.366550 0.098152 0.548706 0.478714
C24   C     C_R   0.403295 0.898481 0.413512 0.477992
C25   C     C_R   0.389315 0.190353 0.552929 -0.091398
C26   C     C_R   0.425467 0.807290 0.416460 -0.127301
H9    H     H_    0.332283 0.230035 0.596105 0.226184
H10   H     H_    0.400203 0.767018 0.355666 0.188694
C27   C     C_R   0.481345 0.231580 0.499051 -0.135224
C28   C     C_R   0.477735 0.768024 0.497233 -0.137691
C29   C     C_R   0.548763 0.181817 0.437554 -0.163795
C30   C     C_R   0.504953 0.819511 0.576808 -0.149568
H11   H     H_    0.618348 0.214079 0.394315 0.180966
H12   H     H_    0.544411 0.789867 0.639832 0.226820
C31   C     C_R   0.528176 0.089719 0.433194 -0.137564
C32   C     C_R   0.484666 0.910669 0.574510 -0.151091
H13   H     H_    0.584326 0.050698 0.388210 0.196768
H14   H     H_    0.511122 0.950997 0.635095 0.202389
C33   C     C_R   0.438866 0.047618 0.489239 -0.075716
C34   C     C_R   0.436107 0.950520 0.493056 -0.069421
C35   C     C_R   0.419955 0.450270 0.101614 -0.163936
C36   C     C_R   0.538416 0.577134 0.894351 -0.236356
H15   H     H_    0.349097 0.411391 0.063477 0.243539
H16   H     H_    0.560106 0.640449 0.928064 0.245599
C37   C     C_R   0.419823 0.445958 0.199475 0.464332
C38   C     C_R   0.543134 0.574461 0.796446 0.479662
N1    N     N_R   0.500000 0.499980 0.252470 -0.231145
N2    N     N_R   0.500000 0.500020 0.747530 -0.214463
C39   C     C_R   0.580981 0.557967 0.208299 0.294635
C40   C     C_R   0.464819 0.424104 0.796830 0.277497
C41   C     C_R   0.592522 0.556386 0.109958 0.161860
C42   C     C_R   0.478952 0.420003 0.895978 0.157753
C43   C     C_R   0.509502 0.502118 0.053796 -0.065264
C44   C     C_R   0.511167 0.499249 0.947187 -0.072392
O9    O     O_3   0.335331 0.386701 0.238775 -0.730002
H17   H     H_    0.343952 0.391031 0.306957 0.381738
O10   O     O_3   0.596908 0.647385 0.752254 -0.715464
H18   H     H_    0.647018 0.623028 0.702294 0.359380
N3    N     N_R   0.649890 0.625274 0.260689 0.261386
O11   O     O_R   0.768954 0.618637 0.272660 -0.348279
O12   O     O_R   0.603534 0.704453 0.266878 -0.350632
N4    N     N_R   0.412717 0.347874 0.748325 0.250849
O13   O     O_R   0.300357 0.350891 0.713338 -0.374735
O14   O     O_R   0.467846 0.271445 0.752848 -0.343819
N5    N     N_R   0.695423 0.604813 0.070910 0.214605
O15   O     O_R   0.803782 0.570160 0.081577 -0.324007
O16   O     O_R   0.690055 0.691644 0.060398 -0.283435
N6    N     N_R   0.464734 0.334648 0.943001 0.229235
O17   O     O_R   0.552746 0.306561 0.998927 -0.332643
O18   O     O_R   0.363507 0.285332 0.931248 -0.257121
O19   O     O_3   0.030098 0.391004 0.245070 -0.679656
H19   H     H_    0.035941 0.369489 0.310642 0.341716
O20   O     O_3   0.944951 0.650963 0.702653 -0.698579
H20   H     H_    0.944842 0.649763 0.633566 0.343510
N7    N     N_R   0.088986 0.458765 0.065308 0.241286
O21   O     O_R   0.139279 0.482384 0.986860 -0.383843
O22   O     O_R   0.009176 0.391020 0.065036 -0.255782
N8    N     N_R   0.890392 0.639702 0.890212 0.266919
O23   O     O_R   0.841687 0.715298 0.864978 -0.254443
O24   O     O_R   0.970491 0.638939 0.959888 -0.282144
O25   O     O_3   0.274259 0.060847 0.603212 -0.708708
H21   H     H_    0.256848 0.997477 0.585060 0.349371
O26   O     O_3   0.351553 0.933605 0.332175 -0.724095
H22   H     H_    0.325933 0.995764 0.343259 0.355183

loop_
_geom_bond_atom_site_label_1
_geom_bond_atom_site_label_2
_geom_bond_distance
_ccdc_geom_bond_type
C40   N4    1.423939 S    
N2    C40   1.373316 A    
C37   N1    1.375074 A    
O26   H22   0.989566 S    
C11   C13   1.418493 A    
O9    H17   0.979999 S    
C39   N3    1.429445 S    
O10   H18   0.989027 S    
C24   C34   1.411542 A    
C27   C29   1.393796 A    
N3    O11   1.298851 A    
O5    C3    1.294460 A    
C1    C27   1.434549 S    
N7    O21   1.302047 A    
C2    C28   1.443643 S    
O1    C1    1.295198 A    
C9    C22   1.491661 S    
N6    O18   1.301443 A    
C10   C21   1.476676 S    
C36   C44   1.403976 A    
O4    Zn1   1.979599 S    
C36   H16   1.076726 S    
C4    C19   1.435120 S    
C41   C43   1.420020 A    
C14   N8    1.430921 S    
C17   H7    1.079983 S    
Zn2   N1    2.023773 S    
N5    O15   1.299344 A    
N1    C39   1.369928 A    
N8    O24   1.299976 A    
C30   H12   1.082370 S    
C23   O25   1.381743 S    
C14   C16   1.402630 A    
C18   H8    1.085061 S    
N3    O12   1.300229 A    
N7    O22   1.301586 A    
C6    C8    1.393394 A    
C23   C25   1.385190 A    
O2    C2    1.293472 A    
C24   C26   1.384906 A    
C13   N7    1.444712 S    
C26   H10   1.083311 S    
Zn1   N2    2.023773 S    
C31   H13   1.084040 S    
C32   H14   1.084116 S    
C35   H15   1.079730 S    
C17   C22   1.375315 A    
C18   C21   1.371252 A    
N4    O14   1.301498 A    
O20   H20   0.989164 S    
C31   C33   1.399950 A    
N6    O17   1.301254 A    
C37   O9    1.374396 S    
C29   H11   1.083810 S    
C5    C7    1.391270 A    
C39   C41   1.417431 A    
C38   N2    1.374472 A    
C3    C20   1.431310 S    
O7    Zn2   2.026556 S    
C41   N5    1.427657 S    
O7    C3    1.288679 A    
O25   H21   0.989462 S    
O6    C4    1.292553 A    
N8    O23   1.300974 A    
C30   C32   1.380225 A    
C25   H9    1.079669 S    
O3    Zn2   1.979599 S    
O8    C4    1.292201 A    
O4    C2    1.296059 A    
N5    O16   1.301102 A    
C7    H5    1.083625 S    
C9    C11   1.425419 A    
C5    C15   1.392296 A    
C8    H6    1.083344 S    
C6    C16   1.394116 A    
C42   N6    1.436026 S    
C24   O26   1.381716 S    
C32   C34   1.398687 A    
C7    C9    1.404030 A    
O6    Zn2   2.003397 S    
C18   C20   1.397706 A    
C10   C12   1.419274 A    
N4    O13   1.300236 A    
O3    C1    1.289903 A    
O8    Zn1   2.026555 S    
H1    C15   1.082370 S    
H2    C16   1.078340 S    
C35   C37   1.401619 A    
C36   C38   1.404843 A    
C12   C14   1.404168 A    
C23   C33   1.412064 A    
C43   C44   1.527625 S    
C19   C21   1.405082 A    
C20   C22   1.411287 A    
C33   C34   1.443045 S    
C29   C31   1.380667 A    
C28   C30   1.396178 A    
C5    H3    1.082398 S    
C38   O10   1.369840 S    
C11   O19   1.382422 S    
C12   O20   1.383272 S    
C6    H4    1.082423 S    
O2    Zn2   1.986956 S    
C17   C19   1.399133 A    
O5    Zn1   2.003398 S    
O1    Zn1   1.986956 S    
C13   C15   1.406302 A    
C8    C10   1.402302 A    
C40   C42   1.423579 A    
C42   C44   1.420269 A    
O19   H19   0.989530 S    
C25   C27   1.397212 A    
C26   C28   1.402199 A    
C35   C43   1.405154 A    
