data_mof_unit_5974.cif
_audit_creation_date              2013-03-05T16:06:48-0500
_audit_creation_method            fapswitch 2.2
_symmetry_space_group_name_H-M    P1
_symmetry_Int_Tables_number       1
_space_group_crystal_system       triclinic
_cell_length_a                    6.9625
_cell_length_b                    14.721589
_cell_length_c                    16.031132
_cell_angle_alpha                 90.282733
_cell_angle_beta                  90.0765
_cell_angle_gamma                 89.862123
_cell_volume                      1643.14981309

loop_
_atom_site_label
_atom_site_type_symbol
_atom_site_description
_atom_site_fract_x
_atom_site_fract_y
_atom_site_fract_z
_atom_type_partial_charge
O1    O     O_R   0.505830 0.583360 0.413880 -0.609516
O2    O     O_R   0.175830 0.595460 0.585520 -0.584288
O3    O     O_R   0.005520 0.416640 0.586120 -0.609719
C1    C     C_R   0.344370 0.614249 0.616759 0.960237
O4    O     O_R   0.176120 0.594390 0.414490 -0.523255
O5    O     O_R   0.005810 0.415570 0.413870 -0.600642
C2    C     C_R   0.344369 0.615680 0.385507 1.014409
O6    O     O_R   0.505540 0.584430 0.586130 -0.618290
O7    O     O_3   0.339200 0.441330 0.500000 -0.296265
V1    V     V_3+5 0.064350 0.510880 0.500000 1.206432
O8    O     O_R   0.676100 0.404540 0.414480 -0.601495
C3    C     C_R   0.845209 0.383174 0.385439 0.947378
O9    O     O_R   0.675810 0.405610 0.585510 -0.610182
C4    C     C_R   0.845572 0.381843 0.612051 0.976447
V2    V     V_3+5 0.564340 0.489120 0.500000 1.151399
O10   O     O_3   0.839360 0.558670 0.500000 -0.247803
C5    C     C_2   0.722260 0.203229 0.781100 -0.054691
C6    C     C_2   0.883614 0.183840 0.824265 -0.416873
H1    H     H_    0.589731 0.168611 0.796919 0.137617
H2    H     H_    0.017244 0.218145 0.810609 0.159725
C7    C     C_2   0.709694 0.271324 0.712748 -0.104054
C8    C     C_2   0.862630 0.311129 0.676851 -0.456442
H3    H     H_    0.566288 0.289136 0.691590 0.142280
H4    H     H_    0.007162 0.292725 0.695371 0.163361
C9    C     C_R   0.733267 0.249966 0.187717 -0.016606
C10   C     C_R   0.880204 0.185247 0.183623 -0.218350
C11   C     C_R   0.020467 0.189457 0.246328 -0.032705
H5    H     H_    0.126478 0.136929 0.248530 0.184958
C12   C     C_R   0.012585 0.255067 0.310725 -0.188633
H6    H     H_    0.120528 0.253394 0.359374 0.127944
C13   C     C_R   0.858659 0.317372 0.315584 -0.163829
C14   C     C_R   0.725683 0.316513 0.249920 0.038696
C15   C     C_3   0.511486 0.320657 0.250534 -0.712129
C16   C     C_3   0.518542 0.240584 0.188614 0.832873
H7    H     H_    0.461181 0.385132 0.221889 0.195292
H8    H     H_    0.445305 0.309458 0.312185 0.205333
C17   C     C_R   0.508904 0.737808 0.696840 0.079429
C18   C     C_R   0.354755 0.678809 0.688206 -0.255727
C19   C     C_R   0.217006 0.680239 0.751737 -0.222660
H9    H     H_    0.107133 0.628809 0.751773 0.155138
C20   C     C_R   0.233358 0.740127 0.820815 0.406471
C21   C     C_R   0.375478 0.810361 0.820439 -0.388609
C22   C     C_R   0.507266 0.811082 0.753104 -0.004975
C23   C     C_3   0.722306 0.806324 0.759840 0.282625
C24   C     C_3   0.713186 0.714370 0.717902 0.279454
H10   H     H_    0.778280 0.803869 0.824654 0.142252
H11   H     H_    0.812552 0.705676 0.663976 0.113950
C25   C     C_R   0.495001 0.750519 0.316710 0.003076
C26   C     C_R   0.350929 0.684472 0.318272 -0.361499
C27   C     C_R   0.211459 0.687095 0.253837 0.577950
C28   C     C_R   0.224742 0.751989 0.189328 -0.204664
H12   H     H_    0.116150 0.752404 0.140879 0.168070
C29   C     C_R   0.381453 0.811947 0.184443 -0.277351
C30   C     C_R   0.513714 0.811076 0.250659 0.032277
C31   C     C_3   0.729241 0.802131 0.251722 0.105147
C32   C     C_3   0.706099 0.740333 0.327933 0.073938
H13   H     H_    0.785991 0.766635 0.195544 0.077449
H14   H     H_    0.756104 0.669487 0.318229 0.135585
O11   O     O_R   0.229930 0.912420 0.917160 -0.581581
O12   O     O_R   0.559420 0.902500 0.088780 -0.572886
O13   O     O_R   0.729660 0.081330 0.089380 -0.553121
C33   C     C_R   0.391151 0.879857 0.116660 1.018308
O14   O     O_R   0.559650 0.901420 0.917750 -0.621702
O15   O     O_R   0.729880 0.080250 0.917130 -0.605893
C34   C     C_R   0.390143 0.878353 0.889590 0.955268
O16   O     O_R   0.229700 0.913500 0.089410 -0.575034
O17   O     O_3   0.396250 0.055540 0.003280 -0.243116
V3    V     V_3+5 0.671130 0.986010 0.003260 1.255192
O18   O     O_R   0.059600 0.091310 0.917720 -0.607074
C35   C     C_R   0.890372 0.114304 0.890492 0.975118
O19   O     O_R   0.059370 0.092380 0.088750 -0.566378
C36   C     C_R   0.889968 0.115053 0.116925 1.071873
V4    V     V_3+5 0.171120 0.007820 0.003230 1.267246
O20   O     O_3   0.896130 0.938240 0.003240 -0.253055
O21   O     O_3   0.449496 0.154569 0.216972 -0.647905
C37   C     C_3   0.515471 0.126115 0.296911 0.146929
H15   H     H_    0.480486 0.174706 0.347378 0.088915
H16   H     H_    0.672072 0.114081 0.297016 0.164405
C38   C     C_3   0.418730 0.036983 0.320207 -0.664254
H17   H     H_    0.404820 0.992650 0.264543 0.262415
H18   H     H_    0.504934 0.001344 0.368353 0.247626
H19   H     H_    0.273559 0.049613 0.346345 0.216321
N1    N     N_R   0.132395 0.716298 0.895749 0.223302
O22   O     O_R   0.141161 0.633228 0.922819 -0.409413
O23   O     O_R   0.016676 0.772970 0.932446 -0.409500
O24   O     O_3   0.812852 0.868268 0.705405 -0.619533
C39   C     C_3   0.877430 0.945305 0.749274 0.284035
H20   H     H_    0.960705 0.926521 0.805878 0.108758
H21   H     H_    0.752706 0.988454 0.767080 0.089840
C40   C     C_3   0.010238 0.998968 0.692642 -0.825281
H22   H     H_    0.928947 0.025110 0.638096 0.267657
H23   H     H_    0.073726 0.057008 0.727182 0.188478
H24   H     H_    0.129064 0.954626 0.670280 0.265025
O25   O     O_3   0.728588 0.648696 0.782105 -0.630237
C41   C     C_3   0.732256 0.559203 0.751099 0.264722
H25   H     H_    0.828317 0.551765 0.696080 0.084819
H26   H     H_    0.584775 0.537150 0.734885 0.109764
C42   C     C_3   0.803643 0.497319 0.820450 -0.773609
H27   H     H_    0.726250 0.512620 0.879452 0.284469
H28   H     H_    0.777032 0.425437 0.804203 0.206989
H29   H     H_    0.959938 0.506849 0.830473 0.259510
O26   O     O_3   0.061071 0.626338 0.252619 -0.659325
C43   C     C_3   0.110088 0.550628 0.202494 0.190081
H30   H     H_    0.184980 0.499289 0.241511 0.110108
H31   H     H_    0.203656 0.567975 0.148332 0.118887
C44   C     C_3   0.926583 0.509086 0.168023 -0.777483
H32   H     H_    0.858516 0.556554 0.123112 0.250839
H33   H     H_    0.959630 0.444097 0.135560 0.250151
H34   H     H_    0.824161 0.496217 0.219588 0.228641
N2    N     N_R   0.828643 0.887658 0.269017 0.266340
O27   O     O_R   0.998955 0.885921 0.302465 -0.372185
O28   O     O_R   0.775424 0.960622 0.230152 -0.446727
N3    N     N_R   0.770815 0.780140 0.407184 0.286444
O29   O     O_R   0.919435 0.746085 0.445042 -0.332045
O30   O     O_R   0.683391 0.849943 0.440048 -0.366851
N4    N     N_R   0.431782 0.264228 0.108246 0.236194
O31   O     O_R   0.250800 0.285901 0.104516 -0.411025
O32   O     O_R   0.531336 0.260538 0.039613 -0.415393

loop_
_geom_bond_atom_site_label_1
_geom_bond_atom_site_label_2
_geom_bond_distance
_ccdc_geom_bond_type
C6    C35   1.479081 S    
C39   H20   1.111909 S    
O14   C34   1.308034 A    
C11   C12   1.411302 A    
C10   C36   1.484817 S    
C20   C21   1.432919 A    
C41   H25   1.112447 S    
C37   C38   1.524685 S    
C1    O6    1.300000 A    
C41   C42   1.522968 S    
C19   C20   1.416711 A    
C29   C30   1.404436 A    
C25   C30   1.393983 A    
C10   C11   1.401822 A    
C17   C18   1.388652 A    
O15   V3    2.005429 S    
C37   H16   1.104215 S    
O5    C3    1.297918 A    
C18   C19   1.399962 A    
C42   H27   1.111044 S    
C44   H32   1.110745 S    
V3    O20   1.715628 S    
V2    O10   2.173554 S    
C20   N1    1.438011 S    
C15   H8    1.104304 S    
N4    O31   1.300475 A    
O12   C33   1.299307 A    
V4    O20   2.173580 S    
N2    O27   1.300993 A    
C15   H7    1.112090 S    
O14   V3    2.004331 S    
O8    V2    2.004200 S    
C13   C14   1.400992 A    
N4    O32   1.302024 A    
C21   C34   1.493484 S    
C32   N3    1.467307 S    
O18   V4    2.000483 S    
O17   V4    1.719236 S    
O15   C35   1.299389 A    
O7    V1    2.168167 S    
O11   V4    2.005887 S    
C16   O21   1.431940 S    
C9    C14   1.395428 A    
O9    C4    1.303319 A    
O26   C43   1.412268 S    
C23   O24   1.415145 S    
C24   O25   1.419367 S    
C23   H10   1.109968 S    
C15   C16   1.538073 S    
C24   H11   1.114659 S    
C33   O16   1.303031 A    
C28   H12   1.083231 S    
C37   H15   1.104335 S    
C2    C26   1.483448 S    
C19   H9    1.077612 S    
C38   H18   1.110183 S    
O24   C39   1.405947 S    
C27   C28   1.414610 A    
C9    C10   1.397697 A    
O16   V4    2.004449 S    
C5    C7    1.491128 S    
O17   V3    2.168211 S    
C28   C29   1.407588 A    
C17   C22   1.402734 A    
O2    C1    1.304971 A    
O21   C37   1.425325 S    
C12   H6    1.082684 S    
C29   C33   1.481920 S    
C40   H23   1.108412 S    
N1    O22   1.300921 A    
C31   C32   1.535731 S    
C5    C6    1.349342 D    
O25   C41   1.406016 S    
C43   H31   1.117165 S    
C31   H13   1.111567 S    
O3    C4    1.296718 A    
O1    V2    2.002866 S    
O13   C36   1.298624 A    
C25   C26   1.399006 A    
N1    O23   1.297874 A    
C1    C18   1.486523 S    
C27   O26   1.378789 S    
O6    V2    2.005605 S    
C42   H28   1.104573 S    
C7    H3    1.086027 S    
C3    C13   1.479991 S    
C8    H4    1.082994 S    
C21   C22   1.417778 A    
C17   C24   1.501185 S    
O2    V1    2.004347 S    
C11   H5    1.068393 S    
C23   C24   1.509925 S    
C40   H24   1.111307 S    
O4    C2    1.300398 A    
N3    O29   1.299714 A    
C25   C32   1.487814 S    
C30   C31   1.506140 S    
O1    C2    1.302007 A    
O5    V1    2.005863 S    
C38   H19   1.109610 S    
O8    C3    1.303935 A    
C41   H26   1.107893 S    
C42   H29   1.108933 S    
C9    C16   1.501819 S    
C14   C15   1.492487 S    
C4    C8    1.478767 S    
O9    V2    2.000530 S    
O7    V2    1.719727 S    
O4    V1    2.005058 S    
C31   N2    1.463360 S    
O3    V1    2.005432 S    
V1    O10   1.715684 S    
O11   C34   1.299077 A    
O13   V3    2.005840 S    
C40   H22   1.110876 S    
C44   H33   1.110612 S    
C22   C23   1.502449 S    
C5    H1    1.086113 S    
C32   H14   1.109052 S    
C43   C44   1.519982 S    
C6    H2    1.082829 S    
O18   C35   1.300602 A    
N2    O28   1.297437 A    
C38   H17   1.107230 S    
O19   C36   1.305602 A    
O12   V3    2.005005 S    
C12   C13   1.410931 A    
C26   C27   1.417391 A    
C39   C40   1.521907 S    
O19   V4    2.003992 S    
C43   H30   1.111861 S    
C39   H21   1.111446 S    
C7    C8    1.347718 D    
C16   N4    1.465369 S    
N3    O30   1.302523 A    
C44   H34   1.109748 S    
