data_mof_unit_33045.cif
_audit_creation_date              2012-12-10T17:56:20-0500
_audit_creation_method            fapswitch 2.2
_symmetry_space_group_name_H-M    P1
_symmetry_Int_Tables_number       1
_space_group_crystal_system       triclinic
_cell_length_a                    13.023464
_cell_length_b                    10.927121
_cell_length_c                    9.630976
_cell_angle_alpha                 90.166663
_cell_angle_beta                  95.943733
_cell_angle_gamma                 94.248863
_cell_volume                      1359.3822206

loop_
_atom_site_label
_atom_site_type_symbol
_atom_type_description
_atom_site_fract_x
_atom_site_fract_y
_atom_site_fract_z
_atom_type_partial_charge
C1    C     C_R   0.497635 0.261962 0.500094 0.857368
C2    C     C_R   0.493470 0.736789 0.498618 0.884101
C3    C     C_R   0.481274 0.869527 0.495154 -0.383655
C4    C     C_R   0.489353 0.126929 0.500411 -0.383137
C5    C     C_R   0.425197 0.432876 0.062630 0.412686
C6    C     C_R   0.569016 0.577966 0.935123 0.388581
C7    C     C_R   0.432185 0.424257 0.916506 0.330344
C8    C     C_R   0.570173 0.574945 0.084462 0.344896
C9    C     C_R   0.300696 0.499345 0.473998 0.824013
C10   C     C_R   0.699207 0.493210 0.525226 0.844275
C11   C     C_R   0.811039 0.473012 0.534290 -0.274517
C12   C     C_R   0.187485 0.497443 0.458654 -0.276364
C13   C     C_R   0.027851 0.554759 0.332876 -0.257855
C14   C     C_R   0.969068 0.405177 0.658432 -0.251211
C15   C     C_R   0.135660 0.570241 0.357550 0.389910
C16   C     C_R   0.868011 0.441289 0.660468 0.372642
C17   C     C_R   0.129291 0.425011 0.547853 0.379069
C18   C     C_R   0.863433 0.482250 0.412705 0.418718
C19   C     C_R   0.023144 0.436815 0.544301 -0.068239
C20   C     C_R   0.971359 0.489434 0.427334 -0.104301
C21   C     C_R   0.468241 0.062011 0.372725 0.348777
C22   C     C_R   0.472704 0.933205 0.620293 0.280381
C23   C     C_R   0.476167 0.935666 0.368918 0.294656
C24   C     C_R   0.494657 0.059646 0.626183 0.319768
Cu1   Cu    Cu3+1 0.500000 0.500020 0.640660 1.065470
Cu2   Cu    Cu3+1 0.500000 0.499980 0.359340 1.075320
H1    H     H_    0.988264 0.604553 0.250132 0.194431
H2    H     H_    0.009966 0.374282 0.754242 0.201995
N1    N     N_R   0.500030 0.500030 0.852080 -0.264402
N2    N     N_R   0.499970 0.499970 0.147920 -0.269800
O1    O     O_R   0.499990 0.319660 0.618740 -0.488713
O2    O     O_R   0.500010 0.680340 0.381260 -0.488526
O3    O     O_R   0.499990 0.319630 0.381170 -0.546845
O4    O     O_R   0.500010 0.680370 0.618830 -0.570051
O5    O     O_R   0.349000 0.499990 0.599490 -0.547260
O6    O     O_R   0.651000 0.500010 0.400510 -0.502818
O7    O     O_R   0.348990 0.499960 0.361920 -0.545348
O8    O     O_R   0.651010 0.500040 0.638080 -0.512807
O9    O     O_3   0.810161 0.474321 0.280578 -0.536130
C25   C     C_3   0.810306 0.351620 0.231641 0.034634
H3    H     H_    0.803027 0.282560 0.316178 0.130761
H4    H     H_    0.883388 0.339564 0.184544 0.146939
C26   C     C_3   0.719145 0.321973 0.121578 -0.633614
H5    H     H_    0.722133 0.385182 0.032162 0.259456
H6    H     H_    0.721336 0.226685 0.082183 0.221165
H7    H     H_    0.645364 0.328970 0.168130 0.259869
O10   O     O_3   0.173713 0.338276 0.633371 -0.532513
C27   C     C_3   0.178737 0.229114 0.554789 0.144419
H8    H     H_    0.259991 0.221494 0.532260 0.147092
H9    H     H_    0.128863 0.223884 0.452820 0.079795
C28   C     C_3   0.145395 0.118749 0.639829 -0.788974
H10   H     H_    0.063052 0.122541 0.658972 0.239676
H11   H     H_    0.154005 0.032787 0.581666 0.168423
H12   H     H_    0.193652 0.117996 0.741702 0.278004
O11   O     O_3   0.833122 0.462412 0.787841 -0.544311
C29   C     C_3   0.876741 0.580036 0.834406 0.086105
H13   H     H_    0.827579 0.650966 0.788148 0.189759
H14   H     H_    0.957032 0.602776 0.806030 0.110412
C30   C     C_3   0.884338 0.587181 0.991716 -0.705744
H15   H     H_    0.929897 0.512143 0.035731 0.229180
H16   H     H_    0.923489 0.676933 0.028149 0.184264
H17   H     H_    0.806493 0.577946 0.027683 0.318896
O12   O     O_3   0.190106 0.655884 0.282734 -0.585316
C31   C     C_3   0.181854 0.775178 0.336398 0.084247
H18   H     H_    0.260552 0.822615 0.348380 0.168369
H19   H     H_    0.152948 0.777574 0.441634 0.105477
C32   C     C_3   0.113125 0.847420 0.233966 -0.828117
H20   H     H_    0.031738 0.808577 0.226961 0.238304
H21   H     H_    0.114919 0.944054 0.270433 0.197051
H22   H     H_    0.140730 0.845207 0.128765 0.257271
O13   O     O_3   0.432220 0.119538 0.251656 -0.490447
C33   C     C_3   0.322340 0.108904 0.239528 0.154283
H23   H     H_    0.294724 0.197914 0.268450 0.167277
H24   H     H_    0.287572 0.039281 0.308981 0.056791
C34   C     C_3   0.280478 0.074877 0.089959 -0.648628
H25   H     H_    0.301691 0.982065 0.063171 0.258711
H26   H     H_    0.194857 0.074614 0.077467 0.155284
H27   H     H_    0.312948 0.141264 0.016963 0.315980
O14   O     O_3   0.447144 0.872324 0.739138 -0.548035
C35   C     C_3   0.338288 0.852422 0.731851 0.134018
H28   H     H_    0.303628 0.815588 0.627988 0.088867
H29   H     H_    0.304135 0.939835 0.753810 0.161951
C36   C     C_3   0.309855 0.758873 0.840877 -0.787381
H30   H     H_    0.342962 0.791134 0.946395 0.281470
H31   H     H_    0.224347 0.745490 0.838861 0.186249
H32   H     H_    0.340470 0.669588 0.818588 0.250710
Cl1   Cl    Cl    0.469503 0.867036 0.201381 -0.574308
Cl2   Cl    Cl    0.533740 0.123974 0.793647 -0.516138
O15   O     O_3   0.341528 0.374092 0.118302 -0.539822
C37   C     C_3   0.251313 0.434277 0.072107 0.108539
H33   H     H_    0.239802 0.446617 0.957260 0.164725
H34   H     H_    0.256335 0.527190 0.118885 0.211159
C38   C     C_3   0.155356 0.360530 0.112140 -0.795115
H35   H     H_    0.164005 0.338013 0.224634 0.222691
H36   H     H_    0.086850 0.414454 0.089800 0.205906
H37   H     H_    0.141985 0.274560 0.049478 0.245016
O16   O     O_3   0.647383 0.645586 0.875021 -0.568080
C39   C     C_3   0.636774 0.773753 0.882960 0.201210
H38   H     H_    0.576471 0.799992 0.949332 0.222113
H39   H     H_    0.617037 0.806284 0.776293 0.207163
C40   C     C_3   0.739558 0.845395 0.931374 -0.797200
H40   H     H_    0.793301 0.843901 0.849363 0.202952
H41   H     H_    0.725462 0.942713 0.950656 0.249966
H42   H     H_    0.777422 0.808466 0.028671 0.284877
Cl3   Cl    Cl    0.354681 0.310348 0.820455 -0.544020
Cl4   Cl    Cl    0.661138 0.671565 0.188467 -0.545137

loop_
_geom_bond_atom_site_label_1
_geom_bond_atom_site_label_2
_ccdc_geom_bond_type
Cu1   O1    S    
O11   C29   S    
C11   C18   A    
Cu2   O2    S    
C38   H35   S    
C7    N1    A    
C3    C23   A    
C19   C20   A    
C26   H5    S    
O16   C39   S    
C1    O3    A    
C40   H40   S    
C21   O13   S    
C22   O14   S    
C35   C36   S    
C4    C24   A    
C1    O1    A    
C29   H13   S    
C2    O2    A    
C34   H25   S    
C25   C26   S    
C36   H30   S    
C12   C17   A    
C7    Cl3   S    
C18   C20   A    
Cu1   O4    S    
C2    O4    A    
C25   H4    S    
C30   H15   S    
C38   H36   S    
C23   Cl1   S    
C33   C34   S    
C34   H27   S    
C9    C12   S    
C27   C28   S    
Cu1   N1    S    
C30   H16   S    
C1    C4    S    
C32   H20   S    
C31   C32   S    
O14   C35   S    
C33   H24   S    
O9    C25   S    
C5    C7    A    
C35   H28   S    
C6    C8    A    
Cu1   Cu2   S    
C28   H10   S    
C32   H21   S    
C31   H19   S    
C18   O9    S    
C6    O16   S    
Cu1   O8    S    
C24   Cl2   S    
C11   C16   A    
Cu2   O3    S    
C37   H34   S    
O10   C27   S    
C12   C15   A    
C36   H32   S    
C9    O7    A    
C34   H26   S    
Cu1   O5    S    
C35   H29   S    
C25   H3    S    
C36   H31   S    
Cu2   N2    S    
C40   H42   S    
C39   H39   S    
C13   C15   A    
C14   C16   A    
C14   H2    S    
C37   C38   S    
C5    N2    A    
Cu2   O6    S    
C27   H8    S    
C30   H17   S    
C13   C20   A    
C14   C19   A    
C17   O10   S    
C33   H23   S    
C8    Cl4   S    
Cu2   O7    S    
C38   H37   S    
C39   C40   S    
C29   C30   S    
C10   O8    A    
C28   H12   S    
C8    N2    A    
C31   H18   S    
C32   H22   S    
C21   C23   A    
C2    C3    S    
C16   O11   S    
O13   C33   S    
C26   H6    S    
C4    C21   A    
C37   H33   S    
C27   H9    S    
C17   C19   A    
C29   H14   S    
C22   C24   A    
C26   H7    S    
C10   C11   S    
O12   C31   S    
C6    N1    A    
C40   H41   S    
C39   H38   S    
C9    O5    A    
C15   O12   S    
C13   H1    S    
C3    C22   A    
C10   O6    A    
C28   H11   S    
O15   C37   S    
C5    O15   S    
