data_mof_unit_35252.cif
_audit_creation_date              2012-10-26T20:36:02-0400
_audit_creation_method            fapswitch 2.2
_symmetry_space_group_name_H-M    P1
_symmetry_Int_Tables_number       1
_space_group_crystal_system       triclinic
_cell_length_a                    10.755386
_cell_length_b                    15.722621
_cell_length_c                    17.003032
_cell_angle_alpha                 95.819744
_cell_angle_beta                  89.175696
_cell_angle_gamma                 92.375438
_cell_volume                      2857.8337029

loop_
_atom_site_label
_atom_site_type_symbol
_atom_type_description
_atom_site_fract_x
_atom_site_fract_y
_atom_site_fract_z
_atom_type_partial_charge
C1    C     C_R   0.491180 0.489743 0.347631 0.585534
C2    C     C_R   0.594233 0.504023 0.897409 0.124578
C3    C     C_R   0.511234 0.406650 0.129231 -0.071446
C4    C     C_R   0.610502 0.580103 0.862742 -0.073091
C5    C     C_R   0.496934 0.405890 0.210927 -0.040204
C6    C     C_R   0.577938 0.585398 0.784021 -0.066402
C7    C     C_R   0.426618 0.754088 0.474221 0.119510
C8    C     C_R   0.568348 0.247621 0.531758 0.060896
C9    C     C_R   0.434262 0.843182 0.474531 -0.059754
C10   C     C_R   0.564050 0.158329 0.530149 -0.126958
C11   C     C_R   0.531482 0.891343 0.514995 0.236039
C12   C     C_R   0.502246 0.509997 0.652514 0.588846
C13   C     C_R   0.473145 0.108904 0.484771 0.228460
C14   C     C_R   0.619363 0.846770 0.553952 0.258357
C15   C     C_R   0.388217 0.152211 0.442238 0.257653
C16   C     C_R   0.261319 0.500787 0.509717 0.603102
C17   C     C_R   0.737659 0.498977 0.488218 0.576203
C18   C     C_R   0.609696 0.756847 0.549601 0.058672
C19   C     C_R   0.395591 0.242065 0.446608 0.079485
C20   C     C_R   0.097059 0.346076 0.532916 -0.091329
C21   C     C_R   0.900690 0.649683 0.453620 -0.062530
C22   C     C_R   0.032241 0.267388 0.516104 -0.016754
C23   C     C_R   0.481132 0.484436 0.259256 -0.062240
C24   C     C_R   0.962673 0.729235 0.470817 -0.046450
C25   C     C_R   0.929852 0.262594 0.464359 -0.018444
C26   C     C_R   0.062026 0.736484 0.525142 -0.016675
C27   C     C_R   0.884969 0.339357 0.440137 0.229822
C28   C     C_R   0.108556 0.660485 0.551265 0.280962
C29   C     C_R   0.935452 0.419658 0.474129 -0.010945
C30   C     C_R   0.061860 0.579222 0.516607 -0.004236
C31   C     C_R   0.053783 0.422276 0.508117 -0.052209
C32   C     C_R   0.944429 0.575517 0.481500 -0.051277
C33   C     C_R   0.874072 0.497432 0.473666 0.023180
C34   C     C_R   0.519983 0.512780 0.739795 -0.062604
C35   C     C_R   0.123661 0.501312 0.518932 0.038517
C36   C     C_2   0.108709 0.823526 0.557558 0.283046
C37   C     C_2   0.870847 0.178637 0.433680 0.287790
C38   C     C_2   0.072605 0.191845 0.553803 0.322301
C39   C     C_2   0.920176 0.804005 0.432793 0.294997
C40   C     C_2   0.567075 0.344285 0.881502 0.333056
C41   C     C_2   0.489189 0.639995 0.099562 0.354635
C42   C     C_2   0.485057 0.320591 0.241036 0.342273
C43   C     C_2   0.599991 0.669656 0.752961 0.280479
C44   C     C_R   0.460461 0.559239 0.220983 0.197929
C45   C     C_R   0.496291 0.436784 0.777830 0.218683
C46   C     C_R   0.488039 0.559907 0.139315 0.031496
C47   C     C_R   0.550325 0.429200 0.851856 0.027876
C48   C     C_R   0.511043 0.482369 0.093881 0.135829
Cu1   Cu    Cu3+1 0.493970 0.415220 0.496180 1.075073
Cu2   Cu    Cu3+1 0.506030 0.584780 0.503820 1.088235
H1    H     H_    0.631701 0.128676 0.563958 0.177143
H2    H     H_    0.349134 0.718604 0.445614 0.206393
H3    H     H_    0.049122 0.877563 0.558875 0.155026
H4    H     H_    0.772344 0.173264 0.421059 0.161451
H5    H     H_    0.891811 0.869896 0.681260 0.398166
H6    H     H_    0.128351 0.125831 0.304933 0.412999
H7    H     H_    0.012653 0.134761 0.554042 0.185920
H8    H     H_    0.976926 0.862746 0.434515 0.158387
H9    H     H_    0.814929 0.266537 0.234818 0.400718
H10   H     H_    0.231044 0.580599 0.729615 0.378593
H11   H     H_    0.187785 0.387811 0.715249 0.374563
H12   H     H_    0.362814 0.873787 0.444633 0.189802
H13   H     H_    0.223782 0.560624 0.310782 0.339033
H14   H     H_    0.591360 0.339831 0.942536 0.140192
H15   H     H_    0.462939 0.638250 0.038030 0.133612
H16   H     H_    0.422366 0.309420 0.289548 0.137149
H17   H     H_    0.533400 0.694240 0.714854 0.179547
H18   H     H_    0.677225 0.722366 0.578917 0.179677
H19   H     H_    0.330054 0.275757 0.414925 0.154461
H20   H     H_    0.177912 0.348046 0.569708 0.228159
H21   H     H_    0.820639 0.644735 0.415221 0.200036
H22   H     H_    0.519363 0.347087 0.091683 0.182007
H23   H     H_    0.645122 0.636761 0.898800 0.195234
H24   H     H_    0.638423 0.284968 0.566624 0.142088
N1    N     N_2   0.509167 0.476591 0.010672 -0.265211
N2    N     N_2   0.605037 0.507565 0.980670 -0.233355
N3    N     N_R   0.515100 0.712130 0.509560 -0.258381
N4    N     N_R   0.484900 0.287870 0.490440 -0.235057
N5    N     N_2   0.542460 0.983071 0.519175 -0.151428
N6    N     N_2   0.463428 0.017202 0.480591 -0.154706
O1    O     O_R   0.494360 0.420530 0.382500 -0.496809
O2    O     O_2   0.932119 0.115185 0.419383 -0.427772
O3    O     O_2   0.815235 0.957172 0.557279 -0.283255
O4    O     O_2   0.683224 0.959108 0.675900 -0.200254
O5    O     O_3   0.832728 0.833553 0.647095 -0.520434
O6    O     O_2   0.336841 0.039400 0.318263 -0.208019
O7    O     O_2   0.195312 0.039203 0.432343 -0.231713
O8    O     O_3   0.182410 0.162742 0.342025 -0.514194
O9    O     O_2   0.172917 0.192995 0.586768 -0.443200
O10   O     O_2   0.821498 0.800522 0.397702 -0.441689
O11   O     O_2   0.670525 0.293906 0.365434 -0.295918
O12   O     O_R   0.505640 0.579470 0.617500 -0.506080
O13   O     O_2   0.784112 0.420303 0.323078 -0.290445
O14   O     O_3   0.870559 0.271021 0.281105 -0.473113
O15   O     O_2   0.318409 0.698425 0.634982 -0.256748
O16   O     O_2   0.120458 0.727702 0.702457 -0.202073
O17   O     O_3   0.184171 0.570646 0.679570 -0.522082
O18   O     O_2   0.431028 0.289948 0.689192 -0.189710
O19   O     O_2   0.315057 0.322395 0.812659 -0.224728
O20   O     O_3   0.269248 0.408719 0.695288 -0.532853
O21   O     O_2   0.458263 0.712655 0.304243 -0.198602
O22   O     O_2   0.289783 0.679312 0.209972 -0.216662
O23   O     O_R   0.504550 0.563720 0.388950 -0.429829
O24   O     O_3   0.277725 0.606121 0.338903 -0.551317
O25   O     O_2   0.562456 0.278290 0.836968 -0.392651
O26   O     O_2   0.524430 0.708360 0.134216 -0.372917
O27   O     O_2   0.541544 0.260316 0.209348 -0.434083
O28   O     O_2   0.692138 0.714466 0.772348 -0.420747
O29   O     O_R   0.495450 0.436280 0.611050 -0.438756
O30   O     O_R   0.314560 0.428400 0.496770 -0.528235
O31   O     O_R   0.685440 0.571600 0.503230 -0.536589
O32   O     O_R   0.324750 0.571590 0.503220 -0.461049
O33   O     O_R   0.675250 0.428410 0.496780 -0.490508
O34   O     O_2   0.214068 0.836714 0.582584 -0.428507
S1    S     S_3+6 0.739931 0.902533 0.609511 0.040176
S2    S     S_3+6 0.273580 0.094961 0.382666 0.069832
S3    S     S_3+6 0.797017 0.333674 0.351533 0.028614
S4    S     S_3+6 0.186101 0.666411 0.643878 0.068678
S5    S     S_3+6 0.376869 0.360460 0.743637 0.091594
S6    S     S_3+6 0.370906 0.642827 0.268450 0.060464

loop_
_geom_bond_atom_site_label_1
_geom_bond_atom_site_label_2
_ccdc_geom_bond_type
C40   C47   S    
Cu1   O33   S    
C5    C42   S    
O8    S2    S    
C27   C29   A    
C14   C18   A    
C36   O34   D    
C16   O30   A    
O18   S5    D    
C15   C19   A    
C38   O9    D    
O13   S3    D    
C30   C35   A    
C21   H21   S    
O16   S4    D    
C24   C26   A    
C7    H2    S    
C16   C35   S    
C11   C14   A    
H6    O8    S    
C44   S6    S    
C1    O1    A    
C14   S1    S    
C22   C38   S    
C29   C33   A    
C3    C48   A    
C24   C39   S    
Cu1   N4    S    
O6    S2    D    
Cu1   O1    S    
O17   S4    S    
C36   H3    S    
C25   C37   S    
C22   C25   A    
C41   C46   S    
O11   S3    D    
H9    O14   S    
C42   O27   D    
C1    O23   A    
C39   O10   D    
C7    N3    A    
C45   S5    S    
C27   S3    S    
C13   N6    S    
Cu2   O23   S    
C8    N4    A    
C48   N1    S    
C20   H20   S    
C17   C33   S    
C10   H1    S    
C17   O31   A    
C8    H24   S    
C12   O29   A    
C44   C46   A    
C45   C47   A    
O15   S4    D    
C21   C32   A    
C46   C48   A    
C41   O26   D    
C17   O33   A    
C9    H12   S    
O3    S1    D    
O5    S1    S    
C4    C6    A    
H10   O17   S    
C34   C45   A    
C41   H15   S    
C39   H8    S    
C23   C44   A    
C6    C34   A    
H5    O5    S    
C19   N4    A    
C2    C4    A    
N1    N2    D    
C38   H7    S    
C5    C23   A    
Cu2   O32   S    
C4    H23   S    
O20   S5    S    
C9    C11   A    
O7    S2    D    
C11   N5    S    
C37   H4    S    
C26   C36   S    
C20   C22   A    
C1    C23   S    
O4    S1    D    
C6    C43   S    
C13   C15   A    
C31   C35   A    
C37   O2    D    
C19   H19   S    
H11   O20   S    
C12   C34   S    
Cu2   N3    S    
C2    N2    S    
C16   O32   A    
Cu1   O29   S    
Cu2   O12   S    
C7    C9    A    
O21   S6    D    
C12   O12   A    
C8    C10   A    
H13   O24   S    
C3    C5    A    
C10   C13   A    
C2    C47   A    
C25   C27   A    
C26   C28   A    
C40   H14   S    
O22   S6    D    
C32   C33   A    
C28   C30   A    
C3    H22   S    
C29   C31   A    
C28   S4    S    
C30   C32   A    
C18   N3    A    
Cu2   O31   S    
O14   S3    S    
C43   O28   D    
O19   S5    D    
N5    N6    D    
C43   H17   S    
Cu1   Cu2   S    
C21   C24   A    
C42   H16   S    
C15   S2    S    
C40   O25   D    
C18   H18   S    
Cu1   O30   S    
O24   S6    S    
C20   C31   A    
