data_mof_unit_19365.cif
_audit_creation_date              2012-12-10T16:57:07-0500
_audit_creation_method            fapswitch 2.2
_symmetry_space_group_name_H-M    P1
_symmetry_Int_Tables_number       1
_space_group_crystal_system       triclinic
_cell_length_a                    7.949119
_cell_length_b                    8.594168
_cell_length_c                    16.720089
_cell_angle_alpha                 94.648205
_cell_angle_beta                  79.716532
_cell_angle_gamma                 92.752194
_cell_volume                      1119.55008181

loop_
_atom_site_label
_atom_site_type_symbol
_atom_type_description
_atom_site_fract_x
_atom_site_fract_y
_atom_site_fract_z
_atom_type_partial_charge
C1    C     C_R   0.544843 0.793754 0.497840 0.936100
C2    C     C_R   0.455501 0.206263 0.502686 0.933103
C3    C     C_2   0.569420 0.956216 0.493710 -0.230912
C4    C     C_2   0.432887 0.043977 0.508432 -0.301423
C5    C     C_R   0.474874 0.491907 0.653598 0.880837
C6    C     C_R   0.523907 0.499313 0.346216 0.909999
C7    C     C_R   0.450069 0.449665 0.738193 -0.163805
C8    C     C_R   0.533158 0.476411 0.258852 -0.142305
C9    C     C_R   0.549572 0.336222 0.764273 0.422627
C10   C     C_R   0.425036 0.555741 0.218524 0.405054
C11   C     C_R   0.497805 0.283114 0.841522 -0.218813
C12   C     C_R   0.408218 0.501937 0.139561 -0.222616
C13   C     C_R   0.364627 0.352811 0.896667 0.108117
C14   C     C_R   0.498936 0.372774 0.100615 0.125990
C15   C     C_R   0.265494 0.461853 0.870815 -0.134295
C16   C     C_R   0.615351 0.303052 0.138647 -0.130209
C17   C     C_R   0.306282 0.508060 0.791814 -0.198207
C18   C     C_R   0.631806 0.354029 0.217657 -0.193429
C19   C     C_2   0.349242 0.336726 0.984230 -0.178094
C20   C     C_2   0.490584 0.322570 0.016177 -0.173447
H1    H     H_    0.161345 0.516464 0.912759 0.150156
H2    H     H_    0.690466 0.206827 0.107800 0.161364
H3    H     H_    0.327148 0.562986 0.107872 0.155831
H4    H     H_    0.567407 0.191815 0.860529 0.185058
N1    N     N_2   0.953500 0.457650 0.478520 0.134068
N2    N     N_2   0.046500 0.542350 0.521480 0.120333
O1    O     O_R   0.388470 0.738640 0.505270 -0.567249
O2    O     O_R   0.611530 0.261360 0.494730 -0.553097
O3    O     O_R   0.679650 0.711510 0.491500 -0.562008
O4    O     O_R   0.320350 0.288490 0.508500 -0.602507
O5    O     O_R   0.337210 0.515200 0.623500 -0.633054
O6    O     O_R   0.662790 0.484800 0.376500 -0.611838
O7    O     O_R   0.628380 0.488060 0.609730 -0.505559
O8    O     O_R   0.371620 0.511940 0.390270 -0.539957
Zn1   Zn    Zn3+2 0.305580 0.518120 0.509190 1.162980
Zn2   Zn    Zn3+2 0.694420 0.481880 0.490810 1.198849
S1    S     S_3+6 0.741038 0.258743 0.706368 0.040691
O9    O     O_2   0.817379 0.148582 0.754416 -0.315331
O10   O     O_2   0.702890 0.170907 0.630212 -0.295056
O11   O     O_3   0.884876 0.404860 0.682241 -0.499768
H5    H     H_    0.992516 0.352499 0.658139 0.389058
S2    S     S_3+6 0.312203 0.723210 0.263504 0.058398
O12   O     O_2   0.145513 0.672650 0.313972 -0.261694
O13   O     O_2   0.415774 0.819677 0.317491 -0.283315
O14   O     O_3   0.272310 0.833951 0.190904 -0.524106
H6    H     H_    0.160770 0.793762 0.177775 0.360320
H7    H     H_    0.715085 0.292329 0.248020 0.211807
H8    H     H_    0.227143 0.592741 0.773085 0.206490
H9    H     H_    0.611903 0.293029 0.978220 0.157629
H10   H     H_    0.229748 0.367972 0.023673 0.156607
H11   H     H_    0.699397 0.002871 0.477332 0.252744
H12   H     H_    0.304561 0.996636 0.526646 0.219808
S3    S     S_3+6 0.014284 0.278710 0.430844 0.175679
O15   O     O_2   0.882752 0.218516 0.380738 -0.282605
O16   O     O_2   0.182251 0.284949 0.374005 -0.285845
O17   O     O_3   0.019579 0.153523 0.501564 -0.502053
H13   H     H_    0.096509 0.073848 0.471522 0.401525
S4    S     S_3+6 0.986138 0.726012 0.562657 0.183693
O18   O     O_2   0.117851 0.794366 0.610716 -0.286540
O19   O     O_2   0.980976 0.825158 0.493612 -0.289036
O20   O     O_3   0.799564 0.730027 0.627649 -0.508992
H14   H     H_    0.779693 0.842242 0.643098 0.392251

loop_
_geom_bond_atom_site_label_1
_geom_bond_atom_site_label_2
_ccdc_geom_bond_type
C7    C17   A    
C2    C4    S    
S2    O14   S    
C15   C17   A    
S1    O9    D    
C14   C16   A    
C14   C20   S    
C10   S2    S    
C9    C11   A    
N2    Zn1   S    
C6    O6    A    
C19   C20   D    
C19   H10   S    
C17   H8    S    
C2    O4    A    
O3    Zn2   S    
C18   H7    S    
S4    O20   S    
C1    O3    A    
S4    O18   D    
S1    O10   D    
S3    O15   D    
C11   C13   A    
C12   H3    S    
C20   H9    S    
S2    O13   D    
O4    Zn1   S    
C4    H12   S    
C6    C8    S    
C10   C12   A    
C8    C10   A    
O11   H5    S    
C12   C14   A    
S1    O11   S    
C7    C9    A    
S3    O16   D    
C13   C15   A    
O20   H14   S    
O5    Zn1   S    
C1    O1    A    
C2    O2    A    
S2    O12   D    
C13   C19   S    
N1    Zn2   S    
S4    O19   D    
C3    C4    D    
O6    Zn2   S    
C11   H4    S    
C15   H1    S    
O7    Zn2   S    
O17   H13   S    
O2    Zn2   S    
C16   C18   A    
O8    Zn1   S    
S3    O17   S    
C1    C3    S    
C5    C7    S    
C3    H11   S    
C16   H2    S    
O1    Zn1   S    
N1    N2    D    
O14   H6    S    
N2    S4    S    
C8    C18   A    
C6    O8    A    
N1    S3    S    
C5    O5    A    
C9    S1    S    
C5    O7    A    
