data_mof_unit_12183.cif
_audit_creation_date              2013-03-05T15:53:16-0500
_audit_creation_method            fapswitch 2.2
_symmetry_space_group_name_H-M    P1
_symmetry_Int_Tables_number       1
_space_group_crystal_system       triclinic
_cell_length_a                    17.340127
_cell_length_b                    24.350075
_cell_length_c                    15.035133
_cell_angle_alpha                 90.202912
_cell_angle_beta                  125.319948
_cell_angle_gamma                 89.716155
_cell_volume                      5179.77215039

loop_
_atom_site_label
_atom_site_type_symbol
_atom_site_description
_atom_site_fract_x
_atom_site_fract_y
_atom_site_fract_z
_atom_type_partial_charge
C1    C     C_R   0.314099 0.372522 0.910087 -0.133463
C2    C     C_R   0.647918 0.347953 0.089999 -0.176204
C3    C     C_R   0.851119 0.848518 0.909401 -0.191800
C4    C     C_R   0.144562 0.846814 0.088825 -0.153087
H1    H     H_    0.252342 0.372185 0.827801 0.172729
H2    H     H_    0.679496 0.332349 0.170930 0.176511
H3    H     H_    0.816202 0.834127 0.826913 0.160774
H4    H     H_    0.179802 0.832061 0.171051 0.164385
N1    N     N_R   0.395410 0.396350 0.944340 -0.046555
N2    N     N_R   0.604590 0.396350 0.055660 -0.060743
N3    N     N_R   0.895410 0.896350 0.944340 -0.057528
N4    N     N_R   0.104590 0.896350 0.055660 -0.062979
C5    C     C_R   0.402057 0.626211 0.089871 -0.077238
C6    C     C_R   0.599358 0.621764 0.909073 -0.068966
C7    C     C_R   0.899499 0.120639 0.090545 -0.072982
C8    C     C_R   0.054986 0.151621 0.910590 -0.167495
H5    H     H_    0.427752 0.634152 0.172620 0.123961
H6    H     H_    0.577553 0.622047 0.826336 0.105428
H7    H     H_    0.921927 0.120870 0.173598 0.115417
H8    H     H_    0.003158 0.167637 0.830599 0.168238
N5    N     N_R   0.449930 0.602500 0.055880 -0.039996
N6    N     N_R   0.550070 0.602500 0.944120 -0.031705
N7    N     N_R   0.949930 0.102500 0.055880 -0.029008
N8    N     N_R   0.050070 0.102500 0.944120 -0.051163
C9    C     C_R   0.508564 0.453390 0.276427 -0.084370
C10   C     C_R   0.447218 0.454182 0.696017 -0.090216
C11   C     C_R   0.042656 0.953938 0.299387 -0.083505
C12   C     C_R   0.025519 0.953749 0.759038 -0.093083
H9    H     H_    0.508591 0.411508 0.297436 0.099260
H10   H     H_    0.425745 0.412998 0.666140 0.133668
H11   H     H_    0.055947 0.912297 0.328359 0.145663
H12   H     H_    0.037307 0.911855 0.747536 0.162509
N9    N     N_R   0.525080 0.471030 0.205650 -0.054860
N10   N     N_R   0.474920 0.471030 0.794350 -0.063108
N11   N     N_R   0.025080 0.971030 0.205650 -0.062149
N12   N     N_R   0.974920 0.971030 0.794350 -0.053399
C13   C     C_R   0.246912 0.546612 0.699463 -0.192554
C14   C     C_R   0.768113 0.544407 0.281059 -0.166804
C15   C     C_R   0.748177 0.045771 0.697405 -0.190627
C16   C     C_R   0.268860 0.045555 0.265072 -0.155493
H13   H     H_    0.237782 0.588908 0.673351 0.172815
H14   H     H_    0.790127 0.585969 0.309268 0.142487
H15   H     H_    0.739891 0.087833 0.670123 0.154917
H16   H     H_    0.290512 0.088070 0.281459 0.139935
N13   N     N_R   0.320260 0.527820 0.794570 -0.062877
N14   N     N_R   0.679740 0.527820 0.205430 -0.056773
N15   N     N_R   0.820260 0.027820 0.794570 -0.065686
N16   N     N_R   0.179740 0.027820 0.205430 -0.054379
C17   C     C_R   0.516834 0.544698 0.284598 -0.034670
C18   C     C_R   0.446257 0.545110 0.695130 -0.009267
C19   C     C_R   0.048579 0.045148 0.302491 -0.021314
C20   C     C_R   0.015570 0.045193 0.746531 0.011530
N17   N     N_R   0.524590 0.527840 0.205200 -0.041839
N18   N     N_R   0.475410 0.527840 0.794800 -0.053068
N19   N     N_R   0.024590 0.027840 0.205200 -0.046547
N20   N     N_R   0.975410 0.027840 0.794800 -0.039844
C21   C     C_R   0.245111 0.455879 0.695543 0.335962
C22   C     C_R   0.766677 0.452554 0.277501 0.340713
C23   C     C_R   0.748089 0.954648 0.695440 0.355577
C24   C     C_R   0.268649 0.953344 0.268219 0.342560
N21   N     N_R   0.320750 0.471000 0.795020 -0.099816
N22   N     N_R   0.679250 0.471000 0.204980 -0.095104
N23   N     N_R   0.820750 0.971000 0.795020 -0.104870
N24   N     N_R   0.179250 0.971000 0.204980 -0.096131
C25   C     C_R   0.309797 0.625127 0.907844 -0.068662
C26   C     C_R   0.688046 0.627511 0.090331 -0.089809
C27   C     C_R   0.809380 0.124358 0.908610 -0.104673
C28   C     C_R   0.149163 0.151382 0.091281 -0.071168
H17   H     H_    0.251328 0.630881 0.823710 0.110043
H18   H     H_    0.743831 0.638541 0.172710 0.113453
H19   H     H_    0.751036 0.130875 0.824585 0.111413
H20   H     H_    0.188278 0.165647 0.174656 0.125503
N25   N     N_R   0.393620 0.602490 0.942710 -0.037046
N26   N     N_R   0.606380 0.602490 0.057290 -0.042767
N27   N     N_R   0.893620 0.102490 0.942710 -0.046003
N28   N     N_R   0.106380 0.102490 0.057290 -0.042455
C29   C     C_R   0.413372 0.362055 0.091007 -0.069386
C30   C     C_R   0.563841 0.348638 0.909837 0.030872
C31   C     C_R   0.939874 0.847912 0.090410 0.011444
C32   C     C_R   0.054028 0.846524 0.908143 -0.021747
N29   N     N_R   0.451720 0.396350 0.057510 -0.078433
N30   N     N_R   0.548280 0.396350 0.942490 -0.074112
N31   N     N_R   0.951720 0.896350 0.057510 -0.077278
N32   N     N_R   0.048280 0.896350 0.942490 -0.080597
C33   C     C_R   0.322104 0.351145 0.999925 0.045829
C34   C     C_R   0.623981 0.316687 0.001161 0.019108
C35   C     C_R   0.877670 0.816487 0.998346 0.034092
C36   C     C_R   0.113125 0.813912 0.998981 0.022485
C37   C     C_R   0.313268 0.639312 0.999780 0.000698
C38   C     C_R   0.685248 0.638724 0.997845 0.006617
C39   C     C_R   0.812187 0.136075 0.001310 0.019955
C40   C     C_R   0.117527 0.182761 0.999726 0.043686
C41   C     C_R   0.495657 0.498798 0.320924 -0.044722
C42   C     C_R   0.427595 0.499094 0.630944 -0.053798
C43   C     C_R   0.056828 0.999379 0.360563 -0.048561
C44   C     C_R   0.050863 0.998985 0.727183 -0.068732
C45   C     C_R   0.199873 0.502756 0.633594 0.002437
C46   C     C_R   0.824333 0.497971 0.321878 -0.050756
C47   C     C_R   0.703241 0.001101 0.631736 0.020225
C48   C     C_R   0.326309 0.999490 0.302914 -0.044457
Ni1   Ni    Ni4+2 0.435420 0.434270 0.870230 0.243964
Ni2   Ni    Ni4+2 0.564580 0.434270 0.129770 0.240739
Ni3   Ni    Ni4+2 0.935420 0.934270 0.870230 0.236596
Ni4   Ni    Ni4+2 0.064580 0.934270 0.129770 0.230240
Ni5   Ni    Ni4+2 0.563430 0.564580 0.128740 0.287094
Ni6   Ni    Ni4+2 0.436570 0.564580 0.871260 0.276292
Ni7   Ni    Ni4+2 0.063430 0.064580 0.128740 0.274338
Ni8   Ni    Ni4+2 0.936570 0.064580 0.871260 0.254837
C49   C     C_2   0.978166 0.471053 0.370641 -0.062443
C50   C     C_2   0.080905 0.469029 0.448861 -0.058031
C51   C     C_2   0.482656 0.970053 0.361282 -0.077743
C52   C     C_2   0.583031 0.964288 0.449028 -0.055349
C53   C     C_2   0.925417 0.497880 0.396185 -0.091734
C54   C     C_2   0.123512 0.510213 0.519311 -0.209936
C55   C     C_2   0.427755 0.001091 0.377434 -0.123044
C56   C     C_2   0.629403 0.006724 0.515348 -0.176420
H21   H     H_    0.945118 0.446481 0.296833 0.133311
H22   H     H_    0.117114 0.430972 0.457564 0.183510
H23   H     H_    0.451637 0.943005 0.291040 0.162143
H24   H     H_    0.611234 0.923127 0.467051 0.220684
H25   H     H_    0.955909 0.521752 0.470359 0.137776
H26   H     H_    0.089971 0.550496 0.498118 0.139987
H27   H     H_    0.456891 0.027664 0.448039 0.135386
H28   H     H_    0.601034 0.047950 0.487802 0.141790
C57   C     C_R   0.274506 0.696289 0.102818 0.173577
C58   C     C_R   0.719741 0.696617 0.891365 0.122313
C59   C     C_R   0.774505 0.192861 0.107780 0.129606
C60   C     C_R   0.118983 0.258855 0.894383 0.170212
C61   C     C_R   0.243319 0.668838 0.005773 0.026944
C62   C     C_R   0.752340 0.668870 0.988556 0.050161
C63   C     C_R   0.743946 0.165931 0.009949 0.044918
C64   C     C_R   0.137866 0.239530 0.992819 0.035377
C65   C     C_R   0.151935 0.678905 0.913022 -0.171559
C66   C     C_R   0.846309 0.677034 0.077922 -0.178666
C67   C     C_R   0.652062 0.176669 0.918004 -0.178758
C68   C     C_R   0.192228 0.272270 0.086506 -0.178117
H29   H     H_    0.124121 0.656303 0.838207 0.136383
H30   H     H_    0.877025 0.652928 0.151515 0.134247
H31   H     H_    0.622566 0.153708 0.843208 0.134115
H32   H     H_    0.203024 0.260970 0.162507 0.141932
C69   C     C_R   0.603136 0.222609 0.918174 -0.123955
C70   C     C_R   0.245465 0.315112 0.086295 -0.104946
C71   C     C_R   0.098068 0.721081 0.914815 -0.116708
C72   C     C_R   0.897057 0.721308 0.076489 -0.127012
H33   H     H_    0.534923 0.232054 0.844533 0.137657
H34   H     H_    0.294815 0.336466 0.161489 0.144144
H35   H     H_    0.027738 0.727569 0.842870 0.162177
H36   H     H_    0.967933 0.728286 0.147375 0.148872
C73   C     C_R   0.648749 0.258543 0.008510 0.043246
C74   C     C_R   0.245455 0.323256 0.993821 0.050204
C75   C     C_R   0.138318 0.755709 0.006494 -0.011164
C76   C     C_R   0.850783 0.758717 0.988725 0.032260
C77   C     C_R   0.727317 0.238575 0.106755 0.124457
C78   C     C_R   0.172382 0.300413 0.895038 0.113683
C79   C     C_R   0.222512 0.739575 0.103088 0.181922
C80   C     C_R   0.768179 0.741080 0.891669 0.111716
C81   C     C_3   0.816205 0.266939 0.193620 -0.421242
C82   C     C_3   0.174234 0.274909 0.805601 -0.423804
C83   C     C_3   0.231619 0.717975 0.201729 -0.470396
C84   C     C_3   0.679263 0.771627 0.810366 -0.414421
C85   C     C_3   0.288573 0.671222 0.201799 -0.535109
C86   C     C_3   0.625817 0.722941 0.810124 -0.476552
C87   C     C_3   0.868651 0.217150 0.194716 -0.485216
C88   C     C_3   0.116053 0.228994 0.804893 -0.524951
H37   H     H_    0.830942 0.304612 0.164254 0.206872
H38   H     H_    0.134674 0.299628 0.729568 0.249223
H39   H     H_    0.273846 0.745709 0.273157 0.232217
H40   H     H_    0.669100 0.809407 0.844326 0.212402
H41   H     H_    0.821243 0.271913 0.270346 0.235279
H42   H     H_    0.246138 0.261541 0.832534 0.206015
H43   H     H_    0.162816 0.704968 0.184636 0.189413
H44   H     H_    0.669972 0.776996 0.731361 0.237959
H45   H     H_    0.363868 0.672275 0.273003 0.198748
H46   H     H_    0.584987 0.732685 0.844219 0.221775
H47   H     H_    0.913567 0.226442 0.165922 0.217772
H48   H     H_    0.043506 0.227292 0.728249 0.225768
H49   H     H_    0.253509 0.630631 0.185211 0.202759
H50   H     H_    0.585622 0.700816 0.730799 0.196079
H51   H     H_    0.904614 0.193957 0.272632 0.200072
H52   H     H_    0.154776 0.189157 0.831343 0.196058
C89   C     C_R   0.425227 0.445507 0.495638 0.163970
C90   C     C_R   0.455963 0.447001 0.428754 0.180970
C91   C     C_R   0.125003 0.029845 0.638953 0.103027
C92   C     C_R   0.125258 0.030846 0.547541 0.098021
C93   C     C_R   0.395925 0.493798 0.518142 0.039084
C94   C     C_R   0.456766 0.496892 0.383807 0.037754
C95   C     C_R   0.063337 0.994852 0.641914 0.048364
C96   C     C_R   0.063280 0.997400 0.458943 0.047676
C97   C     C_R   0.375130 0.539901 0.452397 -0.198649
C98   C     C_R   0.408311 0.542102 0.387600 -0.212533
C99   C     C_R   0.996414 0.964202 0.549841 -0.139013
C100  C     C_R   0.996598 0.965391 0.458759 -0.167610
H53   H     H_    0.337851 0.574844 0.454489 0.131830
H54   H     H_    0.396882 0.578942 0.341675 0.117380
H55   H     H_    0.942751 0.940191 0.547439 0.173622
H56   H     H_    0.944071 0.941763 0.387805 0.157234
C101  C     C_3   0.397037 0.398268 0.365206 -0.522910
C102  C     C_3   0.363621 0.396946 0.437513 -0.455433
C103  C     C_3   0.230561 0.032368 0.613137 -0.452301
C104  C     C_3   0.230396 0.031185 0.713845 -0.460678
H57   H     H_    0.340000 0.408950 0.279366 0.193312
H58   H     H_    0.388247 0.360027 0.490678 0.214611
H59   H     H_    0.261308 0.994749 0.602795 0.215014
H60   H     H_    0.256620 0.069870 0.761936 0.188925
H61   H     H_    0.440578 0.361873 0.375812 0.217462
H62   H     H_    0.287014 0.406364 0.393965 0.199448
H63   H     H_    0.256820 0.071746 0.602980 0.189663
H64   H     H_    0.261120 0.992878 0.762444 0.208180
C105  C     C_2   0.560488 0.595292 0.348907 0.446546
H65   H     H_    0.558735 0.604279 0.418401 0.025259
O1    O     O_2   0.601968 0.626595 0.326885 -0.568958
C106  C     C_2   0.418475 0.602499 0.658697 0.420734
H66   H     H_    0.429320 0.620498 0.601107 0.019849
O2    O     O_2   0.388416 0.631651 0.698538 -0.586240
C107  C     C_2   0.085562 0.100473 0.347305 0.430469
H67   H     H_    0.095795 0.113856 0.422167 0.026974
O3    O     O_2   0.105842 0.131852 0.300706 -0.596380
C108  C     C_2   0.992466 0.097702 0.687874 0.450162
H68   H     H_    0.039072 0.114665 0.668945 0.010458
O4    O     O_2   0.918273 0.121218 0.655417 -0.586017
N33   N     N_R   0.224958 0.400634 0.656170 0.200613
O5    O     O_R   0.140131 0.381421 0.610905 -0.414501
O6    O     O_R   0.293764 0.366407 0.687631 -0.490063
N34   N     N_R   0.787453 0.399807 0.328427 0.219034
O7    O     O_R   0.871632 0.378615 0.377693 -0.392657
O8    O     O_R   0.726758 0.377198 0.341379 -0.444961
N35   N     N_R   0.746386 0.902034 0.652716 0.193535
O9    O     O_R   0.685406 0.865772 0.638519 -0.444578
O10   O     O_R   0.789246 0.895064 0.605533 -0.437107
N36   N     N_R   0.295156 0.900902 0.320920 0.222324
O11   O     O_R   0.374009 0.877323 0.350390 -0.403486
O12   O     O_R   0.244184 0.878935 0.349270 -0.451449
C109  C     C_2   0.472091 0.326252 0.187219 0.439631
H69   H     H_    0.546756 0.334989 0.244566 0.079848
O13   O     O_2   0.440154 0.285029 0.200420 -0.574377
C110  C     C_2   0.518852 0.332339 0.796219 0.396392
H70   H     H_    0.443052 0.330626 0.740435 0.090845
O14   O     O_2   0.567256 0.319305 0.764575 -0.565559
C111  C     C_2   0.999804 0.829133 0.203689 0.386047
H71   H     H_    0.075470 0.835334 0.251094 0.074454
O15   O     O_2   0.964733 0.808635 0.246457 -0.555520
C112  C     C_2   0.985664 0.827682 0.795695 0.415063
H72   H     H_    0.910915 0.833181 0.757533 0.091396
O16   O     O_2   0.012672 0.808480 0.742975 -0.558615

loop_
_geom_bond_atom_site_label_1
_geom_bond_atom_site_label_2
_geom_bond_distance
_ccdc_geom_bond_type
C57   C61   1.397314 A    
C22   N22   1.332022 A    
C31   N31   1.342414 A    
N7    Ni7   1.849944 S    
C10   C42   1.374040 A    
N15   Ni8   1.876160 S    
C102  H62   1.112768 S    
C23   C47   1.392591 A    
C70   H34   1.078147 S    
C11   C43   1.365598 A    
C111  H71   1.082676 S    
C22   C46   1.379183 A    
C42   C93   1.454931 S    
C31   C111  1.464261 S    
C65   H29   1.082478 S    
C4    H4    1.076244 S    
C87   H47   1.112450 S    
N34   O7    1.300246 A    
C50   H22   1.081761 S    
C31   C35   1.392571 A    
C29   C109  1.478647 S    
N25   Ni6   1.863355 S    
C37   C61   1.453789 S    
C72   H36   1.077707 S    
C26   C38   1.391062 A    
C21   N33   1.428968 S    
C89   C90   1.384480 A    
C25   C37   1.390761 A    
C48   C55   1.439671 S    
C106  H66   1.081179 S    
C18   N18   1.343307 A    
C83   H43   1.112829 S    
N14   N22   1.383608 A    
N12   Ni3   1.867829 S    
C24   N36   1.431779 S    
C100  H56   1.084436 S    
C8    H8    1.075295 S    
C40   C64   1.447112 S    
C78   C82   1.496254 S    
C3    H3    1.076239 S    
C107  O3    1.220525 D    
C77   C81   1.494988 S    
N15   N23   1.383572 A    
C25   H17   1.079173 S    
N16   N24   1.383608 A    
N16   Ni7   1.870514 S    
C39   C63   1.454008 S    
C58   C62   1.399803 A    
C26   N26   1.347701 A    
N14   Ni5   1.870514 S    
N5    N25   1.388357 A    
C60   C88   1.502005 S    
C25   N25   1.343268 A    
C110  H70   1.076280 S    
N4    N32   1.388356 A    
C9    H9    1.068606 S    
C51   H23   1.086365 S    
C90   C94   1.396287 A    
C73   C77   1.394992 A    
C33   C74   1.450376 S    
C6    C38   1.368871 A    
C68   C70   1.397631 A    
C81   H41   1.111603 S    
C4    C36   1.381638 A    
C101  H61   1.111761 S    
C68   H32   1.082079 S    
C10   N10   1.327155 A    
N20   Ni8   1.859428 S    
C76   C80   1.396539 A    
C32   C112  1.468542 S    
C102  H58   1.111776 S    
C27   H19   1.080137 S    
C112  O16   1.220924 D    
C83   C85   1.503020 S    
C2    C34   1.375080 A    
N8    Ni8   1.855795 S    
C75   C79   1.393448 A    
C4    N4    1.334292 A    
C23   N35   1.423894 S    
C109  H69   1.084240 S    
C50   C54   1.329822 D    
C95   C99   1.401343 A    
C88   H52   1.112432 S    
C14   C46   1.381193 A    
C27   C39   1.394714 A    
N8    N28   1.388358 A    
C41   C94   1.445228 S    
C30   C34   1.386365 A    
C7    N7    1.324003 A    
C72   C76   1.411301 A    
C18   C106  1.475998 S    
C103  C104  1.516202 S    
C8    N8    1.321760 A    
N1    Ni1   1.866270 S    
C103  H59   1.112459 S    
C44   C95   1.421301 S    
C59   C77   1.373064 A    
C2    H2    1.074998 S    
C90   C101  1.496725 S    
C83   H39   1.111783 S    
C89   C102  1.492932 S    
C60   C64   1.400764 A    
C13   C45   1.361471 A    
C43   C96   1.418387 S    
C105  H65   1.084231 S    
C99   H55   1.084164 S    
N29   Ni2   1.848015 S    
N9    N17   1.383326 A    
C65   C71   1.395461 A    
N10   Ni1   1.867829 S    
C55   H27   1.085857 S    
N31   Ni4   1.848015 S    
N18   Ni6   1.859428 S    
C3    C35   1.378617 A    
N9    Ni2   1.860689 S    
C12   H12   1.072339 S    
C1    N1    1.325208 A    
N23   Ni3   1.849864 S    
N11   Ni4   1.860689 S    
C104  H64   1.112475 S    
C34   C73   1.463339 S    
C81   H37   1.112387 S    
C32   N32   1.342577 A    
C52   H24   1.077496 S    
C89   C93   1.394795 A    
C18   C42   1.387941 A    
C46   C53   1.433951 S    
C15   H15   1.082249 S    
C82   C88   1.505516 S    
N3    N31   1.388357 A    
N6    Ni6   1.855795 S    
C79   C83   1.494984 S    
N2    N30   1.388356 A    
N11   N19   1.383326 A    
N21   Ni1   1.849864 S    
C92   C96   1.392249 A    
N19   Ni7   1.866544 S    
C28   H20   1.080847 S    
C84   C86   1.507064 S    
C94   C98   1.402462 A    
C7    H7    1.071922 S    
C107  H67   1.082399 S    
C91   C92   1.377253 A    
C16   C48   1.382864 A    
N33   O5    1.301029 A    
N12   N20   1.383362 A    
C91   C95   1.391308 A    
C104  H60   1.111825 S    
C85   H45   1.111467 S    
C30   N30   1.345209 A    
C5    H5    1.068641 S    
C108  O4    1.220608 D    
N35   O9    1.300096 A    
C67   C69   1.401504 A    
C9    C41   1.373209 A    
C64   C68   1.404446 A    
C92   C103  1.492093 S    
C21   C45   1.392722 A    
C9    N9    1.325053 A    
C103  H63   1.111683 S    
C112  H72   1.079844 S    
C84   H44   1.110703 S    
C5    N5    1.329406 A    
C97   C98   1.389924 A    
C111  O15   1.220595 D    
N4    Ni4   1.858951 S    
C22   N34   1.431495 S    
N36   O12   1.300366 A    
C49   C53   1.345110 D    
C109  O13   1.219707 D    
C93   C97   1.399669 A    
C61   C65   1.399715 A    
C30   C110  1.463423 S    
N35   O10   1.300751 A    
C106  O2    1.220144 D    
C71   H35   1.075297 S    
N28   Ni7   1.870764 S    
C35   C76   1.464307 S    
C11   H11   1.075036 S    
C87   H51   1.112057 S    
C36   C75   1.466335 S    
C1    H1    1.070311 S    
C23   N23   1.344306 A    
C49   H21   1.086862 S    
C1    C33   1.379188 A    
C27   N27   1.344763 A    
N6    N26   1.388358 A    
C13   N13   1.329558 A    
C2    N2    1.329225 A    
C47   C56   1.459297 S    
N13   Ni6   1.876160 S    
C82   H38   1.110732 S    
C66   C72   1.403050 A    
C15   N15   1.332411 A    
N27   Ni8   1.863355 S    
C19   C107  1.477382 S    
C99   C100  1.371694 A    
N24   Ni4   1.855508 S    
C81   C87   1.506337 S    
C16   N16   1.334272 A    
C101  C102  1.499161 S    
C86   H50   1.111974 S    
C59   C87   1.503376 S    
C71   C75   1.408295 A    
C56   H28   1.087975 S    
C51   C52   1.460614 S    
C5    C37   1.376141 A    
C20   C108  1.472219 S    
C6    H6    1.070821 S    
C57   C85   1.494000 S    
N17   Ni5   1.866544 S    
N7    N27   1.388357 A    
C24   C48   1.392237 A    
N34   O8    1.300824 A    
C66   H30   1.082866 S    
C51   C55   1.339908 D    
C52   C56   1.335069 D    
C21   N21   1.351080 A    
C86   H46   1.112408 S    
C80   C84   1.496838 S    
C69   H33   1.078278 S    
C28   N28   1.339757 A    
C96   C100  1.396309 A    
C67   H31   1.082668 S    
C88   H48   1.111812 S    
C63   C67   1.403425 A    
C91   C104  1.493224 S    
C101  H57   1.111485 S    
C24   N24   1.335646 A    
C12   C44   1.373939 A    
C11   N11   1.326117 A    
C70   C74   1.405026 A    
N33   O6    1.297009 A    
C49   C50   1.461595 S    
N26   Ni5   1.870764 S    
C82   H42   1.112476 S    
N10   N18   1.383362 A    
C6    N6    1.324609 A    
C108  H68   1.083889 S    
C69   C73   1.411472 A    
C20   N20   1.334035 A    
C29   C33   1.395042 A    
C17   N17   1.339137 A    
N2    Ni2   1.858951 S    
N13   N21   1.383572 A    
C28   C40   1.381956 A    
N30   Ni1   1.842162 S    
C110  O14   1.220506 D    
C20   C44   1.386304 A    
C19   N19   1.335736 A    
C84   H40   1.112292 S    
C54   H26   1.088205 S    
C13   H13   1.081332 S    
N36   O11   1.299626 A    
C62   C66   1.403462 A    
C59   C63   1.403481 A    
C14   N14   1.338813 A    
C3    N3    1.326801 A    
C98   H54   1.079424 S    
C7    C39   1.372128 A    
C8    C40   1.366577 A    
C38   C62   1.452202 S    
C14   H14   1.078621 S    
C97   H53   1.077355 S    
C15   C47   1.369793 A    
C16   H16   1.080956 S    
C53   H25   1.085250 S    
C26   H18   1.075541 S    
C12   N12   1.327456 A    
C32   C36   1.388289 A    
C29   N29   1.337491 A    
C74   C78   1.394950 A    
C17   C105  1.476528 S    
N1    N29   1.388357 A    
N32   Ni3   1.842162 S    
C105  O1    1.220886 D    
N3    Ni3   1.866270 S    
C17   C41   1.386572 A    
C45   C54   1.451819 S    
C58   C86   1.500103 S    
C85   H49   1.112503 S    
N5    Ni5   1.849944 S    
C57   C79   1.385132 A    
C19   C43   1.373235 A    
C60   C78   1.371194 A    
N22   Ni2   1.855508 S    
C10   H10   1.073875 S    
C58   C80   1.371949 A    
