data_mof_unit_54237.cif
_audit_creation_date              2012-10-26T19:45:30-0400
_audit_creation_method            fapswitch 2.2
_symmetry_space_group_name_H-M    P1
_symmetry_Int_Tables_number       1
_space_group_crystal_system       triclinic
_cell_length_a                    10.84141
_cell_length_b                    9.50733
_cell_length_c                    10.764614
_cell_angle_alpha                 90.174404
_cell_angle_beta                  89.919546
_cell_angle_gamma                 90.016231
_cell_volume                      1109.53330182

loop_
_atom_site_label
_atom_site_type_symbol
_atom_type_description
_atom_site_fract_x
_atom_site_fract_y
_atom_site_fract_z
_atom_type_partial_charge
C1    C     C_R   0.262069 0.499829 0.499547 0.580271
C2    C     C_R   0.429081 0.925246 0.417636 0.023501
C3    C     C_R   0.570958 0.925849 0.582427 0.069780
C4    C     C_R   0.570942 0.074760 0.582449 0.079395
C5    C     C_R   0.499286 0.499965 0.259887 0.551270
C6    C     C_R   0.737655 0.499999 0.499688 0.601960
C7    C     C_R   0.494802 0.500726 0.740121 0.556510
C8    C     C_3   0.475577 0.652487 0.074293 -0.157184
C9    C     C_3   0.390860 0.407631 0.074333 -0.187476
C10   C     C_3   0.466976 0.655954 0.931348 0.396176
C11   C     C_3   0.391341 0.398704 0.930496 0.387967
C12   C     C_3   0.620283 0.453493 0.924073 -0.184424
C13   C     C_3   0.626293 0.447268 0.068813 0.156296
C14   C     C_3   0.499252 0.500447 0.121987 -0.001436
C15   C     C_3   0.491178 0.503002 0.878390 0.099115
C16   C     C_R   0.062862 0.388386 0.556255 0.053938
C17   C     C_R   0.063461 0.608699 0.438951 0.064646
C18   C     C_R   0.934705 0.389557 0.556114 0.310285
C19   C     C_R   0.935169 0.608737 0.440118 0.306809
C20   C     C_R   0.871054 0.499735 0.498915 -0.003518
C21   C     C_R   0.127861 0.499139 0.498550 -0.018477
C22   C     C_R   0.429049 0.074160 0.417664 0.028007
Cu1   Cu    Cu3+1 0.500020 0.640660 0.500000 1.013859
Cu2   Cu    Cu3+1 0.500020 0.359340 0.500000 1.028025
F1    F     F_    0.556646 0.748169 0.887739 -0.632658
F2    F     F_    0.420597 0.261699 0.895799 -0.641994
F3    F     F_    0.872818 0.284687 0.615095 -0.637522
F4    F     F_    0.873605 0.713193 0.380506 -0.617253
H1    H     H_    0.550376 0.724426 0.105805 0.212883
H2    H     H_    0.372244 0.868835 0.351689 0.126015
H3    H     H_    0.338586 0.721343 0.799882 0.271283
H4    H     H_    0.335158 0.811851 0.931892 0.255740
H5    H     H_    0.267594 0.418622 0.786616 0.260922
H6    H     H_    0.205856 0.357091 0.917746 0.247249
H7    H     H_    0.809561 0.509229 0.071418 0.234211
H8    H     H_    0.738355 0.526385 0.208269 0.275709
H9    H     H_    0.740491 0.273393 0.081271 0.236703
H10   H     H_    0.591394 0.231493 0.068285 0.273260
H11   H     H_    0.096374 0.270672 0.708977 0.262615
H12   H     H_    0.394902 0.300042 0.114309 0.164583
H13   H     H_    0.101764 0.181343 0.573074 0.269821
H14   H     H_    0.102572 0.814483 0.411697 0.268276
H15   H     H_    0.100224 0.715417 0.280722 0.258355
H16   H     H_    0.627961 0.869905 0.648205 0.174162
H17   H     H_    0.627855 0.131186 0.648332 0.172478
H18   H     H_    0.389002 0.693750 0.116923 0.102866
H19   H     H_    0.302355 0.453424 0.108288 0.102135
H20   H     H_    0.691852 0.526421 0.887251 0.167973
H21   H     H_    0.643034 0.348967 0.883147 0.163308
H22   H     H_    0.372103 0.130117 0.351820 0.112251
N1    N     N_R   0.500030 0.852070 0.500030 -0.235815
N2    N     N_R   0.500030 0.147930 0.500030 -0.230882
N3    N     N_3   0.344781 0.710040 0.895978 -0.587593
N4    N     N_3   0.267892 0.431560 0.882960 -0.592617
N5    N     N_3   0.726325 0.539978 0.112672 -0.569338
N6    N     N_3   0.651974 0.302470 0.110429 -0.590543
N7    N     N_3   0.126558 0.275541 0.616798 -0.574068
N8    N     N_3   0.128156 0.717475 0.373627 -0.598043
O1    O     O_R   0.319660 0.618740 0.499990 -0.491582
O2    O     O_R   0.319660 0.381260 0.499990 -0.488834
O3    O     O_R   0.499990 0.618790 0.317690 -0.516676
O4    O     O_R   0.499990 0.381210 0.317690 -0.497766
O5    O     O_R   0.680370 0.618830 0.500010 -0.452784
O6    O     O_R   0.680370 0.381170 0.500010 -0.455687
O7    O     O_R   0.500030 0.618780 0.682310 -0.487515
O8    O     O_R   0.500030 0.381220 0.682310 -0.468921

loop_
_geom_bond_atom_site_label_1
_geom_bond_atom_site_label_2
_ccdc_geom_bond_type
C6    O5    A    
C2    C22   A    
Cu2   O4    S    
Cu1   Cu2   S    
Cu2   N2    S    
C16   C21   A    
Cu2   O8    S    
C7    O7    A    
C6    C20   S    
C1    C21   S    
Cu1   N1    S    
C12   H20   S    
C11   F2    S    
C12   C15   S    
C22   H22   S    
C17   N8    S    
Cu2   O2    S    
C13   N6    S    
Cu1   O7    S    
Cu1   O5    S    
C12   H21   S    
C9    H12   S    
C9    C14   S    
H13   N7    S    
Cu2   O6    S    
H8    N5    S    
C13   C14   S    
H3    N3    S    
C7    O8    A    
Cu1   O1    S    
C19   F4    S    
C9    C11   S    
H14   N8    S    
C5    C14   S    
C11   N4    S    
C11   C15   S    
C4    N2    A    
C8    H1    S    
C10   F1    S    
C22   N2    A    
C17   C19   A    
C5    O4    A    
H6    N4    S    
C18   C20   A    
C4    H17   S    
C1    O1    A    
C8    H18   S    
C3    H16   S    
C9    H19   S    
C2    H2    S    
C5    O3    A    
C3    C4    A    
H11   N7    S    
H4    N3    S    
Cu1   O3    S    
H10   N6    S    
C12   C13   S    
C16   C18   A    
C2    N1    A    
C1    O2    A    
C6    O6    A    
H5    N4    S    
C10   N3    S    
C3    N1    A    
C8    C14   S    
C7    C15   S    
H15   N8    S    
C10   C15   S    
H9    N6    S    
H7    N5    S    
C8    C10   S    
C17   C21   A    
C18   F3    S    
C19   C20   A    
C16   N7    S    
C13   N5    S    
