data_mof_unit_50678.cif
_audit_creation_date              2013-03-05T15:42:03-0500
_audit_creation_method            fapswitch 2.2
_symmetry_space_group_name_H-M    P1
_symmetry_Int_Tables_number       1
_space_group_crystal_system       triclinic
_cell_length_a                    27.846099
_cell_length_b                    8.668564
_cell_length_c                    7.417757
_cell_angle_alpha                 103.092534
_cell_angle_beta                  93.328516
_cell_angle_gamma                 92.590304
_cell_volume                      1737.91694441

loop_
_atom_site_label
_atom_site_type_symbol
_atom_site_description
_atom_site_fract_x
_atom_site_fract_y
_atom_site_fract_z
_atom_type_partial_charge
O1    O     O_R   0.503500 0.286120 0.619780 -0.591297
O2    O     O_R   0.496500 0.713880 0.380220 -0.591252
O3    O     O_R   0.494410 0.256780 0.308360 -0.581332
O4    O     O_R   0.505590 0.743220 0.691640 -0.581330
C1    C     C_R   0.498536 0.199571 0.453085 0.888639
C2    C     C_R   0.501465 0.800429 0.546915 0.888614
O5    O     O_R   0.434810 0.514700 0.655690 -0.588530
O6    O     O_R   0.565190 0.485300 0.344310 -0.588539
O7    O     O_R   0.425720 0.485350 0.344280 -0.563841
O8    O     O_R   0.574280 0.514650 0.655720 -0.563975
C3    C     C_R   0.407458 0.498794 0.503682 0.816299
C4    C     C_R   0.592538 0.501250 0.496321 0.816223
Cu1   Cu    Cu3+1 0.505380 0.517380 0.684380 0.982320
Cu2   Cu    Cu3+1 0.494620 0.482620 0.315620 0.982378
C5    C     C_R   0.175969 0.374924 0.435308 0.629053
C6    C     C_R   0.824049 0.624311 0.564928 0.628699
O9    O     O_2   0.198691 0.239939 0.377778 -0.485789
O10   O     O_2   0.801391 0.759211 0.623861 -0.486072
N1    N     N_R   0.202222 0.515551 0.496657 -0.449718
N2    N     N_R   0.797736 0.483929 0.502414 -0.449766
C7    C     C_R   0.180689 0.655457 0.551185 0.598570
C8    C     C_R   0.819205 0.344075 0.446447 0.598242
C9    C     C_R   0.278878 0.562448 0.369486 -0.103748
C10   C     C_R   0.721093 0.436493 0.629431 -0.103753
C11   C     C_R   0.328598 0.555828 0.370876 -0.178239
C12   C     C_R   0.671380 0.443314 0.628343 -0.178505
C13   C     C_R   0.329253 0.454246 0.651547 -0.176529
C14   C     C_R   0.670722 0.546698 0.348920 -0.176661
C15   C     C_R   0.278636 0.461089 0.649815 0.343513
C16   C     C_R   0.721329 0.539703 0.350382 0.343135
C17   C     C_R   0.253795 0.515548 0.507420 0.236048
C18   C     C_R   0.746169 0.484174 0.491945 0.236215
C19   C     C_R   0.102068 0.511332 0.492882 -0.044765
C20   C     C_R   0.897875 0.487843 0.505495 -0.044641
C21   C     C_R   0.125664 0.370005 0.432974 -0.016786
C22   C     C_R   0.874348 0.629073 0.567065 -0.016903
C23   C     C_R   0.098834 0.225928 0.373266 -0.136881
C24   C     C_R   0.901252 0.772823 0.628843 -0.137525
C25   C     C_R   0.129791 0.657440 0.550830 -0.063996
C26   C     C_R   0.870095 0.341942 0.446408 -0.064209
C27   C     C_R   0.354520 0.502583 0.510900 -0.130626
C28   C     C_R   0.645465 0.497477 0.489029 -0.130273
H1    H     H_    0.116226 0.116189 0.325168 0.188906
H2    H     H_    0.883929 0.882365 0.678975 0.189159
C29   C     C_R   0.972698 0.351302 0.442065 0.035689
C30   C     C_R   0.027208 0.647804 0.555123 0.035985
C31   C     C_R   0.976138 0.641741 0.561461 0.053106
C32   C     C_R   0.023830 0.357172 0.437544 0.053259
C33   C     C_R   0.949090 0.493495 0.502954 0.073875
C34   C     C_R   0.050847 0.505561 0.495178 0.073947
C35   C     C_R   0.944236 0.206960 0.388261 -0.248463
C36   C     C_R   0.055565 0.792458 0.606098 -0.248944
C37   C     C_R   0.894188 0.200913 0.388648 -0.038088
C38   C     C_R   0.105629 0.798568 0.606758 -0.037806
O11   O     O_2   0.791067 0.209020 0.388954 -0.487165
O12   O     O_2   0.208770 0.790745 0.607504 -0.487160
C39   C     C_R   0.049161 0.219123 0.375659 -0.217234
C40   C     C_R   0.950928 0.779440 0.626624 -0.217139
H3    H     H_    0.653060 0.404794 0.736868 0.183044
H4    H     H_    0.346915 0.593757 0.261979 0.183526
H5    H     H_    0.740405 0.395344 0.738848 0.199344
H6    H     H_    0.259570 0.602829 0.259490 0.199963
H7    H     H_    0.959751 0.094309 0.344174 0.135011
H8    H     H_    0.039912 0.905307 0.646344 0.134692
H9    H     H_    0.032120 0.102154 0.327023 0.140126
H10   H     H_    0.968126 0.895795 0.679041 0.140875
C41   C     C_2   0.497851 0.031581 0.426640 -0.352662
C42   C     C_2   0.502151 0.968419 0.573359 -0.352738
H11   H     H_    0.493817 0.959602 0.285403 0.180305
H12   H     H_    0.506186 0.040398 0.714596 0.180276
N3    N     N_2   0.486510 0.456430 0.038510 -0.212900
N4    N     N_2   0.513490 0.543570 0.961490 -0.213023
H13   H     H_    0.466775 0.365647 0.947262 0.242798
H14   H     H_    0.533229 0.634339 0.052736 0.242836
C43   C     C_1   0.354216 0.396172 0.796958 0.358326
N5    N     N_1   0.373524 0.348957 0.914071 -0.264627
C44   C     C_1   0.645761 0.605927 0.204426 0.358444
N6    N     N_1   0.626454 0.654096 0.088045 -0.264421
N7    N     N_R   0.252253 0.412498 0.790986 0.118367
O13   O     O_R   0.259543 0.277564 0.833890 -0.293232
O14   O     O_R   0.219233 0.499598 0.871295 -0.366443
N8    N     N_R   0.747704 0.589302 0.209830 0.118695
O15   O     O_R   0.780620 0.502382 0.128430 -0.366161
O16   O     O_R   0.740508 0.724941 0.168591 -0.292388
C45   C     C_1   0.869356 0.045713 0.327071 0.344033
N9    N     N_1   0.849737 0.921328 0.277413 -0.154489
C46   C     C_1   0.130424 0.953830 0.668135 0.343359
N10   N     N_1   0.150032 0.078221 0.717806 -0.155324

loop_
_geom_bond_atom_site_label_1
_geom_bond_atom_site_label_2
_geom_bond_distance
_ccdc_geom_bond_type
C46   N10   1.157596 T    
C23   H1    1.083846 S    
C10   H5    1.083029 S    
C13   C15   1.412838 A    
Cu2   N3    2.014400 S    
C1    C41   1.423762 S    
N1    C17   1.433687 S    
C32   C39   1.416107 A    
C31   C33   1.424408 A    
C44   N6    1.156879 T    
C5    N1    1.362742 A    
C19   C25   1.418199 A    
O1    C1    1.288962 A    
C21   C23   1.393135 A    
C10   C12   1.387894 A    
C38   C46   1.448219 S    
C25   C38   1.413621 A    
C29   C35   1.414357 A    
C30   C36   1.414176 A    
C14   C28   1.419685 A    
O4    Cu1   1.945949 S    
C4    C28   1.479502 S    
C24   C40   1.383094 A    
C40   H10   1.074665 S    
C9    H6    1.082965 S    
C15   N7    1.440466 S    
C11   H4    1.083394 S    
C12   H3    1.083451 S    
C6    N2    1.362737 A    
C2    C42   1.423761 S    
Cu1   Cu2   2.680687 S    
O2    C2    1.288961 A    
C13   C43   1.445894 S    
C5    C21   1.398503 A    
C36   C38   1.392384 A    
C41   C42   1.326392 D    
C35   H7    1.075673 S    
O4    C2    1.282044 A    
C36   H8    1.075819 S    
C11   C27   1.404677 A    
N7    O14   1.301140 A    
O7    Cu2   1.943182 S    
C19   C34   1.426136 A    
C45   N9    1.157665 T    
C35   C37   1.392452 A    
C9    C17   1.394912 A    
C16   N8    1.440370 S    
O5    C3    1.300329 A    
C43   N5    1.156722 T    
C10   C18   1.394997 A    
C24   H2    1.083927 S    
C13   C27   1.419761 A    
C7    C25   1.418059 A    
C29   C33   1.418085 A    
O6    C4    1.300242 A    
C8    C26   1.418071 A    
C6    O10   1.350465 S    
C14   C44   1.445895 S    
O7    C3    1.297311 A    
O3    Cu2   1.945949 S    
O8    C4    1.297271 A    
N4    H14   1.027517 S    
N2    C8    1.365930 A    
N8    O15   1.301166 A    
N8    O16   1.301294 A    
C20   C26   1.418153 A    
O1    Cu1   1.950268 S    
C12   C28   1.404620 A    
N3    H13   1.027544 S    
N2    C18   1.433675 S    
C29   C32   1.425058 A    
C5    O9    1.350437 S    
C30   C31   1.424591 A    
C20   C33   1.426128 A    
O6    Cu2   1.962783 S    
N1    C7    1.365881 A    
C39   H9    1.074406 S    
O3    C1    1.282043 A    
O8    Cu1   1.943185 S    
C7    O12   1.348530 S    
C8    O11   1.348514 S    
Cu1   N4    2.014399 S    
C30   C34   1.417886 A    
C22   C24   1.393226 A    
C14   C16   1.412761 A    
C15   C17   1.409815 A    
C6    C22   1.398444 A    
C31   C40   1.415977 A    
C16   C18   1.409801 A    
C32   C34   1.424574 A    
C19   C21   1.410707 A    
C3    C27   1.479756 S    
C20   C22   1.410870 A    
C9    C11   1.387823 A    
O2    Cu2   1.950268 S    
N7    O13   1.301247 A    
O5    Cu1   1.962783 S    
N3    N4    1.286660 D    
C42   H12   1.087834 S    
C26   C37   1.413658 A    
C37   C45   1.448314 S    
C41   H11   1.087834 S    
C23   C39   1.383094 A    
