data_mof_unit_24737.cif
_audit_creation_date              2012-12-10T19:03:05-0500
_audit_creation_method            fapswitch 2.2
_symmetry_space_group_name_H-M    P1
_symmetry_Int_Tables_number       1
_space_group_crystal_system       triclinic
_cell_length_a                    10.807622
_cell_length_b                    10.889638
_cell_length_c                    9.656457
_cell_angle_alpha                 89.752533
_cell_angle_beta                  89.5347
_cell_angle_gamma                 95.670768
_cell_volume                      1130.86489062

loop_
_atom_site_label
_atom_site_type_symbol
_atom_type_description
_atom_site_fract_x
_atom_site_fract_y
_atom_site_fract_z
_atom_type_partial_charge
C1    C     C_R   0.500409 0.262968 0.500566 0.880628
C2    C     C_3   0.877103 0.492510 0.497800 0.029543
C3    C     C_3   0.938213 0.624669 0.530396 -0.461685
C4    C     C_3   0.927034 0.452008 0.353716 0.310320
C5    C     C_R   0.497702 0.062416 0.623558 0.136892
C6    C     C_R   0.495301 0.129505 0.500810 -0.139053
C7    C     C_R   0.490084 0.066995 0.375082 -0.261808
C8    C     C_R   0.484516 0.939264 0.368318 0.427072
C9    C     C_R   0.497194 0.871360 0.493818 -0.200200
C10   C     C_R   0.504226 0.936058 0.619278 0.009914
C11   C     C_3   0.604528 0.942447 0.726603 0.285219
C12   C     C_R   0.259945 0.500454 0.500276 0.780173
C13   C     C_3   0.592710 0.080167 0.734587 -0.448319
C14   C     C_R   0.588843 0.570271 0.071578 0.291643
C15   C     C_R   0.406001 0.435237 0.076074 0.438125
C16   C     C_R   0.409944 0.428488 0.927805 0.417208
C17   C     C_R   0.588025 0.571873 0.925060 0.148534
C18   C     C_3   0.723942 0.558382 0.919359 -0.478193
C19   C     C_3   0.724308 0.558417 0.075462 -0.470110
C20   C     C_R   0.500979 0.737676 0.498507 0.837941
C21   C     C_R   0.739340 0.495860 0.499378 0.801097
C22   C     C_3   0.060942 0.402368 0.605245 -0.312160
C23   C     C_3   0.918538 0.404095 0.610593 -0.366268
C24   C     C_3   0.081380 0.626910 0.538603 -0.410436
C25   C     C_3   0.070247 0.465795 0.353889 -0.347549
C26   C     C_3   0.121287 0.498939 0.499927 0.036209
Cu1   Cu    Cu3+1 0.499990 0.499980 0.640670 1.020961
Cu2   Cu    Cu3+1 0.500010 0.500020 0.359330 1.048050
H1    H     H_    0.097585 0.424743 0.709888 0.239541
H2    H     H_    0.898337 0.516466 0.273813 0.074924
H3    H     H_    0.125910 0.698908 0.467048 0.178821
H4    H     H_    0.913710 0.690246 0.448639 0.177979
H5    H     H_    0.498602 0.118599 0.280197 0.210455
H6    H     H_    0.575783 0.888500 0.821756 0.114821
H7    H     H_    0.552915 0.107639 0.834680 0.232045
H8    H     H_    0.677228 0.139627 0.700308 0.196545
H9    H     H_    0.084358 0.308448 0.577299 0.221457
H10   H     H_    0.743676 0.467865 0.876480 0.222838
H11   H     H_    0.778854 0.639469 0.872406 0.190672
H12   H     H_    0.743985 0.468150 0.118882 0.257251
H13   H     H_    0.777787 0.641073 0.120139 0.208510
H14   H     H_    0.871722 0.309318 0.598020 0.213210
H15   H     H_    0.891852 0.435910 0.714644 0.176744
H16   H     H_    0.112544 0.651926 0.645290 0.195663
H17   H     H_    0.901840 0.657151 0.630543 0.197628
H18   H     H_    0.105254 0.538605 0.277898 0.186663
H19   H     H_    0.106872 0.379652 0.320350 0.233071
N1    N     N_R   0.500800 0.500930 0.147930 -0.252335
N2    N     N_R   0.500800 0.500890 0.852020 -0.280191
O1    O     O_R   0.500000 0.319640 0.618810 -0.522456
O2    O     O_R   0.500010 0.319680 0.381230 -0.608357
O3    O     O_R   0.317690 0.499960 0.618790 -0.535080
O4    O     O_R   0.317700 0.500000 0.381210 -0.557538
O5    O     O_R   0.499990 0.680320 0.618770 -0.587120
O6    O     O_R   0.500000 0.680360 0.381190 -0.492290
O7    O     O_R   0.682300 0.500000 0.618790 -0.601681
O8    O     O_R   0.682310 0.500040 0.381210 -0.566771
S1    S     S_3+6 0.476480 0.876796 0.197985 -0.007389
O9    O     O_2   0.373865 0.773514 0.187809 -0.273997
O10   O     O_2   0.452406 0.974281 0.093369 -0.332973
O11   O     O_3   0.614458 0.824685 0.162012 -0.546573
H20   H     H_    0.632734 0.847208 0.064000 0.341476
O12   O     O_3   0.719799 0.917354 0.668341 -0.555955
C27   C     C_3   0.813627 0.931677 0.769911 0.052176
H21   H     H_    0.813941 0.845038 0.830380 0.136978
H22   H     H_    0.801603 0.008335 0.843541 0.156288
C28   C     C_3   0.939412 0.960014 0.698752 -0.745356
H23   H     H_    0.942140 0.049390 0.642330 0.263632
H24   H     H_    0.014357 0.966468 0.777146 0.213561
H25   H     H_    0.956038 0.886163 0.624031 0.245401
O13   O     O_3   0.296313 0.388363 0.143454 -0.543613
C29   C     C_3   0.303891 0.268659 0.199685 0.171098
H26   H     H_    0.303149 0.276965 0.313311 0.152254
H27   H     H_    0.386415 0.225642 0.162235 0.161999
C30   C     C_3   0.187662 0.179830 0.172891 -0.663515
H28   H     H_    0.198523 0.121132 0.081436 0.275953
H29   H     H_    0.169594 0.115764 0.262321 0.194264
H30   H     H_    0.105373 0.230505 0.158336 0.310422
S2    S     S_3+6 0.304598 0.305421 0.857748 -0.003169
O14   O     O_2   0.289820 0.291811 0.705150 -0.319967
O15   O     O_2   0.348069 0.186676 0.908290 -0.338332
O16   O     O_3   0.161562 0.319546 0.921721 -0.532893
H31   H     H_    0.108707 0.247136 0.886184 0.360985
S3    S     S_3+6 0.870652 0.296541 0.300862 -0.061067
O17   O     O_2   0.735733 0.266660 0.335097 -0.306241
O18   O     O_2   0.887605 0.286585 0.146834 -0.322212
O19   O     O_3   0.950949 0.192153 0.380140 -0.597604
H32   H     H_    0.914413 0.111067 0.345838 0.385604

loop_
_geom_bond_atom_site_label_1
_geom_bond_atom_site_label_2
_ccdc_geom_bond_type
O19   H32   S    
C22   H1    S    
S3    O19   S    
C30   H28   S    
C4    C25   S    
Cu1   O5    S    
C7    C8    A    
Cu2   O8    S    
C23   H14   S    
C24   C26   S    
C13   H7    S    
C11   O12   S    
C29   C30   S    
C5    C6    A    
Cu2   O2    S    
S1    O10   D    
C15   C16   A    
C23   H15   S    
C18   C19   S    
C8    S1    S    
C8    C9    A    
C1    O1    A    
C25   H19   S    
C5    C13   S    
C12   O4    A    
Cu1   O1    S    
S1    O11   S    
C7    H5    S    
C14   C17   A    
C3    C24   S    
O11   H20   S    
C15   N1    A    
C20   O6    A    
C12   O3    A    
Cu2   O6    S    
C1    C6    S    
C27   C28   S    
S3    O17   D    
C13   H8    S    
C29   H27   S    
C10   C11   S    
C17   N2    A    
S2    O15   D    
Cu1   O7    S    
C14   N1    A    
C25   C26   S    
C22   H9    S    
C3    H17   S    
C28   H23   S    
C12   C26   S    
C28   H24   S    
C27   H22   S    
C2    C4    S    
C18   H11   S    
C21   O8    A    
C21   O7    A    
C1    O2    A    
C9    C20   S    
C4    S3    S    
C2    C21   S    
C17   C18   S    
C16   N2    A    
C30   H29   S    
C20   O5    A    
C24   H16   S    
S2    O14   D    
S1    O9    D    
C2    C23   S    
Cu1   O3    S    
C9    C10   A    
Cu2   N1    S    
C14   C19   S    
C11   H6    S    
S3    O18   D    
C29   H26   S    
S2    O16   S    
Cu2   O4    S    
C6    C7    A    
C15   O13   S    
C16   S2    S    
C27   H21   S    
C28   H25   S    
C2    C3    S    
C18   H10   S    
C24   H3    S    
C5    C10   A    
C11   C13   S    
C3    H4    S    
C30   H30   S    
C19   H12   S    
O12   C27   S    
C19   H13   S    
O13   C29   S    
O16   H31   S    
C22   C26   S    
Cu1   Cu2   S    
C22   C23   S    
C25   H18   S    
C4    H2    S    
Cu1   N2    S    
