data_mof_unit_5086.cif
_audit_creation_date              2012-10-26T20:17:38-0400
_audit_creation_method            fapswitch 2.2
_symmetry_space_group_name_H-M    P1
_symmetry_Int_Tables_number       1
_space_group_crystal_system       triclinic
_cell_length_a                    27.798608
_cell_length_b                    8.689533
_cell_length_c                    7.61316
_cell_angle_alpha                 103.281763
_cell_angle_beta                  96.226226
_cell_angle_gamma                 95.587512
_cell_volume                      1764.99606382

loop_
_atom_site_label
_atom_site_type_symbol
_atom_type_description
_atom_site_fract_x
_atom_site_fract_y
_atom_site_fract_z
_atom_type_partial_charge
C1    C     C_R   0.498406 0.199950 0.452952 0.534999
C2    C     C_R   0.865175 0.371768 0.395348 0.030050
C3    C     C_R   0.354627 0.499187 0.496273 -0.001833
C4    C     C_R   0.645355 0.500537 0.503949 -0.002074
C5    C     C_R   0.967078 0.367115 0.394092 0.017128
C6    C     C_R   0.032955 0.634926 0.602594 0.016689
C7    C     C_R   0.981955 0.633094 0.608687 0.018959
C8    C     C_R   0.018242 0.364227 0.398212 0.019036
C9    C     C_R   0.949284 0.500316 0.501953 0.033313
C10   C     C_R   0.050831 0.499343 0.499845 0.033743
C11   C     C_R   0.932759 0.241350 0.284447 -0.138240
C12   C     C_R   0.501595 0.800050 0.547048 0.535011
C13   C     C_R   0.067002 0.768579 0.695177 -0.139734
C14   C     C_R   0.882935 0.243748 0.285792 -0.098420
C15   C     C_R   0.116785 0.767175 0.691533 -0.098728
C16   C     C_R   0.407663 0.499398 0.498809 0.537618
C17   C     C_R   0.592331 0.500562 0.501206 0.537435
C18   C     C_R   0.038221 0.229911 0.304820 -0.142121
C19   C     C_R   0.962247 0.759547 0.719097 -0.140598
C20   C     C_2   0.497783 0.031244 0.427641 -0.151191
C21   C     C_2   0.502219 0.968757 0.572360 -0.151209
C22   C     C_R   0.171000 0.366327 0.401744 0.409786
C23   C     C_R   0.101953 0.498888 0.498665 -0.026475
C24   C     C_R   0.829284 0.628130 0.611037 0.410223
C25   C     C_R   0.185048 0.630444 0.591363 0.420976
C26   C     C_R   0.814879 0.374122 0.399247 0.419168
C27   C     C_R   0.275438 0.526076 0.343473 0.034023
C28   C     C_R   0.724317 0.471131 0.656346 0.033328
C29   C     C_R   0.325777 0.525345 0.344945 -0.150879
C30   C     C_R   0.673983 0.472150 0.654421 -0.151576
C31   C     C_R   0.332432 0.473377 0.645823 -0.145231
C32   C     C_R   0.667752 0.528314 0.355636 -0.145549
C33   C     C_R   0.282265 0.472128 0.643805 -0.061619
C34   C     C_R   0.898159 0.500718 0.503118 -0.027201
C35   C     C_R   0.717935 0.529433 0.358136 -0.061437
C36   C     C_R   0.253571 0.498525 0.493490 0.230666
C37   C     C_R   0.746453 0.500892 0.507692 0.228968
C38   C     C_3   0.413446 0.272055 0.995389 -0.243174
C39   C     C_3   0.586577 0.727822 0.004575 -0.243248
C40   C     C_1   0.752739 0.436320 0.809383 0.234360
C41   C     C_1   0.246677 0.558033 0.189390 0.232785
C42   C     C_R   0.120423 0.364233 0.401158 0.028030
C43   C     C_R   0.879869 0.630080 0.612018 0.028644
C44   C     C_R   0.088221 0.230411 0.306187 -0.112445
C45   C     C_R   0.912283 0.757957 0.719990 -0.110740
C46   C     C_R   0.134753 0.633090 0.594995 0.030604
Cu1   Cu    Cu3+1 0.505380 0.517380 0.684380 0.974093
Cu2   Cu    Cu3+1 0.494620 0.482620 0.315620 0.974200
H1    H     H_    0.353759 0.452844 0.763798 0.122672
H2    H     H_    0.141221 0.872581 0.765009 0.179463
H3    H     H_    0.942959 0.139417 0.193010 0.108113
H4    H     H_    0.056547 0.878206 0.770140 0.110957
H5    H     H_    0.016354 0.120460 0.230940 0.106192
H6    H     H_    0.984370 0.861438 0.809469 0.104589
H7    H     H_    0.493711 0.958256 0.288963 0.153144
H8    H     H_    0.506291 0.041745 0.711038 0.153143
H9    H     H_    0.447829 0.327778 0.797670 0.293994
H10   H     H_    0.391815 0.171430 0.890547 0.105147
H11   H     H_    0.390514 0.370286 0.021746 0.138186
H12   H     H_    0.646573 0.550595 0.238369 0.122200
H13   H     H_    0.421404 0.226458 0.117390 0.198452
H14   H     H_    0.552174 0.672228 0.202337 0.293909
H15   H     H_    0.608231 0.828388 0.109426 0.104455
H16   H     H_    0.578621 0.773479 0.882611 0.198481
H17   H     H_    0.609485 0.629516 0.978144 0.138720
H18   H     H_    0.265566 0.450423 0.759225 0.151651
H19   H     H_    0.734792 0.552713 0.243653 0.152216
H20   H     H_    0.101538 0.124609 0.231985 0.164231
H21   H     H_    0.899170 0.857960 0.806755 0.161341
H22   H     H_    0.657135 0.448279 0.768924 0.124305
H23   H     H_    0.342437 0.547600 0.229399 0.123572
H24   H     H_    0.858294 0.144164 0.199690 0.180560
N1    N     N_R   0.202036 0.498466 0.495335 -0.397484
N2    N     N_R   0.798036 0.500949 0.506320 -0.397771
N3    N     N_2   0.486510 0.456430 0.038510 -0.008055
N4    N     N_2   0.513490 0.543570 0.961490 -0.008024
N5    N     N_2   0.457342 0.323428 0.927834 -0.394772
N6    N     N_2   0.542674 0.676542 0.072153 -0.394790
N7    N     N_1   0.775672 0.408223 0.931695 -0.260826
N8    N     N_1   0.223455 0.583915 0.066309 -0.267514
O1    O     O_R   0.503500 0.286120 0.619780 -0.517520
O2    O     O_2   0.811397 0.752389 0.713337 -0.484633
O3    O     O_2   0.783029 0.250347 0.297787 -0.471069
O4    O     O_2   0.216756 0.758794 0.682350 -0.471284
O5    O     O_R   0.496500 0.713880 0.380220 -0.517498
O6    O     O_R   0.494410 0.256780 0.308360 -0.494636
O7    O     O_R   0.505590 0.743220 0.691640 -0.494621
O8    O     O_R   0.434810 0.514700 0.655690 -0.524016
O9    O     O_R   0.565190 0.485300 0.344310 -0.523805
O10   O     O_R   0.425720 0.485350 0.344280 -0.519527
O11   O     O_R   0.574280 0.514650 0.655720 -0.519677
O12   O     O_2   0.189090 0.237495 0.309827 -0.482283

loop_
_geom_bond_atom_site_label_1
_geom_bond_atom_site_label_2
_ccdc_geom_bond_type
C37   N2    S    
C16   O10   A    
C26   O3    S    
C27   C29   A    
C17   O11   A    
C41   N8    T    
Cu1   O11   S    
C39   H16   S    
C23   C42   A    
C12   O5    A    
C35   C37   A    
N4    N6    S    
Cu1   N4    S    
C5    C11   A    
C11   C14   A    
C28   C40   S    
C1    O1    A    
C33   C36   A    
C15   H2    S    
C3    C29   A    
C24   O2    S    
C18   H5    S    
C38   H10   S    
C25   O4    S    
C31   C33   A    
C38   H13   S    
C2    C34   A    
C23   C46   A    
Cu2   O10   S    
C39   H17   S    
Cu2   N3    S    
C42   C44   A    
C31   H1    S    
C20   H7    S    
C30   H22   S    
C33   H18   S    
C45   H21   S    
C32   C35   A    
H9    N5    S    
C17   O9    A    
C12   C21   S    
C8    C18   A    
Cu1   O7    S    
N3    N4    D    
C39   N6    S    
C5    C9    A    
C18   C44   A    
C5    C8    A    
C13   H4    S    
C43   C45   A    
C27   C41   S    
Cu1   Cu2   S    
C35   H19   S    
C40   N7    T    
C2    C26   A    
C3    C31   A    
N3    N5    S    
C4    C32   A    
C4    C17   S    
C19   H6    S    
C7    C19   A    
Cu2   O9    S    
C13   C15   A    
C9    C34   A    
C10   C23   A    
Cu2   O6    S    
C44   H20   S    
C32   H12   S    
C1    O6    A    
C7    C9    A    
C1    C20   S    
C12   O7    A    
C14   H24   S    
H14   N6    S    
C34   C43   A    
C6    C10   A    
C21   H8    S    
C19   C45   A    
C6    C7    A    
C38   N5    S    
C27   C36   A    
C39   H15   S    
C22   N1    A    
Cu1   O8    S    
C28   C30   A    
C6    C13   A    
C24   N2    A    
C22   C42   A    
C28   C37   A    
C26   N2    A    
C25   N1    A    
Cu1   O1    S    
C2    C14   A    
C11   H3    S    
C36   N1    S    
C38   H11   S    
C20   C21   D    
C8    C10   A    
C16   O8    A    
C24   C43   A    
C22   O12   S    
Cu2   O5    S    
C15   C46   A    
C25   C46   A    
C4    C30   A    
C3    C16   S    
C29   H23   S    
