data_mof_unit_6092.cif
_audit_creation_date              2012-10-26T17:12:32-0400
_audit_creation_method            fapswitch 2.2
_symmetry_space_group_name_H-M    P1
_symmetry_Int_Tables_number       1
_space_group_crystal_system       triclinic
_cell_length_a                    16.86867
_cell_length_b                    16.816114
_cell_length_c                    16.778793
_cell_angle_alpha                 68.377659
_cell_angle_beta                  68.717332
_cell_angle_gamma                 68.690694
_cell_volume                      3975.35878353

loop_
_atom_site_label
_atom_site_type_symbol
_atom_type_description
_atom_site_fract_x
_atom_site_fract_y
_atom_site_fract_z
_atom_type_partial_charge
C1    C     C_R   0.026180 0.828704 0.565179 0.819999
C2    C     C_R   0.996571 0.164523 0.428113 0.796697
C3    C     C_R   0.832496 0.569830 0.011565 0.800197
C4    C     C_R   0.170621 0.433644 0.976908 0.826191
C5    C     C_R   0.565418 0.025115 0.828941 0.786412
C6    C     C_R   0.434351 0.975589 0.171018 0.820879
C7    C     C_R   0.429992 0.167114 0.989308 0.807595
C8    C     C_R   0.566145 0.829255 0.023847 0.811049
C9    C     C_R   0.996514 0.428136 0.164524 0.786978
C10   C     C_R   0.026141 0.565166 0.828735 0.833082
C11   C     C_R   0.170952 0.975622 0.434419 0.821956
C12   C     C_R   0.829030 0.024930 0.565408 0.792737
C13   C     C_R   0.456059 0.066105 0.702852 0.533888
C14   C     C_R   0.544262 0.932181 0.297566 0.554998
C15   C     C_R   0.105376 0.699420 0.450753 0.523155
C16   C     C_R   0.070568 0.251646 0.505838 0.504030
C17   C     C_R   0.730626 0.490746 0.958604 0.513566
C18   C     C_R   0.298563 0.539321 0.938777 0.557611
C19   C     C_R   0.295773 0.935427 0.545985 0.567222
C20   C     C_R   0.704558 0.062736 0.454519 0.524332
C21   C     C_R   0.507161 0.266701 0.046743 0.511348
C22   C     C_R   0.460822 0.700043 0.066696 0.529352
C23   C     C_R   0.071626 0.504751 0.251105 0.505753
C24   C     C_R   0.105770 0.451269 0.699390 0.534586
C25   C     C_R   0.544538 0.019478 0.544052 -0.128138
C26   C     C_R   0.456355 0.977677 0.457023 -0.127635
C27   C     C_R   0.081388 0.528994 0.528795 -0.122137
C28   C     C_R   0.071275 0.429780 0.429833 -0.122457
C29   C     C_R   0.547822 0.547874 0.009068 -0.133093
C30   C     C_R   0.449973 0.450521 0.997734 -0.134304
C31   C     C_R   0.585865 0.011484 0.456518 -0.072551
C32   C     C_R   0.415063 0.985477 0.544584 -0.073861
C33   C     C_R   0.089701 0.437098 0.566257 -0.078968
C34   C     C_R   0.080182 0.517933 0.387458 -0.076823
C35   C     C_R   0.457005 0.584760 0.014872 -0.078377
C36   C     C_R   0.535537 0.408733 0.009456 -0.069325
C37   C     C_R   0.544239 0.983468 0.415683 -0.063616
C38   C     C_R   0.456665 0.013510 0.585431 -0.079912
C39   C     C_R   0.413338 0.541555 0.992353 -0.071834
C40   C     C_R   0.588935 0.461994 0.997767 -0.063776
C41   C     C_R   0.079841 0.387819 0.518256 -0.076254
C42   C     C_R   0.089794 0.566169 0.436707 -0.082041
C43   C     C_R   0.410729 0.047086 0.660104 0.626892
C44   C     C_R   0.589924 0.950291 0.340705 0.622874
C45   C     C_R   0.115682 0.646453 0.398130 0.626866
C46   C     C_R   0.075617 0.298820 0.555643 0.617764
C47   C     C_R   0.681126 0.436023 0.967435 0.622115
C48   C     C_R   0.339769 0.586490 0.957512 0.638638
C49   C     C_R   0.339155 0.954070 0.591089 0.632142
C50   C     C_R   0.661509 0.043236 0.409773 0.614430
C51   C     C_R   0.561395 0.315965 0.039412 0.629711
C52   C     C_R   0.413006 0.658474 0.049398 0.632771
C53   C     C_R   0.076547 0.554774 0.298079 0.615480
C54   C     C_R   0.115809 0.398655 0.646573 0.633905
C55   C     C_R   0.549313 0.045133 0.676653 -0.114225
C56   C     C_R   0.451010 0.953765 0.323773 -0.099591
C57   C     C_R   0.070609 0.673105 0.543822 -0.112951
C58   C     C_R   0.046147 0.294962 0.425070 -0.110192
C59   C     C_R   0.690740 0.565372 0.993434 -0.107617
C60   C     C_R   0.320813 0.445230 0.967410 -0.104931
C61   C     C_R   0.322573 0.955084 0.452126 -0.110042
C62   C     C_R   0.677785 0.043714 0.548345 -0.106255
C63   C     C_R   0.433041 0.307730 0.011066 -0.113004
C64   C     C_R   0.554328 0.677822 0.037135 -0.116914
C65   C     C_R   0.046565 0.424565 0.294864 -0.109837
C66   C     C_R   0.070789 0.544121 0.672970 -0.104292
C67   C     C_R   0.602079 0.035475 0.731315 -0.086556
C68   C     C_R   0.397692 0.966100 0.268560 -0.077816
C69   C     C_R   0.040659 0.730328 0.600241 -0.079150
C70   C     C_R   0.020822 0.251653 0.381941 -0.109206
C71   C     C_R   0.739857 0.611715 0.004612 -0.098541
C72   C     C_R   0.265842 0.393703 0.975005 -0.073572
C73   C     C_R   0.268051 0.966492 0.398246 -0.075361
C74   C     C_R   0.731842 0.034929 0.601600 -0.089888
C75   C     C_R   0.387447 0.259206 0.998174 -0.102983
C76   C     C_R   0.605842 0.733416 0.027764 -0.083717
C77   C     C_R   0.020946 0.381747 0.251646 -0.106526
C78   C     C_R   0.040670 0.600350 0.730279 -0.070942
C79   C     C_R   0.694335 0.023347 0.694223 -0.139853
C80   C     C_R   0.305134 0.982141 0.305243 -0.107512
C81   C     C_R   0.016521 0.693130 0.693154 -0.105664
C82   C     C_R   0.019117 0.292219 0.292211 -0.134733
C83   C     C_R   0.698997 0.699588 0.010318 -0.141057
C84   C     C_R   0.299682 0.300110 0.992836 -0.129581
C85   C     C_R   0.591088 0.034855 0.590217 -0.090719
C86   C     C_R   0.409517 0.963280 0.410529 -0.100556
C87   C     C_R   0.071968 0.582609 0.582380 -0.095447
C88   C     C_R   0.053050 0.383570 0.383738 -0.082196
C89   C     C_R   0.597765 0.597054 0.013633 -0.078009
C90   C     C_R   0.401119 0.401047 0.991848 -0.079592
Cu1   Cu    Cu3+1 0.995180 0.995180 0.424630 1.186218
Cu2   Cu    Cu3+1 0.004820 0.004820 0.575370 1.217009
Cu3   Cu    Cu3+1 0.995180 0.424630 0.995180 1.197415
Cu4   Cu    Cu3+1 0.004820 0.575370 0.004820 1.217229
Cu5   Cu    Cu3+1 0.424630 0.995180 0.995180 1.201953
Cu6   Cu    Cu3+1 0.575370 0.004820 0.004820 1.191835
O1    O     O_R   0.124540 0.978640 0.385460 -0.566863
O2    O     O_R   0.875460 0.021360 0.614540 -0.590433
O3    O     O_R   0.978640 0.385460 0.124540 -0.591843
O4    O     O_R   0.021360 0.614540 0.875460 -0.565311
O5    O     O_R   0.385460 0.124540 0.978640 -0.564078
O6    O     O_R   0.614540 0.875460 0.021360 -0.573484
O7    O     O_R   0.614540 0.021360 0.875460 -0.595144
O8    O     O_R   0.385460 0.978640 0.124540 -0.569326
O9    O     O_R   0.875460 0.614540 0.021360 -0.592315
O10   O     O_R   0.124540 0.385460 0.978640 -0.578552
O11   O     O_R   0.021360 0.875460 0.614540 -0.553138
O12   O     O_R   0.978640 0.124540 0.385460 -0.564975
O13   O     O_R   0.013780 0.867370 0.487190 -0.542068
O14   O     O_R   0.986220 0.132630 0.512810 -0.515806
O15   O     O_R   0.867370 0.487190 0.013780 -0.517109
O16   O     O_R   0.132630 0.512810 0.986220 -0.486987
O17   O     O_R   0.487190 0.013780 0.867370 -0.525510
O18   O     O_R   0.512810 0.986220 0.132630 -0.493981
O19   O     O_R   0.512810 0.132630 0.986220 -0.526237
O20   O     O_R   0.487190 0.867370 0.013780 -0.531140
O21   O     O_R   0.986220 0.512810 0.132630 -0.511463
O22   O     O_R   0.013780 0.487190 0.867370 -0.502810
O23   O     O_R   0.132630 0.986220 0.512810 -0.489224
O24   O     O_R   0.867370 0.013780 0.487190 -0.525483
F1    F     F_    0.407456 0.116063 0.760691 -0.566957
F2    F     F_    0.592477 0.883056 0.238903 -0.590800
F3    F     F_    0.141524 0.769206 0.410963 -0.582769
F4    F     F_    0.102292 0.162365 0.532964 -0.603088
F5    F     F_    0.814038 0.476975 0.904819 -0.610163
F6    F     F_    0.244281 0.586374 0.884470 -0.577643
F7    F     F_    0.236496 0.887112 0.595784 -0.571485
F8    F     F_    0.763132 0.111777 0.404293 -0.582319
F9    F     F_    0.521212 0.182001 0.099350 -0.607870
F10   F     F_    0.415150 0.755153 0.119971 -0.570514
F11   F     F_    0.103920 0.531041 0.161657 -0.605443
F12   F     F_    0.142272 0.411725 0.769118 -0.586687
F13   F     F_    0.321160 0.072584 0.685219 -0.501390
F14   F     F_    0.679474 0.924701 0.315365 -0.549884
F15   F     F_    0.164657 0.667353 0.312751 -0.499212
F16   F     F_    0.071739 0.255606 0.642321 -0.520400
F17   F     F_    0.722521 0.364681 0.933958 -0.556024
F18   F     F_    0.314867 0.676497 0.930350 -0.530573
F19   F     F_    0.313037 0.930309 0.681328 -0.526716
F20   F     F_    0.687434 0.066883 0.319527 -0.522543
F21   F     F_    0.632416 0.273617 0.073435 -0.536871
F22   F     F_    0.323538 0.683438 0.077083 -0.503912
F23   F     F_    0.073088 0.641087 0.254258 -0.523470
F24   F     F_    0.164653 0.313373 0.667593 -0.501649
C91   C     C_1   0.751740 0.993608 0.752591 0.328957
N1    N     N_1   0.796977 0.970841 0.799223 -0.174304
C92   C     C_1   0.247149 0.024001 0.246457 0.324116
N2    N     N_1   0.200973 0.056968 0.199719 -0.202450
C93   C     C_1   0.959666 0.750112 0.750468 0.295893
N3    N     N_1   0.914422 0.795331 0.796294 -0.228536
C94   C     C_1   0.024183 0.238749 0.238430 0.334284
N4    N     N_1   0.027859 0.196407 0.195557 -0.161338
C95   C     C_1   0.754707 0.756764 0.991346 0.358765
N5    N     N_1   0.798830 0.802183 0.976906 -0.159600
C96   C     C_1   0.242566 0.243855 0.013646 0.360207
N6    N     N_1   0.197193 0.199225 0.029633 -0.159063

loop_
_geom_bond_atom_site_label_1
_geom_bond_atom_site_label_2
_ccdc_geom_bond_type
C25   C31   A    
C40   C47   A    
C14   C56   A    
C48   F18   S    
C5    O7    A    
Cu4   O9    S    
C26   C32   A    
Cu3   Cu4   S    
C14   F2    S    
Cu6   O6    S    
C9    O21   A    
C54   F24   S    
Cu5   Cu6   S    
C34   C42   A    
C13   C43   A    
C5    C67   S    
C11   O23   A    
C29   C89   A    
C91   N1    T    
C10   C78   S    
Cu2   O2    S    
C79   C91   S    
C27   C33   A    
C15   F3    S    
C14   C44   A    
Cu2   O23   S    
C19   C61   A    
C20   F8    S    
C12   C74   S    
Cu3   O10   S    
C84   C96   S    
C50   F20   S    
C75   C84   A    
C60   C72   A    
C24   C54   A    
C28   C41   A    
C8    C76   S    
C63   C90   A    
C59   C89   A    
Cu4   O16   S    
C43   F13   S    
C19   C49   A    
C6    O18   A    
C20   C50   A    
C1    O13   A    
C12   O24   A    
C80   C92   S    
C92   N2    T    
C3    O15   A    
C28   C88   A    
C41   C46   A    
Cu6   O19   S    
C6    O8    A    
Cu3   O3    S    
C12   O2    A    
C82   C94   S    
Cu1   Cu2   S    
C30   C90   A    
C6    C68   S    
C4    O16   A    
C28   C34   A    
C9    O3    A    
C22   F10   S    
C15   C57   A    
Cu6   O18   S    
C64   C89   A    
C76   C83   A    
C2    O12   A    
C23   C53   A    
C96   N6    T    
C71   C83   A    
C51   F21   S    
C44   F14   S    
C23   C65   A    
C66   C78   A    
C62   C85   A    
C45   F15   S    
C65   C77   A    
C36   C40   A    
C67   C79   A    
C11   C73   S    
C16   C46   A    
C66   C87   A    
C58   C70   A    
C7    C75   S    
C26   C86   A    
C61   C73   A    
C56   C68   A    
C4    O10   A    
C1    C69   S    
C31   C37   A    
C18   C48   A    
C53   F23   S    
C42   C45   A    
C55   C85   A    
C35   C39   A    
C27   C42   A    
C10   O22   A    
C25   C38   A    
C13   F1    S    
C24   F12   S    
Cu2   O11   S    
C56   C86   A    
C3    O9    A    
Cu4   O4    S    
Cu5   O20   S    
C94   N4    T    
C47   F17   S    
C4    C72   S    
C25   C85   A    
C64   C76   A    
C23   F11   S    
C9    C77   S    
Cu1   O1    S    
C10   O4    A    
C21   F9    S    
C72   C84   A    
C36   C51   A    
C17   C59   A    
C18   C60   A    
Cu3   O15   S    
C16   C58   A    
C32   C38   A    
C74   C79   A    
C49   F19   S    
Cu3   O22   S    
C15   C45   A    
C31   C50   A    
C68   C80   A    
C21   C51   A    
Cu5   O8    S    
C65   C88   A    
C22   C52   A    
C33   C54   A    
C2    O14   A    
C5    O17   A    
Cu1   O12   S    
C7    O19   A    
C17   C47   A    
C58   C88   A    
C55   C67   A    
C26   C37   A    
C3    C71   S    
C83   C95   S    
C60   C90   A    
C29   C35   A    
C30   C36   A    
C11   O1    A    
C33   C41   A    
Cu1   O13   S    
C37   C44   A    
C16   F4    S    
C38   C43   A    
Cu2   O14   S    
C93   N3    T    
C27   C87   A    
C78   C81   A    
C17   F5    S    
C63   C75   A    
C77   C82   A    
Cu5   O17   S    
C81   C93   S    
C29   C40   A    
C19   F7    S    
Cu4   O21   S    
C73   C80   A    
C30   C39   A    
C20   C62   A    
C70   C82   A    
C52   F22   S    
C32   C49   A    
C21   C63   A    
C69   C81   A    
C61   C86   A    
C8    O20   A    
C22   C64   A    
C1    O11   A    
C57   C87   A    
C46   F16   S    
C24   C66   A    
C34   C53   A    
C7    O5    A    
Cu6   O7    S    
C35   C52   A    
Cu1   O24   S    
C62   C74   A    
C57   C69   A    
C95   N5    T    
C2    C70   S    
C8    O6    A    
C18   F6    S    
Cu5   O5    S    
C59   C71   A    
C39   C48   A    
C13   C55   A    
