data_mof_unit_36679.cif
_audit_creation_date              2012-12-10T17:06:13-0500
_audit_creation_method            fapswitch 2.2
_symmetry_space_group_name_H-M    P1
_symmetry_Int_Tables_number       1
_space_group_crystal_system       triclinic
_cell_length_a                    10.631653
_cell_length_b                    11.019584
_cell_length_c                    9.856707
_cell_angle_alpha                 111.927304
_cell_angle_beta                  98.100972
_cell_angle_gamma                 91.553972
_cell_volume                      1056.54307103

loop_
_atom_site_label
_atom_site_type_symbol
_atom_type_description
_atom_site_fract_x
_atom_site_fract_y
_atom_site_fract_z
_atom_type_partial_charge
C1    C     C_R   0.485482 0.252862 0.438972 0.759350
C2    C     C_R   0.510582 0.746977 0.561197 0.763286
C3    C     C_R   0.259554 0.498612 0.500744 0.858473
C4    C     C_R   0.740477 0.500087 0.498889 0.884338
C5    C     C_3   0.058835 0.519901 0.638339 -0.267755
C6    C     C_3   0.941328 0.476728 0.360464 -0.213615
C7    C     C_3   0.959120 0.403029 0.541831 -0.229701
C8    C     C_3   0.040980 0.593599 0.456972 -0.264700
C9    C     C_3   0.876838 0.499019 0.497089 -0.161160
C10   C     C_3   0.123265 0.497858 0.501872 -0.166302
C11   C     C_3   0.974904 0.613830 0.591974 0.404548
C12   C     C_3   0.025472 0.382795 0.406837 0.487609
C13   C     C_2   0.465255 0.110954 0.402512 0.265152
C14   C     C_2   0.517996 0.888908 0.599004 0.207089
C15   C     C_2   0.474130 0.070207 0.515696 -0.172368
C16   C     C_2   0.463450 0.931940 0.496017 -0.183864
C17   C     C_2   0.510757 0.511189 0.081704 -0.003540
C18   C     C_2   0.489264 0.488774 0.918274 -0.022015
Cu1   Cu    Cu3+1 0.522260 0.521810 0.644920 1.037352
Cu2   Cu    Cu3+1 0.477740 0.478190 0.355080 1.052274
H1    H     H_    0.108566 0.538956 0.752132 0.190788
H2    H     H_    0.891614 0.457726 0.246680 0.202181
H3    H     H_    0.415293 0.414484 0.844395 0.165034
H4    H     H_    0.584760 0.585446 0.155565 0.173017
N1    N     N_2   0.444270 0.445410 0.137360 -0.266129
N2    N     N_2   0.555730 0.554590 0.862640 -0.270410
O1    O     O_R   0.511880 0.332340 0.577400 -0.608795
O2    O     O_R   0.488120 0.667660 0.422600 -0.601587
O3    O     O_R   0.474280 0.295500 0.332650 -0.510045
O4    O     O_R   0.525720 0.704500 0.667350 -0.536516
O5    O     O_R   0.335640 0.518390 0.622350 -0.592166
O6    O     O_R   0.664360 0.481610 0.377650 -0.577544
O7    O     O_R   0.298050 0.481550 0.377590 -0.548654
O8    O     O_R   0.701950 0.518450 0.622410 -0.538752
H5    H     H_    0.923133 0.324077 0.574484 0.203936
H6    H     H_    0.076964 0.672606 0.424394 0.198328
S1    S     S_3+6 0.941719 0.770142 0.715907 0.075121
O9    O     O_2   0.849119 0.828417 0.632683 -0.214680
O10   O     O_2   0.884668 0.755048 0.840373 -0.243292
O11   O     O_3   0.077190 0.869952 0.785204 -0.461109
H7    H     H_    0.134823 0.823958 0.834169 0.354569
S2    S     S_3+6 0.060527 0.226936 0.283090 0.044166
O12   O     O_2   0.121965 0.244434 0.162569 -0.279752
O13   O     O_2   0.149715 0.166432 0.367246 -0.293425
O14   O     O_3   0.924265 0.129076 0.207948 -0.459603
H8    H     H_    0.949550 0.047106 0.135757 0.422024
H9    H     H_    0.412084 0.861492 0.392196 0.216037
H10   H     H_    0.494423 0.142226 0.628036 0.208276
S3    S     S_3+6 0.604268 0.997291 0.773303 0.100728
O15   O     O_2   0.712008 0.072451 0.746937 -0.194887
O16   O     O_2   0.517447 0.093640 0.855570 -0.282692
O17   O     O_3   0.665351 0.916159 0.878421 -0.402082
H11   H     H_    0.595059 0.902211 0.928472 0.397068
S4    S     S_3+6 0.427516 0.999072 0.214258 0.045784
O18   O     O_2   0.525916 0.901115 0.182586 -0.290124
O19   O     O_2   0.299167 0.926556 0.189622 -0.273411
O20   O     O_3   0.424217 0.075949 0.095423 -0.449281
H12   H     H_    0.335949 0.101308 0.083022 0.394143
H13   H     H_    0.624579 0.625247 0.935674 0.237369
H14   H     H_    0.375392 0.374782 0.064337 0.231919

loop_
_geom_bond_atom_site_label_1
_geom_bond_atom_site_label_2
_ccdc_geom_bond_type
C12   S2    S    
C5    C7    S    
S2    O14   S    
C8    H6    S    
S1    O9    D    
N1    H14   S    
Cu1   O1    S    
N2    H13   S    
C13   S4    S    
Cu1   Cu2   S    
C18   N2    D    
C2    O4    A    
S3    O17   S    
C17   N1    D    
C6    C9    S    
C1    O3    A    
C17   C18   S    
C4    C9    S    
Cu1   O5    S    
C5    C10   S    
S1    O10   D    
C3    C10   S    
O14   H8    S    
C3    O5    A    
C9    C11   S    
O20   H12   S    
C4    O6    A    
S2    O13   D    
C15   H10   S    
C8    C11   S    
Cu2   O7    S    
C10   C12   S    
C16   H9    S    
C8    C10   S    
O11   H7    S    
C5    C11   S    
S1    O11   S    
C4    O8    A    
Cu2   O3    S    
C13   C15   D    
C6    C12   S    
C7    C12   S    
C2    C14   S    
S4    O19   D    
C17   H4    S    
C1    C13   S    
S2    O12   D    
C3    O7    A    
C18   H3    S    
C14   S3    S    
C7    C9    S    
Cu2   N1    S    
C5    H1    S    
O17   H11   S    
C1    O1    A    
S3    O15   D    
Cu2   O6    S    
C11   S1    S    
Cu1   N2    S    
C2    O2    A    
S4    O18   D    
C6    C8    S    
Cu2   O2    S    
C14   C16   D    
Cu1   O4    S    
C7    H5    S    
S4    O20   S    
C15   C16   S    
S3    O16   D    
Cu1   O8    S    
C6    H2    S    
