data_mof_unit_5184.cif
_audit_creation_date              2012-12-10T18:33:43-0500
_audit_creation_method            fapswitch 2.2
_symmetry_space_group_name_H-M    P1
_symmetry_Int_Tables_number       1
_space_group_crystal_system       triclinic
_cell_length_a                    10.494995
_cell_length_b                    15.003148
_cell_length_c                    15.426084
_cell_angle_alpha                 82.27914
_cell_angle_beta                  89.789704
_cell_angle_gamma                 104.624058
_cell_volume                      2327.17222638

loop_
_atom_site_label
_atom_site_type_symbol
_atom_type_description
_atom_site_fract_x
_atom_site_fract_y
_atom_site_fract_z
_atom_type_partial_charge
C1    C     C_R   0.478431 0.441813 0.662350 0.868407
C2    C     C_R   0.397459 0.489945 0.043847 0.084952
C3    C     C_R   0.333204 0.396010 0.074338 -0.238115
C4    C     C_R   0.449373 0.613937 0.920979 -0.241262
C5    C     C_R   0.305681 0.329758 0.017408 -0.242844
C6    C     C_R   0.476289 0.680408 0.977573 -0.246178
C7    C     C_R   0.687535 0.840622 0.642327 -0.321132
C8    C     C_R   0.317311 0.160642 0.354938 -0.321420
C9    C     C_R   0.657390 0.752112 0.618371 0.010362
C10   C     C_R   0.343893 0.248211 0.380895 0.013747
C11   C     C_R   0.518534 0.794874 0.507892 -0.060380
C12   C     C_R   0.515313 0.558115 0.337769 0.872013
C13   C     C_R   0.483551 0.205668 0.490901 -0.061001
C14   C     C_R   0.545550 0.886413 0.528563 -0.004108
C15   C     C_R   0.460673 0.115212 0.467917 -0.003520
C16   C     C_R   0.742658 0.500967 0.500219 0.860287
C17   C     C_R   0.257351 0.499015 0.499818 0.857188
C18   C     C_R   0.631472 0.908040 0.597875 0.182999
C19   C     C_R   0.375778 0.093854 0.398037 0.184136
C20   C     C_R   0.489769 0.956094 0.483959 0.083159
C21   C     C_R   0.518849 0.046171 0.511191 0.080954
C22   C     C_R   0.605006 0.064212 0.580650 -0.236398
C23   C     C_R   0.461598 0.472297 0.812675 -0.266201
C24   C     C_R   0.406286 0.938762 0.413047 -0.237591
C25   C     C_R   0.660395 0.996425 0.622687 -0.210942
C26   C     C_R   0.350431 0.006429 0.371252 -0.217820
C27   C     C_3   0.931733 0.431392 0.560428 -0.181079
C28   C     C_3   0.068324 0.568554 0.439648 -0.178523
C29   C     C_3   0.047176 0.512166 0.579642 -0.174715
C30   C     C_3   0.952886 0.487778 0.420437 -0.173523
C31   C     C_3   0.121611 0.497734 0.499523 0.028320
C32   C     C_3   0.878430 0.502217 0.500553 0.026720
C33   C     C_3   0.008847 0.416926 0.480303 -0.138095
C34   C     C_R   0.459064 0.528769 0.188806 -0.271715
C35   C     C_3   0.991213 0.583023 0.519776 -0.138027
C36   C     C_R   0.443643 0.407258 0.754784 -0.080418
C37   C     C_R   0.506385 0.593029 0.245508 -0.078804
C38   C     C_R   0.333440 0.286110 0.871187 0.001703
C39   C     C_R   0.527815 0.719584 0.125799 0.002752
C40   C     C_R   0.379146 0.314283 0.783746 -0.249640
C41   C     C_R   0.537577 0.688250 0.214638 -0.252119
C42   C     C_R   0.267322 0.186497 0.898244 0.111631
C43   C     C_R   0.150237 0.145420 0.859258 -0.153152
C44   C     C_R   0.088335 0.051123 0.883320 -0.146462
C45   C     C_R   0.408031 0.448731 0.897769 0.077766
C46   C     C_R   0.142946 0.997167 0.946210 -0.105134
C47   C     C_R   0.260087 0.037281 0.984677 -0.132127
C48   C     C_R   0.322732 0.131520 0.960537 -0.171856
C49   C     C_R   0.570249 0.821282 0.096615 0.116078
C50   C     C_R   0.506833 0.881105 0.131934 -0.162336
C51   C     C_R   0.549970 0.977363 0.107421 -0.146854
C52   C     C_R   0.656530 0.014576 0.047604 -0.097508
C53   C     C_R   0.721113 0.955658 0.012950 -0.134773
C54   C     C_R   0.678944 0.859393 0.037767 -0.172857
C55   C     C_R   0.442676 0.556921 0.100753 0.078825
C56   C     C_R   0.348794 0.353717 0.929291 0.119240
C57   C     C_R   0.482490 0.653407 0.067643 0.119635
C58   C     C_R   0.418753 0.517881 0.953210 0.082285
H1    H     H_    0.090281 0.521688 0.644435 0.137380
H2    H     H_    0.382110 0.873516 0.387453 0.133233
H3    H     H_    0.871416 0.375841 0.609716 0.129182
H4    H     H_    0.128700 0.624075 0.390354 0.130745
H5    H     H_    0.020078 0.349296 0.464216 0.143660
H6    H     H_    0.980005 0.650658 0.535865 0.144390
H7    H     H_    0.254079 0.259360 0.043911 0.159560
H8    H     H_    0.497226 0.752853 0.949500 0.163091
H9    H     H_    0.440268 0.455807 0.213696 0.163001
H10   H     H_    0.519536 0.542126 0.790474 0.160238
H11   H     H_    0.572986 0.738357 0.259209 0.165540
H12   H     H_    0.909848 0.478228 0.355635 0.136529
H13   H     H_    0.363662 0.263636 0.738365 0.166169
H14   H     H_    0.299205 0.372681 0.141725 0.141453
H15   H     H_    0.449330 0.639245 0.852011 0.153675
H16   H     H_    0.725995 0.013286 0.675612 0.139010
H17   H     H_    0.286739 0.990085 0.317287 0.139227
H18   H     H_    0.106810 0.186530 0.810509 0.126139
H19   H     H_    0.998082 0.019876 0.853135 0.117353
H20   H     H_    0.094718 0.924221 0.964927 0.121990
H21   H     H_    0.302281 0.995188 0.033069 0.133371
H22   H     H_    0.414033 0.161640 0.990300 0.128463
H23   H     H_    0.547060 0.229325 0.542151 0.127241
H24   H     H_    0.424240 0.853181 0.178477 0.122127
H25   H     H_    0.500804 0.023121 0.134852 0.125650
H26   H     H_    0.689521 0.089081 0.028504 0.122547
H27   H     H_    0.804334 0.984630 0.967255 0.126216
H28   H     H_    0.731111 0.814610 0.011457 0.128644
H29   H     H_    0.453228 0.770818 0.457622 0.125991
H30   H     H_    0.300516 0.300917 0.347609 0.126070
H31   H     H_    0.699595 0.699103 0.652298 0.130090
H32   H     H_    0.753513 0.856131 0.695287 0.139916
H33   H     H_    0.252393 0.145440 0.301387 0.141471
H34   H     H_    0.632442 0.130310 0.604551 0.135983
N1    N     N_R   0.574200 0.731700 0.552740 -0.098681
N2    N     N_R   0.425800 0.268300 0.447260 -0.098815
O1    O     O_R   0.462600 0.383110 0.605620 -0.619846
O2    O     O_R   0.537400 0.616890 0.394380 -0.619569
O3    O     O_R   0.510210 0.531900 0.639510 -0.622165
O4    O     O_R   0.489790 0.468100 0.360490 -0.621913
O5    O     O_R   0.662240 0.425610 0.483080 -0.616465
O6    O     O_R   0.337760 0.574390 0.516920 -0.617908
O7    O     O_R   0.709860 0.574400 0.516970 -0.624461
O8    O     O_R   0.290140 0.425600 0.483030 -0.626897
Zn1   Zn    Zn3+2 0.468210 0.400660 0.477370 0.933293
Zn2   Zn    Zn3+2 0.531790 0.599340 0.522630 0.933554

loop_
_geom_bond_atom_site_label_1
_geom_bond_atom_site_label_2
_ccdc_geom_bond_type
O5    Zn1   S    
C23   C45   A    
C40   H13   S    
C9    N1    A    
C27   C29   S    
C34   C37   A    
C14   C18   A    
C5    C56   A    
C47   H21   S    
C43   C44   A    
C39   C41   A    
C53   C54   A    
C27   C33   S    
C15   C19   A    
C10   H30   S    
C44   H19   S    
C38   C40   A    
C24   C26   A    
C38   C42   S    
C2    C55   A    
C11   C14   A    
C10   N2    A    
C49   C54   A    
C39   C57   A    
C13   H23   S    
O6    Zn2   S    
C25   H16   S    
C12   C37   S    
C52   H26   S    
C19   C26   A    
C27   H3    S    
C20   C24   A    
C28   C35   S    
C11   H29   S    
O1    Zn1   S    
C22   C25   A    
C31   C33   S    
C35   H6    S    
C12   O4    A    
C33   H5    S    
C11   N1    A    
C34   C55   A    
C21   C22   A    
C6    C57   A    
C18   C25   A    
N1    Zn2   S    
C30   H12   S    
C44   C46   A    
C50   C51   A    
C45   C58   A    
C8    C19   A    
C51   C52   A    
C32   C35   S    
C14   C20   A    
C36   C40   A    
C45   C56   A    
C5    H7    S    
C1    O3    A    
C54   H28   S    
C7    H32   S    
C23   H10   S    
C46   H20   S    
C17   O8    A    
C47   C48   A    
C13   C15   A    
C6    H8    S    
C1    O1    A    
C7    C18   A    
C26   H17   S    
C8    H33   S    
C42   C48   A    
C4    H15   S    
C4    C6    A    
C39   C49   S    
N2    Zn1   S    
C49   C50   A    
O7    Zn2   S    
O2    Zn2   S    
C17   C31   S    
C42   C43   A    
C9    H31   S    
C51   H25   S    
C52   C53   A    
C50   H24   S    
C41   H11   S    
C43   H18   S    
C7    C9    A    
C46   C47   A    
C22   H34   S    
C30   C33   S    
C27   C32   S    
C28   C31   S    
C3    C5    A    
C34   H9    S    
C2    C58   A    
C16   O5    A    
C16   C32   S    
C29   C35   S    
C13   N2    A    
C48   H22   S    
C55   C57   A    
C2    C3    A    
C29   C31   S    
C30   C32   S    
C28   C30   S    
C3    H14   S    
C37   C41   A    
O8    Zn1   S    
C17   O6    A    
O3    Zn2   S    
C16   O7    A    
C15   C21   A    
C38   C56   A    
C20   C21   A    
C8    C10   A    
C23   C36   A    
C4    C58   A    
C29   H1    S    
C12   O2    A    
C53   H27   S    
C24   H2    S    
O4    Zn1   S    
C1    C36   S    
C28   H4    S    
