data_mof_unit_5797.cif
_audit_creation_date              2012-12-11T16:58:19-0500
_audit_creation_method            fapswitch 2.2
_symmetry_space_group_name_H-M    P1
_symmetry_Int_Tables_number       1
_space_group_crystal_system       triclinic
_cell_length_a                    16.862408
_cell_length_b                    7.250352
_cell_length_c                    16.91611
_cell_angle_alpha                 90.000014
_cell_angle_beta                  100.055945
_cell_angle_gamma                 90.000055
_cell_volume                      2036.36516217

loop_
_atom_site_label
_atom_site_type_symbol
_atom_type_description
_atom_site_fract_x
_atom_site_fract_y
_atom_site_fract_z
_atom_type_partial_charge
O1    O     O_R   0.413450 0.494370 0.415710 -0.520106
O2    O     O_R   0.586550 0.994370 0.584290 -0.520106
O3    O     O_R   0.578420 0.819350 0.429360 -0.514587
O4    O     O_R   0.421580 0.319350 0.570640 -0.514588
C1    C     C_R   0.605296 0.657354 0.414065 0.745577
C2    C     C_R   0.394704 0.157354 0.585935 0.745577
O5    O     O_R   0.413570 0.823780 0.406240 -0.556998
O6    O     O_R   0.586430 0.323780 0.593760 -0.556999
O7    O     O_R   0.420530 0.998740 0.561000 -0.557099
O8    O     O_R   0.579470 0.498740 0.439000 -0.557099
C3    C     C_R   0.386059 0.655103 0.383909 0.698514
C4    C     C_R   0.613941 0.155104 0.616090 0.698515
O9    O     O_3   0.502480 0.662320 0.550800 -0.385469
O10   O     O_3   0.497520 0.162320 0.449200 -0.385469
V1    V     V_3+5 0.499540 0.935370 0.490580 1.409644
V2    V     V_3+5 0.500460 0.435370 0.509420 1.409644
C5    C     C_R   0.731728 0.989530 0.700005 0.022692
C6    C     C_R   0.268272 0.489530 0.299994 0.022693
C7    C     C_R   0.682581 0.145315 0.684222 -0.102975
C8    C     C_R   0.317419 0.645315 0.315778 -0.102977
C9    C     C_R   0.702900 0.295019 0.737816 -0.206984
C10   C     C_R   0.297100 0.795018 0.262184 -0.206984
C11   C     C_R   0.769052 0.284272 0.802523 -0.191097
C12   C     C_R   0.230948 0.784272 0.197476 -0.191100
C13   C     C_R   0.817714 0.123673 0.815847 -0.101050
C14   C     C_R   0.182286 0.623673 0.184153 -0.101053
C15   C     C_R   0.795801 0.980424 0.761668 -0.006471
C16   C     C_R   0.204198 0.480424 0.238331 -0.006466
C17   C     C_3   0.818319 0.789736 0.742263 0.286999
C18   C     C_3   0.181681 0.289734 0.257735 0.286998
C19   C     C_3   0.743864 0.796246 0.673969 0.320848
C20   C     C_3   0.256136 0.296245 0.326030 0.320846
C21   C     C_R   0.330491 0.163724 0.636504 -0.171967
C22   C     C_R   0.669509 0.663724 0.363495 -0.171967
C23   C     C_R   0.167695 0.109107 0.863000 -0.059515
C24   C     C_R   0.832305 0.609107 0.137000 -0.059515
C25   C     C_R   0.277096 0.938811 0.818251 -0.172893
C26   C     C_R   0.722904 0.438810 0.181749 -0.172893
C27   C     C_R   0.223234 0.961955 0.871643 -0.167256
C28   C     C_R   0.776766 0.461955 0.128357 -0.167255
C29   C     C_R   0.167979 0.235019 0.800050 -0.199296
C30   C     C_R   0.832021 0.735019 0.199950 -0.199296
C31   C     C_R   0.221652 0.211106 0.745422 0.095146
C32   C     C_R   0.778348 0.711106 0.254578 0.095146
C33   C     C_R   0.276480 0.061606 0.754296 0.163734
C34   C     C_R   0.723519 0.561606 0.245704 0.163735
C35   C     C_R   0.329936 0.037813 0.699524 -0.346099
C36   C     C_R   0.670064 0.537813 0.300475 -0.346099
C37   C     C_R   0.275518 0.314174 0.628207 0.465568
C38   C     C_R   0.724481 0.814175 0.371793 0.465568
C39   C     C_R   0.220445 0.333061 0.681349 -0.275168
C40   C     C_R   0.779555 0.833062 0.318651 -0.275169
H1    H     H_    0.373184 0.925875 0.707804 0.133230
H2    H     H_    0.626816 0.425875 0.292196 0.133230
H3    H     H_    0.318506 0.823304 0.826436 0.111969
H4    H     H_    0.681494 0.323303 0.173564 0.111969
H5    H     H_    0.176597 0.443673 0.672518 0.133270
H6    H     H_    0.823403 0.943674 0.327481 0.133271
H7    H     H_    0.224164 0.862208 0.919489 0.120899
H8    H     H_    0.775836 0.362206 0.080511 0.120899
O11   O     O_R   0.920630 0.775410 0.061150 -0.536866
O12   O     O_R   0.079370 0.275410 0.938850 -0.536866
O13   O     O_R   0.086500 0.441450 0.093690 -0.537088
O14   O     O_R   0.913500 0.941450 0.906310 -0.537089
C41   C     C_R   0.113717 0.610449 0.116201 0.707048
C42   C     C_R   0.886282 0.110449 0.883799 0.707047
O15   O     O_R   0.921670 0.445960 0.070740 -0.538342
O16   O     O_R   0.078330 0.945960 0.929260 -0.538342
O17   O     O_R   0.913380 0.271130 0.915780 -0.543830
O18   O     O_R   0.086620 0.771130 0.084220 -0.543830
C43   C     C_R   0.895599 0.612866 0.085866 0.693604
C44   C     C_R   0.104401 0.112867 0.914134 0.693604
O19   O     O_3   0.997500 0.603030 0.949220 -0.389218
O20   O     O_3   0.002500 0.103030 0.050780 -0.389217
V3    V     V_3+5 0.000470 0.329940 0.009420 1.373315
V4    V     V_3+5 0.999530 0.829940 0.990580 1.373314
H9    H     H_    0.666667 0.418810 0.731179 0.125465
H10   H     H_    0.333333 0.918810 0.268821 0.125465
H11   H     H_    0.124668 0.346963 0.791863 0.113156
H12   H     H_    0.875332 0.846963 0.208137 0.113156
H13   H     H_    0.780900 0.400594 0.842907 0.126419
H14   H     H_    0.219100 0.900594 0.157093 0.126420
H15   H     H_    0.812965 0.691910 0.791892 -0.012352
H16   H     H_    0.187036 0.191912 0.208105 -0.012350
O21   O     O_3   0.891807 0.791614 0.712535 -0.516193
C45   C     C_3   0.938294 0.635451 0.739813 -0.165333
H17   H     H_    0.902797 0.505313 0.731442 0.111118
H18   H     H_    0.965652 0.653247 0.803659 0.164815
H19   H     H_    0.988003 0.623101 0.704977 0.147857
O22   O     O_3   0.108193 0.291607 0.287462 -0.516197
C46   C     C_3   0.061709 0.135445 0.260184 -0.165328
H20   H     H_    0.097209 0.005313 0.268542 0.111115
H21   H     H_    0.034339 0.153254 0.196343 0.164819
H22   H     H_    0.012007 0.123075 0.295031 0.147857
H23   H     H_    0.692305 0.707368 0.682862 -0.021221
H24   H     H_    0.307695 0.207368 0.317136 -0.021221
O23   O     O_3   0.764098 0.790571 0.596507 -0.493250
C47   C     C_3   0.764633 0.605034 0.571434 -0.065515
H25   H     H_    0.702781 0.547257 0.560950 0.105912
H26   H     H_    0.804509 0.517581 0.615411 0.112026
H27   H     H_    0.787959 0.598687 0.514172 0.146207
O24   O     O_3   0.235901 0.290568 0.403491 -0.493251
C48   C     C_3   0.235367 0.105032 0.428565 -0.065518
H28   H     H_    0.297218 0.047255 0.439045 0.105913
H29   H     H_    0.195490 0.017580 0.384588 0.112032
H30   H     H_    0.212044 0.098684 0.485827 0.146206
O25   O     O_3   0.271742 0.433569 0.563582 -0.525768
C49   C     C_3   0.290885 0.614575 0.591275 -0.114171
H31   H     H_    0.346854 0.618632 0.637297 0.102817
H32   H     H_    0.239974 0.678602 0.614978 0.111219
H33   H     H_    0.301818 0.699681 0.539738 0.145108
O26   O     O_3   0.728258 0.933570 0.436417 -0.525768
C50   C     C_3   0.709114 0.114576 0.408724 -0.114170
H34   H     H_    0.653145 0.118631 0.362703 0.102817
H35   H     H_    0.760025 0.178603 0.385020 0.111219
H36   H     H_    0.698182 0.199682 0.460261 0.145108

loop_
_geom_bond_atom_site_label_1
_geom_bond_atom_site_label_2
_ccdc_geom_bond_type
C18   C20   S    
O13   C41   A    
C30   H12   S    
C28   H8    S    
C15   C17   S    
C24   C30   A    
O1    C3    A    
C18   O22   S    
O2    C4    A    
C2    O7    A    
O23   C47   S    
O15   V3    S    
C37   O25   S    
O21   C45   S    
C36   H2    S    
C7    C9    A    
C12   C14   A    
C17   H15   S    
C45   H18   S    
C42   O17   A    
C21   C37   A    
C41   O18   A    
C49   H31   S    
C12   H14   S    
C37   C39   A    
O15   C43   A    
C38   C40   A    
O25   C49   S    
C26   H4    S    
C39   H5    S    
C6    C8    A    
C24   C43   S    
O16   C44   A    
C35   H1    S    
C50   H36   S    
O11   C43   A    
O5    V1    S    
O6    V2    S    
C29   C31   A    
C30   C32   A    
O26   C50   S    
C32   C34   A    
O5    C3    A    
C33   C35   A    
O11   V4    S    
C34   C36   A    
C3    C8    S    
C22   C38   A    
O20   V3    S    
C5    C15   A    
C24   C28   A    
C6    C16   A    
C10   H10   S    
O4    C2    A    
C46   H20   S    
C45   H17   S    
O14   C42   A    
O4    V2    S    
C23   C27   A    
C46   H21   S    
O6    C4    A    
C27   H7    S    
C1    C22   S    
C38   O26   S    
O14   V4    S    
O12   C44   A    
C48   H29   S    
O1    V2    S    
O2    V1    S    
C31   C33   A    
C40   H6    S    
C19   H23   S    
C20   H24   S    
C8    C10   A    
C23   C44   S    
C47   H26   S    
C9    C11   A    
O18   V4    S    
C13   C15   A    
C21   C35   A    
O19   V4    S    
C20   O24   S    
O12   V3    S    
C22   C36   A    
C25   C33   A    
O3    V1    S    
C50   H34   S    
C11   H13   S    
C14   C41   S    
C17   O21   S    
C13   C42   S    
O3    C1    A    
C45   H19   S    
C32   C40   A    
C29   H11   S    
C2    C21   S    
C19   O23   S    
O16   V4    S    
C47   H27   S    
C14   C16   A    
C49   H33   S    
C16   C18   S    
O7    V1    S    
C1    O8    A    
C17   C19   S    
O8    V2    S    
C46   H22   S    
C26   C28   A    
C31   C39   A    
O22   C46   S    
O13   V3    S    
C5    C19   S    
C4    C7    S    
C5    C7    A    
C49   H32   S    
O17   V3    S    
C48   H30   S    
C10   C12   A    
C11   C13   A    
C18   H16   S    
O24   C48   S    
C23   C29   A    
C26   C34   A    
C25   H3    S    
C6    C20   S    
C25   C27   A    
C47   H25   S    
O9    V2    S    
C9    H9    S    
C48   H28   S    
O10   V1    S    
C50   H35   S    
