data_mof_unit_7471.cif
_audit_creation_date              2012-12-10T17:31:17-0500
_audit_creation_method            fapswitch 2.2
_symmetry_space_group_name_H-M    P1
_symmetry_Int_Tables_number       1
_space_group_crystal_system       monoclinic
_cell_length_a                    18.738466
_cell_length_b                    19.077739
_cell_length_c                    12.471313
_cell_angle_alpha                 90.0
_cell_angle_beta                  130.417267
_cell_angle_gamma                 90.0
_cell_volume                      3394.32520166

loop_
_atom_site_label
_atom_site_type_symbol
_atom_type_description
_atom_site_fract_x
_atom_site_fract_y
_atom_site_fract_z
_atom_type_partial_charge
C1    C     C_R   0.609631 0.896698 0.649494 0.871382
C2    C     C_R   0.611708 0.102176 0.651811 0.863931
C3    C     C_R   0.111708 0.397824 0.651811 0.863931
C4    C     C_R   0.109631 0.603302 0.649494 0.871382
C5    C     C_R   0.245266 0.770598 0.043666 0.004009
C6    C     C_R   0.262699 0.242082 0.065835 0.002068
C7    C     C_R   0.762699 0.257918 0.065834 0.002068
C8    C     C_R   0.745266 0.729402 0.043666 0.004009
C9    C     C_R   0.687428 0.244036 0.063512 0.016885
C10   C     C_R   0.683548 0.756253 0.061881 0.021157
C11   C     C_R   0.183548 0.743747 0.061881 0.021157
C12   C     C_R   0.187428 0.255964 0.063512 0.016885
C13   C     C_R   0.606127 0.212437 0.946532 -0.154240
C14   C     C_R   0.605848 0.794856 0.954192 -0.161768
C15   C     C_R   0.105848 0.705144 0.954192 -0.161768
C16   C     C_R   0.106127 0.287562 0.946532 -0.154240
C17   C     C_R   0.599755 0.192503 0.833933 -0.100882
C18   C     C_R   0.593776 0.811287 0.834970 -0.094443
C19   C     C_R   0.093776 0.688713 0.834970 -0.094443
C20   C     C_R   0.099755 0.307497 0.833933 -0.100883
C21   C     C_R   0.304675 0.825495 0.131672 0.522152
C22   C     C_R   0.331436 0.193953 0.166846 0.540150
C23   C     C_R   0.831436 0.306047 0.166846 0.540150
C24   C     C_R   0.804675 0.674505 0.131672 0.522152
C25   C     C_R   0.269315 0.804338 0.285411 0.241806
C26   C     C_R   0.264864 0.192166 0.281403 0.239973
C27   C     C_R   0.764864 0.307834 0.281403 0.239973
C28   C     C_R   0.769315 0.695662 0.285411 0.241806
C29   C     C_R   0.678996 0.159129 0.741798 -0.239653
C30   C     C_R   0.668915 0.834615 0.730443 -0.251206
C31   C     C_R   0.168915 0.665385 0.730443 -0.251206
C32   C     C_R   0.178996 0.340871 0.741798 -0.239653
C33   C     C_R   0.690647 0.997939 0.295680 -0.223897
C34   C     C_R   0.190647 0.502061 0.295680 -0.223897
C35   C     C_R   0.341151 0.988090 0.627117 0.392624
C36   C     C_R   0.841151 0.511910 0.627117 0.392624
C37   C     C_R   0.312516 0.963476 0.698935 0.579252
C38   C     C_R   0.812516 0.536524 0.698935 0.579252
C39   C     C_R   0.388997 0.102714 0.349406 0.867146
C40   C     C_R   0.385622 0.899541 0.344872 0.865296
C41   C     C_R   0.885622 0.600459 0.344872 0.865296
C42   C     C_R   0.888997 0.397286 0.349406 0.867146
C43   C     C_R   0.376360 0.958419 0.844111 -0.237207
C44   C     C_R   0.876360 0.541581 0.844111 -0.237207
C45   C     C_R   0.467256 0.985376 0.922345 -0.147768
C46   C     C_R   0.967256 0.514624 0.922345 -0.147768
C47   C     C_R   0.499188 0.997601 0.846032 0.007966
C48   C     C_R   0.999188 0.502399 0.846032 0.007966
C49   C     C_R   0.529880 0.992441 0.074139 -0.091275
C50   C     C_R   0.029880 0.507559 0.074139 -0.091275
C51   C     C_R   0.627120 0.996863 0.148526 -0.123980
C52   C     C_R   0.127120 0.503137 0.148526 -0.123980
C53   C     C_R   0.660183 0.000228 0.075440 0.191548
C54   C     C_R   0.160183 0.499772 0.075440 0.191548
C55   C     C_R   0.598273 0.001854 0.929025 0.599620
C56   C     C_R   0.098273 0.498146 0.929025 0.599621
C57   C     C_R   0.500745 0.998773 0.155932 0.461500
C58   C     C_R   0.000745 0.501227 0.155932 0.461500
C59   C     C_R   0.659736 0.997885 0.370506 0.463940
C60   C     C_R   0.159736 0.502115 0.370506 0.463940
C61   C     C_R   0.692387 0.264806 0.175602 -0.189769
C62   C     C_R   0.697915 0.741256 0.184426 -0.181332
C63   C     C_R   0.197915 0.758743 0.184426 -0.181333
C64   C     C_R   0.192387 0.235194 0.175602 -0.189769
C65   C     C_R   0.319215 0.842266 0.254794 -0.233658
C66   C     C_R   0.328465 0.164236 0.267651 -0.239141
C67   C     C_R   0.828465 0.335764 0.267651 -0.239141
C68   C     C_R   0.819215 0.657733 0.254794 -0.233658
C69   C     C_R   0.752970 0.172222 0.741935 0.678310
C70   C     C_R   0.736071 0.813360 0.719608 0.678869
C71   C     C_R   0.236071 0.686640 0.719608 0.678869
C72   C     C_R   0.252970 0.327778 0.741935 0.678309
C73   C     C_R   0.308061 0.731593 0.818736 -0.185712
C74   C     C_R   0.333768 0.294902 0.856003 -0.211298
C75   C     C_R   0.833768 0.205098 0.856003 -0.211298
C76   C     C_R   0.808061 0.768407 0.818736 -0.185712
C77   C     C_R   0.314144 0.756777 0.928732 -0.202336
C78   C     C_R   0.340721 0.271993 0.968007 -0.172397
C79   C     C_R   0.840721 0.228007 0.968006 -0.172397
C80   C     C_R   0.814144 0.743223 0.928732 -0.202335
C81   C     C_R   0.761943 0.227321 0.960481 0.132444
C82   C     C_R   0.742120 0.756191 0.934049 0.140287
C83   C     C_R   0.242120 0.743809 0.934049 0.140287
C84   C     C_R   0.261943 0.272679 0.960481 0.132444
C85   C     C_R   0.679396 0.192816 0.844163 0.013110
C86   C     C_R   0.667098 0.800970 0.831252 0.016789
C87   C     C_R   0.167098 0.699030 0.831252 0.016789
C88   C     C_R   0.179396 0.307184 0.844163 0.013110
Cu1   Cu    Cu3+1 0.526340 0.000000 0.421010 1.136670
Cu2   Cu    Cu3+1 0.026340 0.500000 0.421010 1.136670
Cu3   Cu    Cu3+1 0.473640 0.000000 0.578990 1.055013
Cu4   Cu    Cu3+1 0.973640 0.500000 0.578990 1.055013
H1    H     H_    0.765479 0.998762 0.355475 0.226446
H2    H     H_    0.265479 0.501238 0.355475 0.226446
H3    H     H_    0.354429 0.930396 0.893460 0.244911
H4    H     H_    0.854429 0.569603 0.893460 0.244911
H5    H     H_    0.545374 0.206496 0.938817 0.148876
H6    H     H_    0.552295 0.809789 0.959357 0.138950
H7    H     H_    0.052295 0.690211 0.959357 0.138950
H8    H     H_    0.045374 0.293504 0.938817 0.148875
H9    H     H_    0.638852 0.248390 0.179847 0.191410
H10   H     H_    0.654481 0.765897 0.202686 0.191131
H11   H     H_    0.154481 0.734103 0.202686 0.191131
H12   H     H_    0.138852 0.251610 0.179848 0.191410
H13   H     H_    0.377898 0.784134 0.010890 0.218265
H14   H     H_    0.409787 0.256369 0.060093 0.238441
H15   H     H_    0.909787 0.243631 0.060092 0.238441
H16   H     H_    0.877898 0.715866 0.010890 0.218264
H17   H     H_    0.362401 0.744390 0.814241 0.183046
H18   H     H_    0.393460 0.290214 0.860951 0.180959
H19   H     H_    0.893460 0.209786 0.860951 0.180959
H20   H     H_    0.862401 0.755610 0.814242 0.183045
H21   H     H_    0.531184 0.177108 0.739061 0.179154
H22   H     H_    0.526107 0.832022 0.747304 0.184178
H23   H     H_    0.026107 0.667978 0.747304 0.184178
H24   H     H_    0.031184 0.322892 0.739061 0.179154
N1    N     N_R   0.566260 0.000000 0.302220 -0.252734
N2    N     N_R   0.066260 0.500000 0.302220 -0.252734
N3    N     N_R   0.434410 0.000000 0.697680 -0.254946
N4    N     N_R   0.934410 0.500000 0.697680 -0.254946
O1    O     O_R   0.608610 0.924520 0.551740 -0.514279
O2    O     O_R   0.608610 0.075480 0.551740 -0.508499
O3    O     O_R   0.108610 0.424520 0.551740 -0.508499
O4    O     O_R   0.108610 0.575480 0.551740 -0.514279
O5    O     O_R   0.564110 0.924510 0.685150 -0.547657
O6    O     O_R   0.564110 0.075490 0.685150 -0.539249
O7    O     O_R   0.064110 0.424510 0.685150 -0.539249
O8    O     O_R   0.064110 0.575490 0.685150 -0.547657
O9    O     O_R   0.435880 0.075470 0.314850 -0.489497
O10   O     O_R   0.435880 0.924530 0.314850 -0.514474
O11   O     O_R   0.935880 0.575470 0.314850 -0.514474
O12   O     O_R   0.935880 0.424530 0.314850 -0.489497
O13   O     O_R   0.391380 0.075460 0.448260 -0.552884
O14   O     O_R   0.391380 0.924540 0.448260 -0.559044
O15   O     O_R   0.891380 0.575460 0.448260 -0.559044
O16   O     O_R   0.891380 0.424540 0.448260 -0.552884
Br1   Br    Br    0.294306 0.809864 0.460962 -0.412572
Br2   Br    Br    0.273677 0.177993 0.442098 -0.399900
Br3   Br    Br    0.773677 0.322007 0.442098 -0.399900
Br4   Br    Br    0.794306 0.690136 0.460962 -0.412572
Br5   Br    Br    0.792795 0.004898 0.171684 -0.368188
Br6   Br    Br    0.292795 0.495102 0.171684 -0.368188
Br7   Br    Br    0.371324 0.019653 0.062625 -0.319471
Br8   Br    Br    0.871324 0.480347 0.062624 -0.319472
Br9   Br    Br    0.245289 0.996471 0.426525 -0.275959
Br10  Br    Br    0.745289 0.503529 0.426525 -0.275959
F1    F     F_    0.222889 0.941999 0.627615 -0.577482
F2    F     F_    0.722889 0.558001 0.627615 -0.577482
F3    F     F_    0.641810 0.002116 0.876591 -0.612080
F4    F     F_    0.141810 0.497884 0.876591 -0.612080
F5    F     F_    0.339179 0.868054 0.087852 -0.657776
F6    F     F_    0.397254 0.171104 0.161167 -0.649944
F7    F     F_    0.897254 0.328896 0.161167 -0.649945
F8    F     F_    0.839179 0.631946 0.087852 -0.657776
F9    F     F_    0.750320 0.149544 0.636415 -0.603719
F10   F     F_    0.735493 0.838472 0.617312 -0.606291
F11   F     F_    0.235493 0.661528 0.617312 -0.606291
F12   F     F_    0.250320 0.350455 0.636415 -0.603719
Br11  Br    Br    0.755121 0.996838 0.571315 -0.271050
Br12  Br    Br    0.255121 0.503162 0.571315 -0.271050

loop_
_geom_bond_atom_site_label_1
_geom_bond_atom_site_label_2
_ccdc_geom_bond_type
C83   C87   A    
Cu3   O6    S    
C62   H10   S    
Cu2   O3    S    
C14   C18   A    
C53   C55   A    
C61   H9    S    
C28   Br4   S    
C48   C56   A    
C18   H22   S    
C17   H21   S    
C48   N4    A    
Cu4   O16   S    
C15   C19   A    
C18   C86   A    
C2    C29   S    
C9    C61   A    
Cu2   N2    S    
C57   N1    A    
C28   C68   A    
C1    O5    A    
C5    C11   A    
C19   C87   A    
C6    C12   A    
C12   C64   A    
C3    O7    A    
Cu1   O2    S    
C77   C83   A    
C32   C88   A    
C58   N2    A    
C72   F12   S    
C4    O4    A    
C42   O16   A    
C25   C63   A    
C23   C67   A    
C29   C69   A    
C9    C13   A    
C22   C66   A    
C26   C64   A    
C34   C52   A    
C27   C61   A    
C6    C84   A    
C59   Br11  S    
C12   C16   A    
C55   F3    S    
C3    O3    A    
C49   C51   A    
C43   H3    S    
C76   C80   A    
C60   N2    A    
C45   C49   A    
C30   C86   A    
C53   Br5   S    
C29   C85   A    
C76   H20   S    
Cu2   O12   S    
C52   C54   A    
C45   C47   A    
C59   N1    A    
C34   C60   A    
C75   H19   S    
C10   C62   A    
C11   C15   A    
Cu4   O8    S    
C21   C65   A    
C30   C70   A    
C24   F8    S    
C46   C50   A    
C14   H6    S    
C41   C68   S    
C46   C48   A    
C2    O2    A    
Cu2   Cu4   S    
C71   F11   S    
C22   F6    S    
C31   C87   A    
C57   Br7   S    
C26   C66   A    
C34   H2    S    
C25   C65   A    
C63   H11   S    
C10   C14   A    
C20   H24   S    
C4    O8    A    
C16   H8    S    
C44   C46   A    
C82   C86   A    
C40   O14   A    
C27   Br3   S    
Cu1   O10   S    
C51   C53   A    
C50   C58   A    
C37   C43   A    
C25   Br1   S    
C5    C83   A    
C38   C44   A    
C44   H4    S    
C58   Br8   S    
C50   C52   A    
Cu3   O13   S    
C19   H23   S    
C16   C20   A    
C79   H15   S    
C69   F9    S    
C37   F1    S    
C43   C45   A    
C38   F2    S    
Cu2   O11   S    
C2    O6    A    
C72   C74   A    
C7    C81   A    
Cu1   N1    S    
C40   C65   S    
C23   F7    S    
C70   C76   A    
C42   C67   S    
C39   C66   S    
C17   C85   A    
Cu4   O15   S    
Cu1   Cu3   S    
C56   F4    S    
Cu4   O7    S    
C41   O15   A    
C47   N3    A    
C35   C37   A    
C47   C55   A    
C39   O13   A    
C36   Br10  S    
C7    C9    A    
C40   O10   A    
Cu3   O5    S    
C54   Br6   S    
Cu2   O4    S    
C35   Br9   S    
C8    C10   A    
C64   H12   S    
C84   C88   A    
C15   H7    S    
C26   Br2   S    
C33   H1    S    
C74   H18   S    
C49   C57   A    
C79   C81   A    
C54   C56   A    
C73   H17   S    
C33   C51   A    
C39   O9    A    
C80   H16   S    
C11   C63   A    
C77   H13   S    
C13   C17   A    
C78   H14   S    
C36   C38   A    
Cu4   N4    S    
C35   N3    A    
Cu3   O14   S    
Cu1   O1    S    
C7    C23   A    
C20   C88   A    
C31   C71   A    
C1    C30   S    
C8    C24   A    
C80   C82   A    
C69   C75   A    
Cu3   N3    S    
C21   F5    S    
C13   H5    S    
C3    C32   S    
C36   N4    A    
C1    O1    A    
C4    C31   S    
C27   C67   A    
C24   C68   A    
C78   C84   A    
C8    C82   A    
C41   O11   A    
C5    C21   A    
C33   C59   A    
C74   C78   A    
C71   C73   A    
C73   C77   A    
C70   F10   S    
C42   O12   A    
C60   Br12  S    
Cu1   O9    S    
C75   C79   A    
C81   C85   A    
C28   C62   A    
C32   C72   A    
C6    C22   A    
