data_mof_unit_44634.cif
_audit_creation_date              2012-10-26T20:43:01-0400
_audit_creation_method            fapswitch 2.2
_symmetry_space_group_name_H-M    P1
_symmetry_Int_Tables_number       1
_space_group_crystal_system       triclinic
_cell_length_a                    10.834291
_cell_length_b                    9.499721
_cell_length_c                    15.14047
_cell_angle_alpha                 88.927736
_cell_angle_beta                  90.156943
_cell_angle_gamma                 90.019036
_cell_volume                      1558.01990047

loop_
_atom_site_label
_atom_site_type_symbol
_atom_type_description
_atom_site_fract_x
_atom_site_fract_y
_atom_site_fract_z
_atom_type_partial_charge
C1    C     C_R   0.262005 0.499991 0.499902 0.550319
C2    C     C_R   0.128192 0.499988 0.499875 0.019865
C3    C     C_R   0.417506 0.075941 0.449455 0.015147
C4    C     C_R   0.582493 0.924059 0.550545 0.015148
C5    C     C_R   0.582563 0.073009 0.550477 0.006102
C6    C     C_R   0.417437 0.926991 0.449524 0.006102
C7    C     C_R   0.496561 0.501682 0.328609 0.547608
C8    C     C_R   0.503438 0.498318 0.671390 0.547608
C9    C     C_R   0.556262 0.378653 0.817106 0.102316
C10   C     C_R   0.443738 0.621349 0.182894 0.102314
C11   C     C_R   0.506505 0.494430 0.768264 -0.017963
C12   C     C_R   0.737995 0.500009 0.500098 0.550319
C13   C     C_R   0.493491 0.505569 0.231735 -0.017965
C14   C     C_R   0.458842 0.610138 0.812010 -0.154296
C15   C     C_R   0.541142 0.389855 0.187989 -0.154296
C16   C     C_R   0.457075 0.613056 0.903488 -0.018836
C17   C     C_R   0.542909 0.386937 0.096512 -0.018837
C18   C     C_R   0.502266 0.497685 0.953499 -0.006350
C19   C     C_R   0.497724 0.502311 0.046501 -0.006350
C20   C     C_R   0.551967 0.378258 0.910650 0.099310
C21   C     C_R   0.448025 0.621740 0.089349 0.099310
C22   C     C_R   0.409777 0.731031 0.945020 -0.135411
C23   C     C_R   0.405068 0.737413 0.036835 0.116489
C24   C     C_R   0.590196 0.268957 0.054979 -0.135409
C25   C     C_R   0.594912 0.262579 0.963164 0.116491
C26   C     C_R   0.063808 0.372042 0.501075 -0.137035
C27   C     C_R   0.936192 0.627958 0.498925 -0.137035
C28   C     C_R   0.936116 0.372052 0.501237 -0.139320
C29   C     C_R   0.063884 0.627947 0.498763 -0.139321
C30   C     C_R   0.871808 0.500012 0.500125 0.019865
Cu1   Cu    Cu3+1 0.500000 0.640660 0.500000 0.931322
Cu2   Cu    Cu3+1 0.500000 0.359340 0.500000 0.931323
H1    H     H_    0.111820 0.272012 0.501951 0.127379
H2    H     H_    0.578470 0.301232 0.225612 0.135595
H3    H     H_    0.376303 0.820031 0.905913 0.109519
H4    H     H_    0.623658 0.179950 0.094086 0.109521
H5    H     H_    0.412279 0.948150 0.053295 0.219627
H6    H     H_    0.268134 0.879500 0.052163 0.232309
H7    H     H_    0.731829 0.120466 0.947843 0.232310
H8    H     H_    0.587674 0.051845 0.946694 0.219626
H9    H     H_    0.351533 0.133351 0.408933 0.113306
H10   H     H_    0.648467 0.866649 0.591067 0.113307
H11   H     H_    0.648798 0.128052 0.590744 0.105131
H12   H     H_    0.888180 0.727988 0.498048 0.127379
H13   H     H_    0.351202 0.871948 0.409256 0.105131
H14   H     H_    0.888045 0.272026 0.502253 0.126419
H15   H     H_    0.111955 0.727974 0.497747 0.126419
H16   H     H_    0.549337 0.205688 0.739701 0.253665
H17   H     H_    0.681372 0.305014 0.728548 0.231991
H18   H     H_    0.318639 0.695005 0.271454 0.231995
H19   H     H_    0.450684 0.794315 0.260297 0.253663
H20   H     H_    0.421506 0.698755 0.774386 0.135593
N1    N     N_R   0.500000 0.852070 0.500000 -0.226666
N2    N     N_R   0.500000 0.147930 0.500000 -0.226666
N3    N     N_3   0.615640 0.264885 0.772764 -0.584524
N4    N     N_3   0.384373 0.735126 0.227236 -0.584524
N5    N     N_3   0.358173 0.863346 0.075247 -0.589239
N6    N     N_3   0.641796 0.136640 0.924751 -0.589241
O1    O     O_R   0.319640 0.618740 0.499990 -0.512576
O2    O     O_R   0.680360 0.381260 0.500010 -0.512575
O3    O     O_R   0.680360 0.618740 0.500010 -0.508289
O4    O     O_R   0.319640 0.381260 0.499990 -0.508289
O5    O     O_R   0.499970 0.618800 0.370260 -0.509588
O6    O     O_R   0.500030 0.381200 0.629740 -0.509588
O7    O     O_R   0.500030 0.618800 0.629740 -0.503324
O8    O     O_R   0.499970 0.381200 0.370260 -0.503325

loop_
_geom_bond_atom_site_label_1
_geom_bond_atom_site_label_2
_ccdc_geom_bond_type
C10   C21   A    
H16   N3    S    
C14   H20   S    
C19   C21   A    
C9    N3    S    
C6    H13   S    
C4    N1    A    
C27   C29   A    
H6    N5    S    
C10   N4    S    
Cu1   O3    S    
C15   H2    S    
C26   C28   A    
Cu1   Cu2   S    
C3    C6    A    
C28   H14   S    
C1    O4    A    
C28   C30   A    
C5    H11   S    
Cu2   O4    S    
C8    O7    A    
C2    C26   A    
Cu1   N1    S    
C7    O8    A    
C22   H3    S    
C9    C11   A    
C7    O5    A    
C24   H4    S    
C4    H10   S    
C8    O6    A    
C8    C11   S    
C23   N5    S    
C9    C20   A    
Cu2   N2    S    
C11   C14   A    
C1    O1    A    
C29   H15   S    
H19   N4    S    
C18   C20   A    
C13   C15   A    
C21   C23   A    
C12   O3    A    
C3    N2    A    
H18   N4    S    
C17   C24   A    
H8    N6    S    
C20   C25   A    
Cu2   O2    S    
C6    N1    A    
C12   O2    A    
Cu1   O5    S    
C5    N2    A    
C7    C13   S    
C2    C29   A    
C24   C25   A    
Cu2   O6    S    
C16   C18   A    
C1    C2    S    
C25   N6    S    
Cu1   O1    S    
C15   C17   A    
C18   C19   A    
Cu1   O7    S    
C22   C23   A    
C3    H9    S    
C16   C22   A    
C26   H1    S    
C17   C19   A    
C14   C16   A    
H17   N3    S    
H7    N6    S    
C12   C30   S    
C27   H12   S    
H5    N5    S    
Cu2   O8    S    
C4    C5    A    
C27   C30   A    
C10   C13   A    
