data_mof_unit_25434.cif
_audit_creation_date              2012-12-10T19:50:08-0500
_audit_creation_method            fapswitch 2.2
_symmetry_space_group_name_H-M    P1
_symmetry_Int_Tables_number       1
_space_group_crystal_system       triclinic
_cell_length_a                    14.281034
_cell_length_b                    14.904456
_cell_length_c                    15.610932
_cell_angle_alpha                 90.385779
_cell_angle_beta                  68.834893
_cell_angle_gamma                 91.560563
_cell_volume                      3097.49324341

loop_
_atom_site_label
_atom_site_type_symbol
_atom_type_description
_atom_site_fract_x
_atom_site_fract_y
_atom_site_fract_z
_atom_type_partial_charge
Br1   Br    Br    0.772546 0.694955 0.472371 -0.307314
Br2   Br    Br    0.312486 0.360931 0.362714 -0.408367
Br3   Br    Br    0.917673 0.300379 0.555481 -0.263261
Br4   Br    Br    0.988024 0.620986 0.662563 -0.337137
Br5   Br    Br    0.535972 0.752333 0.309024 -0.344307
Br6   Br    Br    0.285113 0.214156 0.570654 -0.201901
C1    C     C_R   0.499909 0.672098 0.503138 1.049597
C2    C     C_R   0.599545 0.192877 0.426022 0.167215
C3    C     C_R   0.503167 0.768716 0.504090 -0.259132
C4    C     C_R   0.506135 0.230911 0.478732 -0.315598
C5    C     C_R   0.526406 0.813226 0.420136 0.231243
C6    C     C_R   0.421390 0.174823 0.521756 0.317976
C7    C     C_R   0.539587 0.904902 0.416544 -0.167276
C8    C     C_R   0.434288 0.084061 0.526222 -0.203675
C9    C     C_R   0.534463 0.952375 0.495027 -0.038460
C10   C     C_R   0.529772 0.048564 0.489598 -0.044859
C11   C     C_R   0.906172 0.571342 0.491850 -0.245362
C12   C     C_R   0.501249 0.327595 0.493709 1.024198
C13   C     C_R   0.121255 0.436864 0.451491 -0.283202
C14   C     C_R   0.809442 0.575681 0.488251 0.488491
C15   C     C_R   0.221719 0.440983 0.446708 0.463319
C16   C     C_R   0.437774 0.496638 0.675093 1.010870
C17   C     C_R   0.562864 0.506020 0.324585 1.023271
C18   C     C_R   0.782612 0.420533 0.518715 0.012831
C19   C     C_R   0.182943 0.552623 0.561369 -0.060747
C20   C     C_R   0.879282 0.414239 0.524312 0.257467
C21   C     C_R   0.080855 0.549194 0.569487 0.233171
C22   C     C_R   0.943052 0.491255 0.510938 0.030799
C23   C     C_R   0.385844 0.542171 0.093559 0.305016
C24   C     C_R   0.048530 0.490947 0.512872 0.053485
C25   C     C_R   0.400749 0.491264 0.775160 -0.228776
C26   C     C_R   0.602422 0.516487 0.223803 -0.189497
C27   C     C_R   0.276113 0.454962 0.924153 0.317173
C28   C     C_R   0.736809 0.517420 0.074863 0.306940
C29   C     C_R   0.312401 0.443480 0.827795 0.152164
C30   C     C_R   0.705670 0.529601 0.170482 0.321877
C31   C     C_R   0.463960 0.525616 0.817799 -0.092015
C32   C     C_R   0.533095 0.511937 0.179727 -0.164736
C33   C     C_R   0.445021 0.506575 0.909025 0.067335
C34   C     C_R   0.625657 0.505816 0.894386 0.406971
C35   C     C_R   0.562138 0.526246 0.085427 0.065760
C36   C     C_R   0.344329 0.487329 0.965358 -0.041894
C37   C     C_R   0.665575 0.524501 0.031673 -0.103718
C38   C     C_R   0.520922 0.514688 0.946950 -0.063954
C39   C     C_R   0.489765 0.529710 0.042968 -0.024069
C40   C     C_R   0.315206 0.508018 0.058750 -0.154359
C41   C     C_R   0.695086 0.523274 0.936229 -0.116762
C42   C     C_R   0.515802 0.909196 0.579809 0.367799
C43   C     C_R   0.614229 0.101750 0.439080 0.388356
C44   C     C_R   0.491789 0.816272 0.586033 0.261580
H1    H     H_    0.237215 0.507588 0.103188 0.226384
H2    H     H_    0.369302 0.040413 0.559319 0.211113
H3    H     H_    0.756633 0.711774 0.259912 0.403518
H4    H     H_    0.192327 0.449625 0.728586 0.325284
H5    H     H_    0.085903 0.458527 0.884678 0.373542
H6    H     H_    0.937571 0.446969 0.107111 0.439163
H7    H     H_    0.230532 0.541350 0.283129 0.354252
H8    H     H_    0.627448 0.357148 0.704600 0.382093
H9    H     H_    0.594564 0.099050 0.691884 0.403690
H10   H     H_    0.807381 0.943162 0.435779 0.409069
H11   H     H_    0.317175 0.664925 0.755103 0.378062
H12   H     H_    0.773741 0.527451 0.893333 0.239713
H13   H     H_    0.574232 0.281550 0.270722 0.364221
H14   H     H_    0.952887 0.631881 0.480457 0.213658
H15   H     H_    0.100431 0.392001 0.406080 0.216925
H16   H     H_    0.734882 0.360951 0.531832 0.176064
H17   H     H_    0.206286 0.596345 0.605983 0.187982
H18   H     H_    0.455551 0.495848 0.219329 0.235296
H19   H     H_    0.531052 0.563138 0.778651 0.245378
H20   H     H_    0.551954 0.939892 0.352536 0.217306
N1    N     N_R   0.747530 0.500020 0.500000 -0.130243
N2    N     N_R   0.252470 0.499980 0.500000 -0.123700
O1    O     O_R   0.420530 0.630930 0.499990 -0.584874
O2    O     O_2   0.884200 0.615037 0.146751 -0.222601
O3    O     O_3   0.736497 0.654593 0.294474 -0.517941
O4    O     O_2   0.362422 0.309009 0.708541 -0.279533
O5    O     O_2   0.217419 0.281181 0.848066 -0.104122
O6    O     O_3   0.195196 0.383516 0.722611 -0.446304
O7    O     O_2   0.135572 0.365715 0.060937 -0.195316
O8    O     O_2   0.106055 0.523293 0.038216 -0.276162
O9    O     O_3   0.080266 0.406338 0.925247 -0.375697
O10   O     O_2   0.852006 0.407203 0.941577 -0.184407
O11   O     O_2   0.931213 0.544181 0.974251 -0.243127
O12   O     O_R   0.579470 0.369070 0.500010 -0.623311
O13   O     O_3   0.889142 0.408950 0.090522 -0.386626
O14   O     O_2   0.427759 0.684723 0.180962 -0.179912
O15   O     O_2   0.263673 0.678197 0.165869 -0.204026
O16   O     O_3   0.291570 0.573151 0.284987 -0.543206
O17   O     O_2   0.705302 0.524976 0.710898 -0.315221
O18   O     O_2   0.769561 0.404844 0.777655 -0.200997
O19   O     O_3   0.594098 0.379392 0.768014 -0.528023
O20   O     O_2   0.424626 0.003415 0.733150 -0.215341
O21   O     O_2   0.568949 0.915431 0.729656 -0.150241
O22   O     O_3   0.603625 0.062696 0.636249 -0.503510
O23   O     O_R   0.579480 0.630940 0.499990 -0.569720
O24   O     O_2   0.755092 0.014348 0.304831 -0.234329
O25   O     O_2   0.815460 0.125326 0.391153 -0.164973
O26   O     O_3   0.743661 0.973396 0.469418 -0.483316
O27   O     O_2   0.524377 0.715073 0.712464 -0.269525
O28   O     O_2   0.389117 0.822472 0.771110 -0.167249
O29   O     O_3   0.354743 0.681793 0.690195 -0.601709
O30   O     O_2   0.757367 0.309175 0.360240 -0.199117
O31   O     O_2   0.743734 0.192347 0.254568 -0.143871
O32   O     O_3   0.620653 0.321863 0.288164 -0.568902
O33   O     O_R   0.420520 0.369060 0.500010 -0.556866
O34   O     O_R   0.375120 0.499990 0.632240 -0.611252
O35   O     O_R   0.624880 0.500010 0.367760 -0.515298
O36   O     O_R   0.534080 0.500000 0.632240 -0.595151
O37   O     O_R   0.465920 0.500000 0.367760 -0.598448
O38   O     O_2   0.824546 0.501678 0.268272 -0.214235
S1    S     S_3+6 0.792487 0.574151 0.219051 0.100726
S2    S     S_3+6 0.685150 0.253831 0.330529 0.137508
S3    S     S_3+6 0.271285 0.350873 0.776944 0.146973
S4    S     S_3+6 0.147029 0.437229 0.990206 0.100720
S5    S     S_3+6 0.855572 0.469826 0.016292 0.148994
S6    S     S_3+6 0.342542 0.623134 0.181884 0.084648
S7    S     S_3+6 0.676573 0.453973 0.784410 0.043815
S8    S     S_3+6 0.526806 0.972229 0.673699 0.154371
S9    S     S_3+6 0.736060 0.054544 0.397991 0.142602
S10   S     S_3+6 0.440592 0.759562 0.693852 0.082462
Zn1   Zn    Zn3+2 0.393860 0.499990 0.500000 1.090643
Zn2   Zn    Zn3+2 0.606140 0.500010 0.500000 1.127700

loop_
_geom_bond_atom_site_label_1
_geom_bond_atom_site_label_2
_ccdc_geom_bond_type
C34   C41   A    
O16   S6    S    
C31   H19   S    
N2    Zn1   S    
O22   S8    S    
N1    Zn2   S    
O30   S2    D    
C19   H17   S    
C41   H12   S    
O26   S9    S    
C1    O1    A    
C27   S4    S    
C44   S10   S    
C27   C36   A    
C26   C30   A    
C13   C15   A    
C18   C20   A    
O10   S5    D    
Br5   C5    S    
H10   O26   S    
C2    S2    S    
C11   H14   S    
Br6   C6    S    
C7    H20   S    
C32   H18   S    
O12   Zn2   S    
C9    C10   S    
C11   C14   A    
O14   S6    D    
C36   C40   A    
O20   S8    D    
O38   S1    D    
C25   C29   A    
O24   S9    D    
O27   S10   D    
C8    H2    S    
O9    S4    S    
C12   O12   A    
O19   S7    S    
C14   N1    A    
C29   S3    S    
O28   S10   D    
H9    O22   S    
C26   C32   A    
H5    O9    S    
H8    O19   S    
C18   H16   S    
C42   C44   A    
C34   S7    S    
C21   C24   A    
C35   C37   A    
H3    O3    S    
C9    C42   A    
C30   S1    S    
O5    S3    D    
C33   C36   A    
C17   O37   A    
C16   C25   S    
C28   C37   A    
C15   N2    A    
O18   S7    D    
O11   S5    D    
O13   S5    S    
C10   C43   A    
C32   C35   A    
O2    S1    D    
O32   S2    S    
C42   S8    S    
C28   S5    S    
C16   O34   A    
C40   H1    S    
C25   C31   A    
C23   C39   A    
O31   S2    D    
O25   S9    D    
H11   O29   S    
C17   O35   A    
C11   C22   A    
Br2   C15   S    
O4    S3    D    
O33   Zn1   S    
C19   N2    A    
C3    C5    A    
O15   S6    D    
C4    C6    A    
O23   Zn2   S    
C23   S6    S    
O8    S4    D    
O17   S7    D    
O1    Zn1   S    
C7    C9    A    
C8    C10   A    
O6    S3    S    
O21   S8    D    
Br4   C21   S    
C38   C39   A    
C1    C3    S    
Br1   C14   S    
O29   S10   S    
C20   C22   A    
Br3   C20   S    
C3    C44   A    
O36   Zn2   S    
H13   O32   S    
C33   C38   A    
C19   C21   A    
C1    O23   A    
O3    S1    S    
H7    O16   S    
C23   C40   A    
C17   C26   S    
C22   C24   S    
C6    C8    A    
C12   O33   A    
C31   C33   A    
C5    C7    A    
O37   Zn1   S    
H6    O13   S    
C43   S9    S    
C4    C12   S    
C16   O36   A    
O34   Zn1   S    
C27   C29   A    
C13   H15   S    
C28   C30   A    
C34   C38   A    
C2    C4    A    
O7    S4    D    
C35   C39   A    
O35   Zn2   S    
C13   C24   A    
C37   C41   A    
C2    C43   A    
C18   N1    A    
H4    O6    S    
