data_mof_unit_12286.cif
_audit_creation_date              2013-03-05T15:43:51-0500
_audit_creation_method            fapswitch 2.2
_symmetry_space_group_name_H-M    P1
_symmetry_Int_Tables_number       1
_space_group_crystal_system       triclinic
_cell_length_a                    13.479637
_cell_length_b                    13.490649
_cell_length_c                    27.439441
_cell_angle_alpha                 90.895967
_cell_angle_beta                  90.157135
_cell_angle_gamma                 60.094249
_cell_volume                      4324.82083072

loop_
_atom_site_label
_atom_site_type_symbol
_atom_site_description
_atom_site_fract_x
_atom_site_fract_y
_atom_site_fract_z
_atom_type_partial_charge
O1    O     O_R   0.301710 0.195650 0.554160 -0.493169
O2    O     O_R   0.522390 0.158990 0.550460 -0.492649
C1    C     C_R   0.619995 0.101355 0.570317 0.548843
O3    O     O_R   0.694390 0.003530 0.554040 -0.497488
O4    O     O_R   0.657700 0.819660 0.549320 -0.489372
C2    C     C_R   0.599506 0.779973 0.568811 0.557086
O5    O     O_R   0.501930 0.803280 0.552920 -0.497686
O6    O     O_R   0.318170 0.023580 0.549580 -0.505535
C3    C     C_R   0.278279 0.121678 0.569829 0.546364
O7    O     O_R   0.303010 0.193990 0.446760 -0.470215
O8    O     O_R   0.523600 0.157450 0.450900 -0.493522
C4    C     C_R   0.621831 0.098687 0.431057 0.549782
O9    O     O_R   0.695690 0.001860 0.446640 -0.481919
O10   O     O_R   0.658900 0.818120 0.449760 -0.478284
C5    C     C_R   0.604267 0.771647 0.431275 0.565320
O11   O     O_R   0.503220 0.801620 0.445520 -0.477570
O12   O     O_R   0.319370 0.022040 0.450020 -0.520261
C6    C     C_R   0.272371 0.123398 0.432423 0.527865
Cr1   Cr    Cr6+3 0.417550 0.169090 0.500530 1.079501
Cr2   Cr    Cr6+3 0.669180 0.913420 0.499920 1.087200
Cr3   Cr    Cr6+3 0.413260 0.917540 0.499520 1.066680
O13   O     O_3   0.499990 0.000010 0.499990 -0.275779
C7    C     C_3   0.737200 0.575218 0.735191 -0.089440
C8    C     C_3   0.779478 0.633912 0.771738 0.086491
C9    C     C_1   0.696690 0.609703 0.900630 0.031833
C10   C     C_1   0.629808 0.735760 0.616882 0.006568
C11   C     C_3   0.636904 0.600773 0.770300 -0.102211
C12   C     C_3   0.680206 0.659297 0.806364 0.031836
C13   C     C_3   0.561499 0.717462 0.745822 -0.113677
C14   C     C_3   0.661982 0.691555 0.711561 0.025052
C15   C     C_3   0.605065 0.775710 0.782425 -0.137821
C16   C     C_3   0.705458 0.750493 0.747242 -0.109953
C17   C     C_1   0.688119 0.636992 0.858632 0.004435
C18   C     C_1   0.647706 0.711328 0.659185 -0.034711
H1    H     H_    0.608219 0.539524 0.780236 0.147137
C19   C     C_3   0.087192 0.151427 0.738478 -0.074742
C20   C     C_3   0.168895 0.063433 0.775878 -0.104986
H2    H     H_    0.017335 0.146794 0.719019 0.159483
H3    H     H_    0.354397 0.981421 0.740298 0.107922
C21   C     C_1   0.100827 0.198808 0.902584 0.011633
C22   C     C_1   0.234209 0.136044 0.618381 0.007593
C23   C     C_3   0.075482 0.250475 0.771757 -0.063825
C24   C     C_3   0.157466 0.162397 0.808405 0.037594
C25   C     C_3   0.179161 0.246891 0.746150 -0.071080
C26   C     C_3   0.190381 0.148243 0.713568 0.028811
C27   C     C_3   0.260937 0.158981 0.783472 -0.094582
C28   C     C_3   0.272849 0.059872 0.750024 -0.118966
C29   C     C_1   0.131800 0.177574 0.860696 -0.033176
C30   C     C_1   0.210067 0.142656 0.660952 -0.038462
H4    H     H_    0.181975 0.322849 0.733054 0.195145
C31   C     C_3   0.599237 0.280503 0.742245 -0.105359
C32   C     C_3   0.542944 0.239859 0.780102 0.067311
H5    H     H_    0.559806 0.366539 0.725798 0.132683
C33   C     C_1   0.687009 0.205361 0.904550 0.059085
C34   C     C_1   0.633319 0.132649 0.618978 0.006079
C35   C     C_3   0.710027 0.224083 0.772627 0.071269
C36   C     C_3   0.653092 0.184748 0.810222 0.015272
C37   C     C_3   0.754778 0.110339 0.743980 -0.107980
C38   C     C_3   0.643264 0.166096 0.714417 0.021663
C39   C     C_3   0.696679 0.070837 0.781832 -0.157455
C40   C     C_3   0.584823 0.126202 0.751388 -0.124282
C41   C     C_1   0.666873 0.194095 0.862739 0.048785
C42   C     C_1   0.639124 0.151254 0.661645 -0.024744
H6    H     H_    0.842508 0.057764 0.728768 0.126959
C43   C     C_R   0.748877 0.682643 0.362489 0.008226
C44   C     C_R   0.759730 0.664237 0.311338 -0.023782
C45   C     C_R   0.768973 0.649949 0.208669 0.001102
C46   C     C_R   0.864757 0.632607 0.235216 -0.134573
C47   C     C_R   0.860563 0.639379 0.285886 -0.114545
C48   C     C_R   0.776316 0.634538 0.158261 -0.145403
H7    H     H_    0.858092 0.605085 0.140280 0.145209
H8    H     H_    0.937482 0.623936 0.304570 0.167388
C49   C     C_R   0.683157 0.643243 0.131920 -0.018165
C50   C     C_R   0.569044 0.679222 0.359765 0.030985
C51   C     C_R   0.569067 0.682996 0.308814 -0.027436
C52   C     C_R   0.664979 0.674926 0.284505 0.023984
C53   C     C_R   0.474347 0.698053 0.281634 -0.139659
C54   C     C_R   0.472207 0.709318 0.231553 -0.135809
C55   C     C_R   0.570079 0.692057 0.206307 -0.014943
C56   C     C_R   0.667821 0.672890 0.233132 0.046828
C57   C     C_R   0.575231 0.687080 0.155028 0.046984
C58   C     C_R   0.646817 0.701256 0.385797 -0.025539
C59   C     C_R   0.169637 0.077862 0.365307 -0.020155
C60   C     C_R   0.146323 0.088402 0.314182 -0.029778
C61   C     C_R   0.124388 0.105729 0.211101 -0.007830
C62   C     C_R   0.119929 0.017644 0.234936 -0.129788
C63   C     C_R   0.127433 0.009346 0.285729 0.056065
C64   C     C_R   0.107470 0.117700 0.160650 -0.112240
H9    H     H_    0.091794 0.057341 0.140308 0.144959
H10   H     H_    0.105906 0.956952 0.213876 0.132923
C65   C     C_R   0.100034 0.213014 0.137249 0.002792
C66   C     C_R   0.162973 0.262116 0.366998 0.045756
C67   C     C_R   0.148910 0.270613 0.316243 -0.009523
C68   C     C_R   0.145817 0.181173 0.289612 0.010868
C69   C     C_R   0.140462 0.365058 0.291173 -0.112523
C70   C     C_R   0.136577 0.368317 0.240824 -0.134713
C71   C     C_R   0.133515 0.281373 0.214188 0.022540
C72   C     C_R   0.135878 0.188552 0.238325 0.065883
C73   C     C_R   0.119322 0.291018 0.163908 -0.122491
C74   C     C_R   0.195222 0.156249 0.389108 -0.039295
H11   H     H_    0.113086 0.365358 0.146322 0.135149
H12   H     H_    0.132970 0.440864 0.222720 0.112582
C75   C     C_R   0.596842 0.234610 0.365467 -0.103046
C76   C     C_R   0.600113 0.254731 0.315771 0.024944
C77   C     C_R   0.610529 0.291943 0.216180 0.005010
C78   C     C_R   0.569227 0.383639 0.249748 -0.117376
C79   C     C_R   0.563812 0.365234 0.299269 -0.106838
C80   C     C_R   0.623538 0.309144 0.167468 -0.147857
H13   H     H_    0.603551 0.393785 0.156055 0.158639
H14   H     H_    0.563989 0.304782 0.391782 0.154141
H15   H     H_    0.542881 0.469264 0.237710 0.137163
C81   C     C_R   0.673798 0.216391 0.134547 -0.012771
C82   C     C_R   0.674392 0.032222 0.347347 -0.095992
C83   C     C_R   0.675094 0.051273 0.297969 0.021096
C84   C     C_R   0.639764 0.162330 0.281877 0.072535
C85   C     C_R   0.708361 0.961075 0.264530 -0.121671
C86   C     C_R   0.712203 0.978979 0.215074 -0.102364
C87   C     C_R   0.685420 0.087590 0.198139 -0.004844
C88   C     C_R   0.644678 0.180699 0.231953 0.044966
C89   C     C_R   0.699824 0.105800 0.148736 0.046070
C90   C     C_R   0.635826 0.123046 0.381090 0.019467
H16   H     H_    0.737430 0.906511 0.190722 0.166179
H17   H     H_    0.731669 0.876434 0.276709 0.136635
H18   H     H_    0.699012 0.946868 0.359437 0.156110
O14   O     O_R   0.818720 0.150820 0.967160 -0.499912
O15   O     O_R   0.006410 0.181720 0.970200 -0.489384
C91   C     C_R   0.049887 0.235784 0.949950 0.557455
O16   O     O_R   0.027890 0.334070 0.964920 -0.494989
O17   O     O_R   0.809600 0.521790 0.967960 -0.484242
C92   C     C_R   0.711465 0.563246 0.948332 0.556335
O18   O     O_R   0.635520 0.542770 0.964420 -0.496233
O19   O     O_R   0.665950 0.325030 0.970100 -0.483492
C93   C     C_R   0.721204 0.224757 0.951472 0.566610
O20   O     O_R   0.816620 0.158530 0.074540 -0.487322
O21   O     O_R   0.004460 0.188870 0.069750 -0.500931
C94   C     C_R   0.047244 0.245721 0.088938 0.547898
O22   O     O_R   0.025800 0.341780 0.072300 -0.518159
O23   O     O_R   0.807650 0.528950 0.067500 -0.508860
C95   C     C_R   0.706824 0.577279 0.085949 0.550943
O24   O     O_R   0.633420 0.550490 0.071810 -0.480136
O25   O     O_R   0.664000 0.332180 0.069640 -0.500527
C96   C     C_R   0.717564 0.234245 0.088913 0.572409
Cr4   Cr    Cr6+3 0.909170 0.177380 0.020380 1.069630
Cr5   Cr    Cr6+3 0.912710 0.429210 0.018220 1.052785
Cr6   Cr    Cr6+3 0.657170 0.432570 0.019030 1.083472
O26   O     O_3   0.826350 0.346390 0.019210 -0.268092
C97   C     C_2   0.902759 0.585667 0.785090 0.553862
O27   O     O_2   0.972610 0.571445 0.753514 -0.512025
O28   O     O_R   0.937592 0.555951 0.833229 -0.704554
H19   H     H_    0.023107 0.522635 0.837378 0.346170
H20   H     H_    0.332563 0.160742 0.802684 0.141543
H21   H     H_    0.995030 0.330209 0.781139 0.161924
C98   C     C_2   0.423927 0.313502 0.799363 0.555499
O29   O     O_2   0.344514 0.360213 0.770881 -0.529348
O30   O     O_R   0.404161 0.328887 0.849582 -0.699503
H22   H     H_    0.320164 0.379966 0.857941 0.343319
H23   H     H_    0.532397 0.086029 0.742161 0.112173
H24   H     H_    0.736096 0.984833 0.798283 0.128614
C99   C     C_2   0.778495 0.281715 0.782579 0.543330
O31   O     O_2   0.816508 0.309316 0.748340 -0.582588
O32   O     O_R   0.796649 0.305762 0.830414 -0.710162
H25   H     H_    0.841014 0.348143 0.832177 0.333629
H26   H     H_    0.792281 0.494808 0.714535 0.174574
C100  C     C_2   0.840530 0.686127 0.391585 0.595599
O33   O     O_2   0.884493 0.741152 0.377705 -0.535004
O34   O     O_R   0.872137 0.630843 0.436302 -0.650668
H27   H     H_    0.929693 0.645408 0.454165 0.338052
H28   H     H_    0.943401 0.613314 0.216709 0.119092
C101  C     C_2   0.470799 0.722067 0.125369 0.586133
O35   O     O_2   0.441584 0.798879 0.096029 -0.501239
O36   O     O_R   0.409850 0.663634 0.129124 -0.712718
H29   H     H_    0.341664 0.694586 0.106474 0.343400
H30   H     H_    0.394698 0.726018 0.213082 0.178353
H31   H     H_    0.399308 0.704804 0.298603 0.214001
C102  C     C_2   0.489246 0.652518 0.386245 0.583213
O37   O     O_2   0.528248 0.567117 0.411278 -0.506887
O38   O     O_R   0.371136 0.727388 0.384839 -0.678296
H32   H     H_    0.326734 0.700218 0.405069 0.362989
C103  C     C_2   0.166695 0.988143 0.394650 0.542693
O39   O     O_2   0.076484 0.996638 0.409192 -0.320441
O40   O     O_R   0.098116 0.014852 0.437750 -0.514443
H33   H     H_    0.131204 0.039338 0.469062 0.314650
H34   H     H_    0.734072 0.811739 0.737177 0.122850
C104  C     C_2   0.104760 0.922288 0.306318 0.595539
O41   O     O_2   0.181331 0.822727 0.308148 -0.519390
O42   O     O_R   0.993653 0.953611 0.321152 -0.636077
H35   H     H_    0.987588 0.886500 0.333668 0.373260
H36   H     H_    0.139086 0.436913 0.309511 0.171878
C105  C     C_2   0.143069 0.362036 0.398135 0.607625
O43   O     O_2   0.195462 0.412798 0.390782 -0.516250
O44   O     O_R   0.072725 0.389333 0.439262 -0.646245
H37   H     H_    0.075512 0.449461 0.460879 0.349124
H38   H     H_    0.532534 0.437028 0.324636 0.152986
C106  C     C_2   0.744177 0.011217 0.111800 0.581626
O45   O     O_2   0.833237 0.921883 0.118973 -0.528022
O46   O     O_R   0.685933 0.027039 0.067814 -0.683362
H39   H     H_    0.724962 0.957803 0.045201 0.344415
H40   H     H_    0.550743 0.857951 0.802129 0.114452
H41   H     H_    0.471252 0.751837 0.734430 0.120898
H42   H     H_    0.164875 0.987916 0.788758 0.123886

loop_
_geom_bond_atom_site_label_1
_geom_bond_atom_site_label_2
_geom_bond_distance
_ccdc_geom_bond_type
O6    C3    1.272123 A    
Cr4   O26   1.977353 S    
C106  O46   1.398025 S    
O36   H29   1.013755 S    
O30   H22   1.013870 S    
C67   C68   1.419157 A    
C85   H17   1.080676 S    
C70   H12   1.083794 S    
C11   C13   1.547968 S    
C101  O35   1.222481 D    
C16   H34   1.110510 S    
C19   C23   1.548077 S    
C69   C70   1.382964 A    
C60   C63   1.433709 A    
C86   H16   1.080391 S    
C12   C15   1.538269 S    
C87   C89   1.412487 A    
O32   H25   1.013310 S    
C36   C41   1.463957 S    
C102  O38   1.397790 S    
O17   Cr5   1.925101 S    
C53   C54   1.383566 A    
C104  O41   1.221207 D    
O8    Cr1   1.924286 S    
C53   H31   1.075915 S    
C6    C74   1.496871 S    
C59   C60   1.430450 A    
O19   Cr6   1.920974 S    
C11   C12   1.541172 S    
C100  O33   1.223113 D    
C97   O28   1.396924 S    
C39   H24   1.110220 S    
C82   C83   1.383951 A    
C35   C99   1.496109 S    
O2    C1    1.273457 A    
C32   C40   1.546629 S    
Cr6   O26   1.977033 S    
O4    C2    1.272036 A    
C44   C47   1.411026 A    
C78   C79   1.393762 A    
C68   C72   1.413649 A    
O14   C93   1.269258 A    
C5    O11   1.272926 A    
O15   Cr4   1.925187 S    
C80   H13   1.085569 S    
C31   C35   1.544075 S    
C20   H42   1.110018 S    
C81   C96   1.459165 S    
C105  O44   1.397475 S    
C87   C88   1.420822 A    
C61   C72   1.405800 A    
O20   Cr4   2.041548 S    
C1    C34   1.431790 S    
C10   C18   1.202232 T    
C65   C94   1.469141 S    
C97   O27   1.221968 D    
C104  O42   1.397929 S    
O19   C93   1.273462 A    
C13   H41   1.110192 S    
C34   C42   1.204018 T    
C54   H30   1.079448 S    
C7    C8    1.542542 S    
C99   O32   1.397144 S    
O18   Cr6   2.043383 S    
C48   H7    1.084668 S    
C7    C11   1.551372 S    
C20   C28   1.551246 S    
C23   H21   1.108634 S    
C24   C29   1.464008 S    
C35   C36   1.536987 S    
O25   Cr6   1.924830 S    
O21   Cr4   1.921328 S    
C106  O45   1.223036 D    
C67   C69   1.411341 A    
Cr3   O13   1.975148 S    
C101  O36   1.398507 S    
O25   C96   1.270870 A    
C23   C25   1.544715 S    
C50   C58   1.413376 A    
C9    C92   1.430197 S    
C49   C57   1.415510 A    
C71   C73   1.391519 A    
C25   C27   1.548731 S    
C69   H36   1.077074 S    
C71   C72   1.412003 A    
C5    C58   1.487178 S    
C7    H26   1.108695 S    
C78   H15   1.082494 S    
C26   C28   1.538650 S    
C37   H6    1.110328 S    
O7    C6    1.269592 A    
C77   C80   1.386629 A    
O4    Cr2   1.926455 S    
C38   C40   1.543891 S    
O1    Cr1   2.042146 S    
C50   C51   1.399796 A    
C14   C18   1.460446 S    
C31   C32   1.546770 S    
C7    C14   1.533989 S    
O10   Cr2   1.920353 S    
O21   C94   1.274669 A    
Cr1   O13   1.977259 S    
O1    C3    1.268435 A    
C55   C56   1.416150 A    
Cr5   O26   1.975419 S    
C62   H10   1.085822 S    
C63   C104  1.473629 S    
C81   C89   1.412820 A    
C62   C63   1.399290 A    
C46   C47   1.391373 A    
C36   C39   1.542199 S    
C52   C56   1.409732 A    
C49   C95   1.472716 S    
C11   H1    1.110319 S    
C32   C98   1.496344 S    
O40   H33   1.087262 S    
C21   C91   1.432708 S    
C89   C106  1.488267 S    
C45   C46   1.396905 A    
C39   C40   1.555233 S    
C31   H5    1.110531 S    
C20   C24   1.536618 S    
C47   H8    1.079961 S    
C51   C52   1.410809 A    
C8    C16   1.544508 S    
C13   C14   1.537929 S    
C40   H23   1.110774 S    
O20   C96   1.269668 A    
C76   C84   1.416552 A    
O16   Cr5   2.040480 S    
C99   O31   1.219736 D    
C64   C65   1.404533 A    
C26   C30   1.462616 S    
O7    Cr1   2.039448 S    
O8    C4    1.273556 A    
C44   C52   1.417268 A    
C70   C71   1.390296 A    
C48   C49   1.401337 A    
O12   C6    1.288176 A    
C82   C90   1.400305 A    
C19   C26   1.532487 S    
C60   C68   1.427841 A    
C4    O9    1.264388 A    
C51   C53   1.403073 A    
C61   C62   1.392560 A    
O42   H35   1.013907 S    
C46   H28   1.083104 S    
C73   H11   1.084715 S    
O22   Cr5   2.041195 S    
Cr2   O13   1.977182 S    
C12   C17   1.462709 S    
O38   H32   1.013738 S    
C57   C101  1.486579 S    
C59   C74   1.415837 A    
C75   H14   1.084457 S    
O34   H27   1.013757 S    
C98   O30   1.396731 S    
C23   C24   1.538270 S    
C91   O16   1.267429 A    
C75   C90   1.398383 A    
C79   H38   1.083361 S    
C25   C26   1.534969 S    
C66   C74   1.415422 A    
H3    C28   1.110122 S    
O17   C92   1.272999 A    
C61   C64   1.401096 A    
C25   H4    1.109487 S    
O44   H37   1.013143 S    
C21   C29   1.204358 T    
C27   C28   1.550538 S    
C4    C90   1.449387 S    
O9    Cr2   2.042338 S    
O2    Cr1   1.922490 S    
C54   C55   1.402950 A    
C38   C42   1.463427 S    
C15   C16   1.554624 S    
C45   C56   1.408269 A    
C8    C12   1.533114 S    
O46   H39   1.013846 S    
C8    C97   1.498334 S    
O6    Cr3   1.922508 S    
O24   Cr6   2.037959 S    
C32   C36   1.533652 S    
C83   C85   1.395299 A    
C95   O24   1.268953 A    
C55   C57   1.407855 A    
O11   Cr3   2.039123 S    
C83   C84   1.405175 A    
C2    O5    1.267966 A    
C3    C22   1.430655 S    
C22   C30   1.203445 T    
C33   C41   1.202914 T    
C77   C78   1.403238 A    
C84   C88   1.403532 A    
C59   C103  1.480995 S    
C66   C105  1.491177 S    
C45   C48   1.391914 A    
C19   H2    1.109321 S    
C92   O18   1.267847 A    
C37   C38   1.538925 S    
C50   C102  1.487808 S    
C13   C15   1.550270 S    
C102  O37   1.222451 D    
O23   Cr5   1.923028 S    
C86   C87   1.409283 A    
C14   C16   1.539932 S    
C33   C93   1.430064 S    
C43   C58   1.421302 A    
C2    C10   1.428709 S    
C82   H18   1.084620 S    
O14   Cr4   2.038861 S    
O15   C91   1.274689 A    
O5    Cr3   2.043411 S    
C43   C100  1.489050 S    
C100  O34   1.397210 S    
C66   C67   1.403762 A    
C35   C37   1.542177 S    
C85   C86   1.387697 A    
C27   H20   1.109196 S    
C76   C79   1.399765 A    
C105  O43   1.223037 D    
C24   C27   1.534814 S    
O12   Cr3   1.924939 S    
O23   C95   1.279984 A    
C103  O39   1.230179 D    
O3    Cr2   2.037462 S    
C80   C81   1.401242 A    
C31   C38   1.539381 S    
C64   H9    1.084414 S    
C19   C20   1.550337 S    
C43   C44   1.416695 A    
C75   C76   1.399607 A    
O10   C5    1.281039 A    
C77   C88   1.407769 A    
C65   C73   1.399207 A    
C98   O29   1.221443 D    
O28   H19   1.013890 S    
C37   C39   1.553723 S    
C15   H40   1.110300 S    
C94   O22   1.271059 A    
C1    O3    1.269311 A    
C9    C17   1.202941 T    
C103  O40   1.429532 S    
