data_mof_unit_50577.cif
_audit_creation_date              2012-12-10T19:12:23-0500
_audit_creation_method            fapswitch 2.2
_symmetry_space_group_name_H-M    P1
_symmetry_Int_Tables_number       1
_space_group_crystal_system       triclinic
_cell_length_a                    15.70269
_cell_length_b                    10.840857
_cell_length_c                    9.709409
_cell_angle_alpha                 88.684647
_cell_angle_beta                  90.742706
_cell_angle_gamma                 90.615903
_cell_volume                      1652.17401333

loop_
_atom_site_label
_atom_site_type_symbol
_atom_type_description
_atom_site_fract_x
_atom_site_fract_y
_atom_site_fract_z
_atom_type_partial_charge
C1    C     C_R   0.499905 0.256918 0.501478 0.922422
C2    C     C_3   0.082988 0.501013 0.496278 0.094973
C3    C     C_3   0.973122 0.596109 0.570237 -0.227408
C4    C     C_3   0.917098 0.497755 0.501033 0.019994
C5    C     C_3   0.027318 0.605828 0.437798 -0.214683
C6    C     C_3   0.970317 0.506963 0.370795 0.513314
C7    C     C_1   0.173739 0.502643 0.495884 -0.012075
C8    C     C_1   0.826233 0.497096 0.502660 0.035474
C9    C     C_3   0.592970 0.074341 0.569359 0.239976
C10   C     C_3   0.600453 0.930036 0.560984 0.242975
C11   C     C_3   0.417932 0.057247 0.567086 0.496875
C12   C     C_R   0.337899 0.502029 0.499072 0.901231
C13   C     C_3   0.507092 0.073590 0.351180 -0.527555
C14   C     C_3   0.503172 0.120049 0.504076 -0.152474
C15   C     C_3   0.514048 0.877835 0.499570 -0.107544
C16   C     C_3   0.437927 0.918972 0.586992 -0.459989
C17   C     C_3   0.505724 0.931683 0.349919 -0.477631
C18   C     C_3   0.473331 0.377185 0.085695 -0.257573
C19   C     C_3   0.470737 0.377330 0.924017 -0.153807
C20   C     C_3   0.438432 0.591472 0.076446 -0.245724
C21   C     C_3   0.583796 0.529132 0.082651 -0.231240
C22   C     C_3   0.439965 0.591253 0.913971 -0.265079
C23   C     C_R   0.509041 0.741589 0.498919 0.947051
C24   C     C_3   0.584516 0.524553 0.920965 -0.207994
C25   C     C_R   0.662125 0.498289 0.500764 0.976706
C26   C     C_3   0.973829 0.394495 0.558397 0.070395
C27   C     C_3   0.027605 0.402227 0.426387 -0.246258
C28   C     C_1   0.249031 0.503049 0.497001 -0.182720
C29   C     C_1   0.750964 0.497314 0.502438 -0.074138
C30   C     C_3   0.030855 0.491737 0.628984 -0.142212
H1    H     H_    0.051178 0.323676 0.366804 0.165720
H2    H     H_    0.453158 0.896591 0.696341 0.257663
H3    H     H_    0.454626 0.109272 0.284504 0.226998
H4    H     H_    0.565752 0.108079 0.299071 0.211178
H5    H     H_    0.559254 0.899657 0.286149 0.205975
H6    H     H_    0.446497 0.897618 0.299029 0.211636
H7    H     H_    0.380326 0.861271 0.564474 0.138389
H8    H     H_    0.410041 0.349292 0.127015 0.165004
H9    H     H_    0.519203 0.306297 0.123679 0.180495
H10   H     H_    0.511612 0.302912 0.887350 0.254288
H11   H     H_    0.404213 0.358805 0.892884 0.217745
H12   H     H_    0.372647 0.571312 0.112302 0.166579
H13   H     H_    0.374392 0.574345 0.873569 0.161669
H14   H     H_    0.604906 0.622056 0.116633 0.165505
H15   H     H_    0.631120 0.462508 0.125545 0.193203
H16   H     H_    0.630873 0.454426 0.889423 0.206903
H17   H     H_    0.608188 0.613791 0.879389 0.226725
H18   H     H_    0.455151 0.685304 0.112890 0.163760
H19   H     H_    0.458616 0.684197 0.874283 0.207226
H20   H     H_    0.051175 0.692007 0.387005 0.173194
H21   H     H_    0.948961 0.674872 0.628932 0.190176
H22   H     H_    0.057862 0.484969 0.735108 0.156466
H23   H     H_    0.639645 0.108829 0.491679 0.076822
H24   H     H_    0.649808 0.911908 0.482647 0.073973
N1    N     N_3   0.498170 0.499750 0.138610 -0.055057
N2    N     N_3   0.498850 0.496730 0.861320 -0.074332
O1    O     O_R   0.499980 0.314910 0.616040 -0.516086
O2    O     O_R   0.500040 0.314680 0.383960 -0.670646
O3    O     O_R   0.376750 0.500100 0.616020 -0.606486
O4    O     O_R   0.376810 0.499870 0.383940 -0.633457
O5    O     O_R   0.499960 0.685320 0.616040 -0.581170
O6    O     O_R   0.500020 0.685090 0.383960 -0.651662
O7    O     O_R   0.623190 0.500130 0.616060 -0.549320
O8    O     O_R   0.623250 0.499900 0.383980 -0.642676
Zn1   Zn    Zn3+2 0.499960 0.500150 0.654960 1.033687
Zn2   Zn    Zn3+2 0.500040 0.499850 0.345040 0.915444
S1    S     S_3+6 0.643844 0.848196 0.712205 0.052890
O9    O     O_2   0.663891 0.719681 0.672850 -0.349133
O10   O     O_2   0.726879 0.902343 0.760736 -0.217788
O11   O     O_3   0.574657 0.845551 0.843017 -0.567304
H25   H     H_    0.609869 0.834709 0.927730 0.374672
S2    S     S_3+6 0.383710 0.108774 0.733681 -0.014401
O12   O     O_2   0.454475 0.102004 0.838285 -0.290391
O13   O     O_2   0.350279 0.237437 0.723082 -0.333520
O14   O     O_3   0.303526 0.016707 0.789240 -0.563199
H26   H     H_    0.331150 0.947356 0.840040 0.355086
C31   C     C_3   0.335518 0.064625 0.470039 -0.405322
C32   C     C_3   0.304823 0.192255 0.418276 -0.349848
C33   C     C_3   0.226046 0.180288 0.325435 -0.877865
H27   H     H_    0.240595 0.124942 0.233936 0.278202
H28   H     H_    0.172890 0.135620 0.382960 0.261684
H29   H     H_    0.205551 0.273419 0.289330 0.262735
H30   H     H_    0.287043 0.249966 0.505006 0.272123
H31   H     H_    0.354070 0.240849 0.357441 0.228796
H32   H     H_    0.342177 0.006319 0.378949 0.186085
H33   H     H_    0.281189 0.020644 0.525677 0.241949
C34   C     C_3   0.940621 0.275539 0.626681 -0.383706
C35   C     C_3   0.013867 0.189928 0.669073 -0.358563
C36   C     C_3   0.980399 0.070901 0.736701 -0.753509
H34   H     H_    0.944649 0.091656 0.831248 0.270762
H35   H     H_    0.937839 0.020878 0.664150 0.278598
H36   H     H_    0.034695 0.010419 0.765629 0.254575
H37   H     H_    0.051076 0.166343 0.576851 0.227881
H38   H     H_    0.057120 0.237256 0.742959 0.244747
H39   H     H_    0.903664 0.299667 0.718918 0.221056
H40   H     H_    0.897417 0.228228 0.552770 0.238636
S3    S     S_3+6 0.928369 0.516676 0.199560 0.011163
O15   O     O_2   0.873332 0.405211 0.173201 -0.312842
O16   O     O_2   0.876071 0.631429 0.182607 -0.292418
O17   O     O_3   0.009262 0.521898 0.087772 -0.563563
H41   H     H_    0.981644 0.523171 0.995433 0.378897
S4    S     S_3+6 0.647023 0.145893 0.716900 0.064624
O18   O     O_2   0.637804 0.282178 0.722691 -0.342691
O19   O     O_2   0.620182 0.090335 0.852732 -0.206540
O20   O     O_3   0.752222 0.125442 0.697585 -0.546129
H42   H     H_    0.778763 0.154381 0.784320 0.382763

loop_
_geom_bond_atom_site_label_1
_geom_bond_atom_site_label_2
_ccdc_geom_bond_type
C19   N2    S    
C34   C35   S    
O7    Zn1   S    
C2    C7    S    
C4    C8    S    
S3    O17   S    
S3    O15   D    
C10   S1    S    
C26   C27   S    
C12   C28   S    
C8    C29   T    
C10   C15   S    
S2    O14   S    
C5    C6    S    
C11   C14   S    
N2    Zn1   S    
S4    O20   S    
C18   C19   S    
C25   O7    A    
C18   H9    S    
C11   C31   S    
C12   O3    A    
C32   H30   S    
O2    Zn2   S    
C23   O6    A    
C22   H13   S    
C9    S4    S    
C34   H39   S    
O11   H25   S    
C17   H6    S    
C36   H35   S    
C9    C10   S    
C16   H7    S    
C15   C23   S    
O4    Zn2   S    
C13   C14   S    
C20   N1    S    
S3    O16   D    
C21   H15   S    
C25   C29   S    
C35   H38   S    
C15   C16   S    
O6    Zn2   S    
C27   H1    S    
S1    O9    D    
C6    S3    S    
C4    C6    S    
C33   H28   S    
C9    C14   S    
C3    H21   S    
C32   C33   S    
C26   C34   S    
C22   N2    S    
C31   C32   S    
C32   H31   S    
C7    C28   T    
S1    O10   D    
C25   O8    A    
O8    Zn2   S    
C3    C30   S    
O14   H26   S    
C13   H3    S    
C1    O1    A    
C21   H14   S    
C11   C16   S    
C4    C26   S    
C6    C27   S    
C34   H40   S    
C20   H18   S    
C36   H36   S    
S4    O19   D    
C2    C27   S    
C18   N1    S    
C22   H19   S    
S2    O13   D    
C20   C22   S    
C31   H33   S    
C26   C30   S    
C5    H20   S    
C2    C5    S    
C16   H2    S    
C3    C4    S    
N1    Zn2   S    
C21   N1    S    
C15   C17   S    
C30   H22   S    
C35   H37   S    
C11   S2    S    
C24   H17   S    
O1    Zn1   S    
S2    O12   D    
C3    C5    S    
C33   H29   S    
C20   H12   S    
C24   N2    S    
O20   H42   S    
C13   C17   S    
C2    C30   S    
S1    O11   S    
C24   H16   S    
C18   H8    S    
C13   H4    S    
C1    O2    A    
O3    Zn1   S    
O17   H41   S    
S4    O18   D    
C10   H24   S    
C19   H10   S    
C31   H32   S    
C33   H27   S    
C12   O4    A    
O5    Zn1   S    
C23   O5    A    
C9    H23   S    
C35   C36   S    
C21   C24   S    
C1    C14   S    
C17   H5    S    
C36   H34   S    
C19   H11   S    
