data_mof_unit_31431.cif
_audit_creation_date              2012-10-26T19:46:06-0400
_audit_creation_method            fapswitch 2.2
_symmetry_space_group_name_H-M    P1
_symmetry_Int_Tables_number       1
_space_group_crystal_system       triclinic
_cell_length_a                    10.769252
_cell_length_b                    9.644072
_cell_length_c                    15.878886
_cell_angle_alpha                 88.594806
_cell_angle_beta                  92.43404
_cell_angle_gamma                 91.553189
_cell_volume                      1646.62788793

loop_
_atom_site_label
_atom_site_type_symbol
_atom_type_description
_atom_site_fract_x
_atom_site_fract_y
_atom_site_fract_z
_atom_type_partial_charge
C1    C     C_R   0.262623 0.498416 0.499486 0.538836
C2    C     C_R   0.940794 0.575449 0.559646 -0.138610
C3    C     C_R   0.870738 0.503232 0.498772 -0.011169
C4    C     C_R   0.128267 0.495843 0.500418 0.045182
C5    C     C_R   0.427482 0.073904 0.443099 -0.000576
C6    C     C_R   0.422549 0.925912 0.446140 -0.006869
C7    C     C_R   0.499782 0.501443 0.340572 0.545780
C8    C     C_R   0.583392 0.927623 0.550996 0.143990
C9    C     C_R   0.567805 0.072397 0.560684 0.135756
C10   C     C_R   0.737221 0.501425 0.499860 0.531178
C11   C     C_R   0.498627 0.498542 0.659266 0.519067
C12   C     C_3   0.619327 0.448855 0.956638 0.001575
C13   C     C_3   0.483461 0.657437 0.044518 -0.020408
C14   C     C_3   0.374980 0.408819 0.047600 -0.006094
C15   C     C_3   0.380923 0.399536 0.947740 -0.114702
C16   C     C_3   0.458887 0.649186 0.946076 -0.113321
C17   C     C_1   0.495398 0.495951 0.748333 -0.058920
C18   C     C_3   0.488041 0.503695 0.082653 -0.015340
C19   C     C_3   0.490401 0.498156 0.915873 0.020588
C20   C     C_3   0.707762 0.871446 0.585488 -0.223938
C21   C     C_3   0.703442 0.789144 0.669271 -0.393695
C22   C     C_3   0.610590 0.129448 0.646792 -0.215496
C23   C     C_3   0.610043 0.437185 0.054366 -0.234182
C24   C     C_3   0.732945 0.215224 0.648580 -0.370661
C25   C     C_1   0.384884 0.738682 0.081006 0.199027
C26   C     C_1   0.253951 0.465441 0.068247 0.168091
C27   C     C_1   0.377752 0.270576 0.090996 0.179861
C28   C     C_1   0.601011 0.734405 0.067217 0.200969
C29   C     C_3   0.378039 0.248978 0.912570 -0.282990
C30   C     C_3   0.246900 0.183167 0.910463 -0.430965
C31   C     C_3   0.512239 0.776179 0.893828 -0.273509
C32   C     C_3   0.421102 0.828566 0.824034 -0.467044
C33   C     C_1   0.722561 0.545895 0.935350 0.199702
C34   C     C_1   0.492290 0.496918 0.823505 -0.059823
C35   C     C_1   0.655626 0.313821 0.924262 0.178505
C36   C     C_3   0.113476 0.347376 0.366733 -0.283024
C37   C     C_3   0.164272 0.448209 0.300265 -0.394987
C38   C     C_3   0.139848 0.640810 0.635660 -0.264105
C39   C     C_3   0.146971 0.798039 0.621950 -0.413798
C40   C     C_1   0.492565 0.505045 0.175565 -0.041699
C41   C     C_1   0.496373 0.504405 0.251054 -0.008986
C42   C     C_R   0.056656 0.423599 0.437570 -0.013495
C43   C     C_R   0.069678 0.570677 0.562696 -0.004201
C44   C     C_R   0.927610 0.426235 0.439015 -0.120378
Cu1   Cu    Cu3+1 0.500020 0.640660 0.500000 0.926770
Cu2   Cu    Cu3+1 0.500020 0.359340 0.500000 0.924616
H1    H     H_    0.356370 0.657929 0.935522 0.142719
H2    H     H_    0.712597 0.676945 0.659580 0.166873
H3    H     H_    0.782737 0.821532 0.712060 0.123031
H4    H     H_    0.759433 0.822033 0.536767 0.171697
H5    H     H_    0.774207 0.959158 0.597180 0.092437
H6    H     H_    0.786479 0.199248 0.591560 0.153200
H7    H     H_    0.716639 0.327072 0.655284 0.173799
H8    H     H_    0.792412 0.183414 0.704261 0.128458
H9    H     H_    0.534232 0.176232 0.679154 0.165249
H10   H     H_    0.626176 0.042497 0.692342 0.101416
H11   H     H_    0.207668 0.179868 0.973944 0.191296
H12   H     H_    0.294592 0.444455 0.918225 0.136996
H13   H     H_    0.249914 0.075533 0.887817 0.144540
H14   H     H_    0.184271 0.242892 0.866566 0.148375
H15   H     H_    0.409117 0.249379 0.846856 0.158695
H16   H     H_    0.441569 0.180137 0.949808 0.188950
H17   H     H_    0.332956 0.858972 0.851341 0.149573
H18   H     H_    0.462200 0.921247 0.791712 0.137081
H19   H     H_    0.399566 0.748383 0.776504 0.166661
H20   H     H_    0.531654 0.866374 0.934914 0.179899
H21   H     H_    0.600507 0.751645 0.865016 0.182632
H22   H     H_    0.234020 0.521868 0.328503 0.158860
H23   H     H_    0.693121 0.485973 0.087153 0.141778
H24   H     H_    0.087294 0.508038 0.269698 0.180422
H25   H     H_    0.209414 0.389082 0.251424 0.163397
H26   H     H_    0.187144 0.277758 0.391498 0.164732
H27   H     H_    0.042739 0.278436 0.334742 0.143418
H28   H     H_    0.200513 0.845992 0.675522 0.132833
H29   H     H_    0.194333 0.825488 0.562835 0.179097
H30   H     H_    0.052215 0.841139 0.618306 0.139606
H31   H     H_    0.091773 0.616404 0.695045 0.135390
H32   H     H_    0.235069 0.601223 0.646200 0.161189
H33   H     H_    0.612616 0.326903 0.076703 0.140525
H34   H     H_    0.870677 0.371200 0.392069 0.126982
H35   H     H_    0.895438 0.631200 0.607153 0.106256
H36   H     H_    0.369489 0.128614 0.396816 0.117987
H37   H     H_    0.359794 0.870938 0.402809 0.127183
H38   H     H_    0.616468 0.806520 0.701885 0.160028
N1    N     N_R   0.500030 0.852070 0.500020 -0.225794
N2    N     N_R   0.500030 0.147930 0.500020 -0.224141
N3    N     N_1   0.308213 0.802681 0.109480 -0.251123
N4    N     N_1   0.158750 0.509032 0.083942 -0.282499
N5    N     N_1   0.380027 0.163134 0.125121 -0.284303
N6    N     N_1   0.692458 0.794556 0.085098 -0.262700
N7    N     N_1   0.804211 0.620868 0.918827 -0.292846
N8    N     N_1   0.684640 0.208503 0.898800 -0.323599
O1    O     O_R   0.319660 0.618740 0.500000 -0.507068
O2    O     O_R   0.319660 0.381260 0.500000 -0.509318
O3    O     O_R   0.500020 0.618840 0.379440 -0.486390
O4    O     O_R   0.500020 0.381160 0.379440 -0.491997
O5    O     O_R   0.680370 0.618830 0.500010 -0.506652
O6    O     O_R   0.680370 0.381170 0.500010 -0.499255
O7    O     O_R   0.500010 0.618730 0.620560 -0.503232
O8    O     O_R   0.500010 0.381270 0.620560 -0.508847

loop_
_geom_bond_atom_site_label_1
_geom_bond_atom_site_label_2
_ccdc_geom_bond_type
C24   H6    S    
C31   H20   S    
C37   H22   S    
C14   C18   S    
C36   C42   S    
Cu1   O1    S    
C21   H3    S    
Cu1   Cu2   S    
C16   C31   S    
C15   C19   S    
C7    O4    A    
C12   C23   S    
C8    C20   S    
C6    N1    A    
C13   C18   S    
C36   C37   S    
C20   H5    S    
C33   N7    T    
C38   C39   S    
C9    C22   S    
C24   H8    S    
C30   H11   S    
C25   N3    T    
C11   O7    A    
C8    N1    A    
C39   H28   S    
C10   O6    A    
C18   C40   S    
C20   H4    S    
C8    C9    A    
C30   H14   S    
C13   C28   S    
C39   H29   S    
C14   C27   S    
C21   H2    S    
C35   N8    T    
Cu2   O6    S    
C37   H24   S    
C13   C25   S    
C42   C44   A    
C16   H1    S    
C15   C29   S    
C29   H15   S    
C3    C44   A    
C18   C23   S    
C44   H34   S    
C32   H18   S    
Cu1   O7    S    
C1    O2    A    
C22   H10   S    
C38   H32   S    
C24   H7    S    
C23   H23   S    
C11   O8    A    
C10   O5    A    
Cu1   N1    S    
C29   C30   S    
C9    N2    A    
C31   C32   S    
Cu2   O2    S    
C21   H38   S    
C2    C43   A    
C30   H13   S    
C39   H30   S    
C14   C26   S    
C12   C35   S    
C5    N2    A    
C1    O1    A    
C40   C41   T    
C4    C43   A    
C37   H25   S    
C15   H12   S    
C22   C24   S    
C17   C34   T    
Cu1   O3    S    
Cu2   O8    S    
C29   H16   S    
C11   C17   S    
C6    H37   S    
C32   H17   S    
C19   C34   S    
C22   H9    S    
C38   H31   S    
C7    O3    A    
C1    C4    S    
C2    C3    A    
C38   C43   S    
C3    C10   S    
Cu1   O5    S    
C5    H36   S    
C5    C6    A    
C4    C42   A    
C16   C19   S    
C12   C19   S    
C27   N5    T    
C7    C41   S    
C36   H27   S    
C31   H21   S    
Cu2   O4    S    
C20   C21   S    
C26   N4    T    
C13   C16   S    
C14   C15   S    
C2    H35   S    
C28   N6    T    
C23   H33   S    
C12   C33   S    
C36   H26   S    
C32   H19   S    
Cu2   N2    S    
