data_mof_unit_41495.cif
_audit_creation_date              2013-03-05T16:00:38-0500
_audit_creation_method            fapswitch 2.2
_symmetry_space_group_name_H-M    P1
_symmetry_Int_Tables_number       1
_space_group_crystal_system       triclinic
_cell_length_a                    10.788536
_cell_length_b                    14.692027
_cell_length_c                    14.740936
_cell_angle_alpha                 64.346154
_cell_angle_beta                  104.52999
_cell_angle_gamma                 102.536079
_cell_volume                      2023.0311987

loop_
_atom_site_label
_atom_site_type_symbol
_atom_site_description
_atom_site_fract_x
_atom_site_fract_y
_atom_site_fract_z
_atom_type_partial_charge
O1    O     O_R   0.455060 0.022100 0.338110 -0.594096
O2    O     O_R   0.512640 0.160150 0.379180 -0.566776
C1    C     C_R   0.481845 0.120102 0.311793 0.844364
O3    O     O_R   0.288900 0.930980 0.479450 -0.579716
O4    O     O_R   0.346480 0.069030 0.520520 -0.535342
C2    C     C_R   0.259989 0.002869 0.496770 0.886604
Cu1   Cu    Cu3+1 0.465900 0.918260 0.475680 1.051481
Cu2   Cu    Cu3+1 0.534100 0.081740 0.524320 1.061651
O5    O     O_R   0.487360 0.839850 0.620820 -0.546029
O6    O     O_R   0.544940 0.977900 0.661890 -0.557623
O7    O     O_R   0.653520 0.930970 0.479480 -0.524485
O8    O     O_R   0.711100 0.069020 0.520550 -0.614070
C3    C     C_R   0.525997 0.879579 0.688483 0.935852
C4    C     C_R   0.739019 0.001975 0.495654 0.842669
C5    C     C_3   0.034787 0.974472 0.407541 -0.422562
H1    H     H_    0.044724 0.895675 0.422036 0.264094
C6    C     C_3   0.892026 0.986138 0.397713 0.178724
H2    H     H_    0.868232 0.056283 0.328606 0.157102
H3    H     H_    0.889998 0.843314 0.597251 0.293314
C7    C     C_3   0.083100 0.928477 0.599262 0.120533
C8    C     C_3   0.093083 0.118736 0.467833 0.499074
C9    C     C_3   0.122215 0.006573 0.494059 -0.215079
C10   C     C_3   0.876300 0.002688 0.492469 -0.150873
C11   C     C_3   0.936375 0.919548 0.592925 -0.357549
C12   C     C_3   0.953309 0.107758 0.486152 -0.487866
H4    H     H_    0.957819 0.113997 0.559670 0.216068
C13   C     C_R   0.483521 0.188029 0.203295 -0.124741
C14   C     C_R   0.554702 0.810038 0.797940 -0.247941
C15   C     C_R   0.431340 0.219080 0.022988 0.358111
C16   C     C_R   0.434217 0.152778 0.125867 -0.204994
C17   C     C_R   0.534994 0.289699 0.177758 -0.079683
C18   C     C_R   0.541587 0.358264 0.076258 0.047883
C19   C     C_R   0.488465 0.322539 0.996708 -0.084096
C20   C     C_R   0.588353 0.463613 0.052067 -0.044250
C21   C     C_R   0.566134 0.533501 0.948747 0.027419
C22   C     C_R   0.516136 0.496603 0.871514 -0.151827
C23   C     C_R   0.488678 0.392687 0.893887 0.329093
C24   C     C_R   0.651151 0.503197 0.127468 0.256553
C25   C     C_R   0.643556 0.605696 0.105893 0.288739
C26   C     C_R   0.603195 0.672395 0.004308 -0.122340
C27   C     C_R   0.588312 0.639447 0.925284 -0.003285
C28   C     C_R   0.580917 0.771938 0.979171 -0.124343
C29   C     C_R   0.544834 0.837591 0.876789 0.269164
C30   C     C_R   0.596065 0.714284 0.825753 0.261126
H5    H     H_    0.499760 0.548700 0.791931 0.186253
N1    N     N_R   0.585360 0.204570 0.560800 -0.212575
N2    N     N_R   0.414550 0.795430 0.439160 -0.198283
C31   C     C_R   0.735087 0.292399 0.653250 -0.203161
C32   C     C_R   0.693978 0.207323 0.630214 0.138051
C33   C     C_R   0.514027 0.283822 0.511723 0.177287
C34   C     C_R   0.555363 0.375913 0.525944 0.023220
C35   C     C_R   0.665785 0.376404 0.602133 0.142110
C36   C     C_R   0.488947 0.464896 0.471740 0.012594
C37   C     C_R   0.526085 0.546571 0.505822 0.064809
C38   C     C_R   0.635169 0.541613 0.583769 -0.094535
C39   C     C_R   0.704990 0.459453 0.628842 -0.071850
C40   C     C_R   0.388205 0.476983 0.384618 0.351272
C41   C     C_R   0.312347 0.555651 0.347837 -0.154051
C42   C     C_R   0.343935 0.632274 0.383728 0.071096
C43   C     C_R   0.453897 0.631404 0.460017 -0.002892
C44   C     C_R   0.270225 0.713598 0.338663 -0.207274
C45   C     C_R   0.307649 0.795007 0.367587 0.131161
C46   C     C_R   0.486764 0.716976 0.485922 0.116315
H6    H     H_    0.252366 0.858840 0.332043 0.131656
H7    H     H_    0.233843 0.562192 0.283650 0.199736
H8    H     H_    0.820489 0.292550 0.710673 0.173868
H9    H     H_    0.748309 0.142900 0.668109 0.140783
H10   H     H_    0.424698 0.272262 0.463513 0.195658
H11   H     H_    0.670106 0.600362 0.612250 0.182117
H12   H     H_    0.129935 0.957659 0.658775 0.199867
H13   H     H_    0.918195 0.927333 0.660218 0.182052
N3    N     N_R   0.466714 0.360595 0.811287 0.158657
O9    O     O_R   0.399709 0.411460 0.723046 -0.322102
O10   O     O_R   0.532609 0.292662 0.818315 -0.292121
N4    N     N_R   0.673941 0.701094 0.765918 0.101552
O11   O     O_R   0.740058 0.624133 0.806077 -0.336121
O12   O     O_R   0.708980 0.777305 0.686066 -0.422235
N5    N     N_R   0.500669 0.931629 0.854937 0.152866
O13   O     O_R   0.392459 0.956138 0.792729 -0.265438
O14   O     O_R   0.555967 0.983680 0.909906 -0.272760
N6    N     N_R   0.689234 0.644336 0.184172 0.164206
O15   O     O_R   0.787196 0.715165 0.176263 -0.297505
O16   O     O_R   0.624451 0.617062 0.257224 -0.289417
N7    N     N_R   0.355855 0.182504 0.947630 0.167209
O17   O     O_R   0.368449 0.093491 0.954586 -0.240123
O18   O     O_R   0.256178 0.226674 0.887120 -0.276588
H14   H     H_    0.390092 0.074637 0.144864 0.193465
H15   H     H_    0.566604 0.314716 0.239006 0.227044
H16   H     H_    0.066381 0.021477 0.332713 0.188057
N8    N     N_R   0.739701 0.446339 0.215701 0.123967
O19   O     O_R   0.757225 0.455381 0.302158 -0.264235
O20   O     O_R   0.808563 0.388246 0.208020 -0.294735
H17   H     H_    0.582257 0.796417 0.038989 0.224531
H18   H     H_    0.788597 0.459637 0.687775 0.177489
H19   H     H_    0.569746 0.724610 0.541289 0.169127
N9    N     N_R   0.374685 0.422904 0.321064 0.110962
O21   O     O_R   0.477150 0.413612 0.296351 -0.375579
O22   O     O_R   0.262671 0.407048 0.267668 -0.242490
H20   H     H_    0.185834 0.715202 0.279937 0.177819
N10   N     N_R   0.805553 0.900020 0.381624 0.155614
O23   O     O_R   0.817869 0.806511 0.446057 -0.311626
O24   O     O_R   0.718950 0.916824 0.298712 -0.306351
N11   N     N_R   0.125387 0.827784 0.635090 0.151661
O25   O     O_R   0.071218 0.765594 0.590906 -0.297888
O26   O     O_R   0.212857 0.797001 0.716976 -0.323009
N12   N     N_R   0.180094 0.170192 0.531350 0.119788
O27   O     O_R   0.219620 0.121183 0.628659 -0.308446
O28   O     O_R   0.191875 0.269063 0.495873 -0.301289
N13   N     N_R   0.105048 0.184063 0.359605 0.134107
O29   O     O_R   0.010903 0.231356 0.292870 -0.285187
O30   O     O_R   0.214127 0.197755 0.330062 -0.338615
H21   H     H_    0.899842 0.171113 0.427487 0.240411

loop_
_geom_bond_atom_site_label_1
_geom_bond_atom_site_label_2
_geom_bond_distance
_ccdc_geom_bond_type
C38   C39   1.383870 A    
C46   H19   1.072018 S    
C28   H17   1.083049 S    
C21   C22   1.407236 A    
N2    C45   1.354731 A    
N6    O15   1.301075 A    
N8    O19   1.300929 A    
Cu1   Cu2   2.698814 S    
C7    N11   1.473507 S    
C37   C43   1.429933 A    
C36   C37   1.437069 A    
C29   N5    1.436321 S    
C39   H18   1.084474 S    
N1    C32   1.354773 A    
C6    C10   1.571574 S    
C43   C46   1.416471 A    
C22   C23   1.394336 A    
N7    O18   1.301398 A    
N13   O30   1.301351 A    
N2    C46   1.357617 A    
C24   C25   1.414733 A    
O7    C4    1.297402 A    
N5    O14   1.301253 A    
N12   O27   1.299981 A    
C5    H1    1.107078 S    
C2    C9    1.489059 S    
C15   C19   1.429556 A    
C5    C6    1.550374 S    
C20   C21   1.414557 A    
O5    C3    1.303518 A    
C45   H6    1.081819 S    
C12   H21   1.110311 S    
C5    C9    1.569307 S    
C7    C11   1.542057 S    
C40   N9    1.433833 S    
N9    O22   1.301339 A    
C10   C11   1.549455 S    
C3    C14   1.484038 S    
C8    N12   1.480937 S    
C26   C28   1.404503 A    
C42   C43   1.413130 A    
C20   C24   1.429488 A    
C8    C9    1.605015 S    
C13   C16   1.393372 A    
C7    H12   1.103622 S    
C44   H20   1.084005 S    
O3    Cu1   1.975255 S    
N6    O16   1.300426 A    
C33   C34   1.417815 A    
C42   C44   1.400494 A    
C13   C17   1.392565 A    
C34   C35   1.418633 A    
N7    O17   1.301256 A    
C25   N6    1.434253 S    
C15   N7    1.434900 S    
O3    C2    1.301725 A    
C25   C26   1.407032 A    
C36   C40   1.431090 A    
N5    O13   1.301104 A    
C41   C42   1.386369 A    
C14   C30   1.423972 A    
C19   C23   1.416903 A    
O1    C1    1.303507 A    
Cu1   N2    2.027540 S    
C4    C10   1.491162 S    
C30   N4    1.453246 S    
Cu1   O7    1.980720 S    
N4    O11   1.302465 A    
C15   C16   1.400052 A    
C5    H16   1.112062 S    
C24   N8    1.443721 S    
C41   H7    1.084565 S    
N8    O20   1.301667 A    
C17   C18   1.405594 A    
Cu2   O8    1.975257 S    
N9    O21   1.297686 A    
N10   O24   1.301358 A    
C6    H2    1.113701 S    
C22   H5    1.081903 S    
N11   O26   1.301198 A    
N4    O12   1.296333 A    
C38   H11   1.075401 S    
N3    O10   1.301456 A    
C31   C32   1.387685 A    
C7    C9    1.573849 S    
C27   C30   1.411872 A    
C28   C29   1.402626 A    
Cu1   O5    1.921274 S    
C8    C12   1.560100 S    
C37   C38   1.413063 A    
C26   C27   1.406310 A    
C17   H15   1.070039 S    
C32   H9    1.081778 S    
O1    Cu1   1.932156 S    
O2    Cu2   1.921274 S    
O8    C4    1.301136 A    
N3    O9    1.301548 A    
O6    C3    1.305320 A    
O4    Cu2   1.980720 S    
C8    N13   1.485537 S    
N1    C33   1.360751 A    
C14   C29   1.419287 A    
C31   H8    1.083890 S    
C18   C19   1.429754 A    
C1    C13   1.476111 S    
O2    C1    1.303433 A    
C12   H4    1.114833 S    
N13   O29   1.302032 A    
C40   C41   1.394630 A    
O4    C2    1.294259 A    
N12   O28   1.301987 A    
N10   O23   1.301268 A    
H3    C11   1.104433 S    
C10   C12   1.561900 S    
C44   C45   1.385971 A    
C21   C27   1.418970 A    
C6    N10   1.470995 S    
Cu2   N1    2.027184 S    
C31   C35   1.400959 A    
Cu2   O6    1.932156 S    
C23   N3    1.436946 S    
N11   O25   1.301182 A    
C34   C36   1.440798 A    
C16   H14   1.083660 S    
C33   H10   1.073525 S    
C35   C39   1.389630 A    
C11   H13   1.114065 S    
C18   C20   1.432032 A    
