data_mof_unit_38283.cif
_audit_creation_date              2012-12-11T16:04:59-0500
_audit_creation_method            fapswitch 2.2
_symmetry_space_group_name_H-M    P1
_symmetry_Int_Tables_number       1
_space_group_crystal_system       triclinic
_cell_length_a                    10.641866
_cell_length_b                    10.651826
_cell_length_c                    16.906333
_cell_angle_alpha                 98.730815
_cell_angle_beta                  98.601894
_cell_angle_gamma                 61.499804
_cell_volume                      1658.08917328

loop_
_atom_site_label
_atom_site_type_symbol
_atom_type_description
_atom_site_fract_x
_atom_site_fract_y
_atom_site_fract_z
_atom_type_partial_charge
C1    C     C_R   0.354911 0.775080 0.398487 0.548164
C2    C     C_3   0.415095 0.685022 0.252517 -0.113629
C3    C     C_3   0.349109 0.809092 0.318075 0.055070
C4    C     C_R   0.371367 0.347249 0.358530 0.539729
C5    C     C_3   0.411664 0.893318 0.287115 -0.124759
C6    C     C_3   0.270558 0.964226 0.233287 -0.112695
C7    C     C_3   0.209055 0.878669 0.265367 -0.123475
C8    C     C_3   0.273459 0.755888 0.198947 -0.115075
C9    C     C_3   0.334114 0.841098 0.167115 0.058156
C10   C     C_3   0.459786 0.251477 0.773263 -0.108610
C11   C     C_3   0.407328 0.392440 0.735146 -0.111476
C12   C     C_3   0.762472 0.291471 0.248585 -0.118996
C13   C     C_3   0.336358 0.334596 0.663164 0.054033
C14   C     C_3   0.388912 0.194445 0.700677 -0.112952
C15   C     C_3   0.246932 0.264112 0.740905 -0.108361
C16   C     C_R   0.776842 0.376985 0.401813 0.547400
C17   C     C_3   0.194655 0.405317 0.702176 -0.119969
C18   C     C_3   0.265450 0.462034 0.775706 -0.127674
C19   C     C_3   0.318684 0.321209 0.812759 0.053218
C20   C     C_1   0.817249 0.341950 0.709623 -0.046293
C21   C     C_1   0.843531 0.314952 0.778127 -0.048495
C22   C     C_1   0.357464 0.765526 0.714362 -0.048498
C23   C     C_3   0.831233 0.342853 0.324025 0.057888
C24   C     C_1   0.326223 0.811811 0.782006 -0.049236
C25   C     C_R   0.958140 0.284778 0.102372 0.555979
C26   C     C_R   0.319931 0.300532 0.119851 0.533606
C27   C     C_R   0.298144 0.885238 0.086432 0.532554
C28   C     C_R   0.379299 0.716199 0.631629 0.552588
C29   C     C_R   0.884516 0.299556 0.860982 0.552489
C30   C     C_R   0.308384 0.294060 0.891887 0.544786
C31   C     C_R   0.282357 0.880363 0.859720 0.543563
C32   C     C_R   0.366427 0.345537 0.584935 0.536732
C33   C     C_R   0.774097 0.379602 0.629604 0.537570
C34   C     C_3   0.982073 0.236882 0.301930 -0.150964
C35   C     C_1   0.346203 0.337737 0.274681 -0.065722
C36   C     C_1   0.333905 0.328230 0.203421 -0.064300
C37   C     C_3   0.914707 0.184429 0.224717 -0.123627
C38   C     C_3   0.980913 0.353501 0.256746 -0.137474
C39   C     C_3   0.828731 0.460081 0.279867 -0.102378
C40   C     C_3   0.761658 0.407433 0.203659 -0.114908
C41   C     C_3   0.913258 0.301516 0.181458 0.056079
C42   C     C_3   0.475850 0.771264 0.219443 -0.128627
Cr1   Cr    Cr6+3 0.608340 0.611040 0.520430 1.019757
Cr2   Cr    Cr6+3 0.287650 0.601120 0.489350 1.021607
Cr3   Cr    Cr6+3 0.604040 0.287870 0.490280 1.019120
Cr4   Cr    Cr6+3 0.054020 0.052700 0.970850 1.021938
Cr5   Cr    Cr6+3 0.059230 0.375120 0.993390 1.019160
Cr6   Cr    Cr6+3 0.374950 0.061200 0.992340 1.025046
H1    H     H_    0.672119 0.266443 0.247353 0.129662
H2    H     H_    0.945623 0.073774 0.196770 0.132220
H3    H     H_    0.069441 0.170241 0.345355 0.111178
H4    H     H_    0.069433 0.380626 0.258051 0.116415
H5    H     H_    0.792983 0.573961 0.303443 0.132756
H6    H     H_    0.673509 0.473965 0.160582 0.120076
H7    H     H_    0.473967 0.569793 0.263355 0.110929
H8    H     H_    0.583778 0.728771 0.198270 0.114449
H9    H     H_    0.465980 0.950849 0.325269 0.129314
H10   H     H_    0.474297 0.444891 0.730766 0.102720
H11   H     H_    0.216984 0.078677 0.221612 0.108944
H12   H     H_    0.102703 0.919120 0.288123 0.121316
H13   H     H_    0.218713 0.698157 0.161426 0.125970
H14   H     H_    0.568338 0.190610 0.804013 0.133095
H15   H     H_    0.437564 0.085542 0.668260 0.135825
H16   H     H_    0.180466 0.211248 0.745614 0.119647
H17   H     H_    0.086751 0.466161 0.670778 0.134726
H18   H     H_    0.216944 0.570590 0.808497 0.129855
O1    O     O_R   0.751220 0.499230 0.435170 -0.522494
O2    O     O_R   0.412990 0.180750 0.091610 -0.505969
O3    O     O_R   0.366620 0.943130 0.065760 -0.501267
O4    O     O_R   0.477220 0.727600 0.436870 -0.499769
O5    O     O_R   0.160510 0.906330 0.879210 -0.510051
O6    O     O_R   0.930190 0.179050 0.889450 -0.490347
O7    O     O_R   0.909140 0.398170 0.896710 -0.503623
O8    O     O_R   0.186190 0.363460 0.918830 -0.500661
O9    O     O_R   0.401670 0.173200 0.913310 -0.513895
O10   O     O_R   0.356120 0.936130 0.900470 -0.491671
O11   O     O_3   0.162740 0.163010 0.985530 -0.276069
O12   O     O_R   0.297880 0.469080 0.560050 -0.514708
O13   O     O_R   0.258650 0.745120 0.411470 -0.513620
O14   O     O_R   0.297070 0.467240 0.395960 -0.497300
O15   O     O_R   0.488830 0.252610 0.387790 -0.516807
O16   O     O_R   0.724400 0.302390 0.420980 -0.501853
O17   O     O_R   0.752100 0.501210 0.612190 -0.516272
O18   O     O_R   0.478040 0.729440 0.600970 -0.493696
O19   O     O_R   0.259530 0.747110 0.588490 -0.501039
O20   O     O_R   0.489720 0.254590 0.564810 -0.514234
O21   O     O_R   0.725220 0.304230 0.585080 -0.495339
O22   O     O_3   0.500010 0.500010 0.500020 -0.274663
O23   O     O_R   0.171830 0.913880 0.057510 -0.529169
O24   O     O_R   0.940690 0.186050 0.054730 -0.499672
O25   O     O_R   0.920470 0.405720 0.075010 -0.514430
O26   O     O_R   0.196690 0.370460 0.084120 -0.518521

loop_
_geom_bond_atom_site_label_1
_geom_bond_atom_site_label_2
_ccdc_geom_bond_type
C5    C42   S    
C11   C18   S    
C30   O9    A    
C28   O18   A    
C34   C37   S    
Cr1   O17   S    
Cr5   O26   S    
Cr6   O10   S    
C13   C32   S    
Cr3   O16   S    
Cr6   O3    S    
C6    C9    S    
C12   H1    S    
Cr3   O20   S    
C7    C8    S    
Cr4   O23   S    
C39   H5    S    
C15   C19   S    
C12   C23   S    
C9    C42   S    
Cr1   O22   S    
Cr3   O21   S    
C4    O14   A    
C3    C7    S    
C2    H7    S    
C38   C39   S    
C30   O8    A    
C38   H4    S    
C26   O26   A    
C18   C19   S    
C12   C37   S    
C42   H8    S    
C4    O15   A    
C35   C36   T    
C8    C9    S    
C15   H16   S    
C11   H10   S    
Cr4   O6    S    
C27   O3    A    
C8    H13   S    
C29   O6    A    
C16   C23   S    
C31   O5    A    
C4    C35   S    
C22   C28   S    
C13   C14   S    
Cr1   O18   S    
Cr6   O9    S    
C10   H14   S    
Cr3   O15   S    
C25   O25   A    
Cr2   O14   S    
Cr3   O22   S    
Cr5   O7    S    
C38   C41   S    
C10   C14   S    
C25   C41   S    
C39   C40   S    
C21   C29   S    
C1    C3    S    
Cr6   O11   S    
C12   C40   S    
C25   O24   A    
C10   C19   S    
C23   C34   S    
C32   O20   A    
C16   O16   A    
C17   C18   S    
C34   H3    S    
C16   O1    A    
Cr6   O2    S    
C33   O17   A    
Cr4   O5    S    
C20   C33   S    
C26   C36   S    
C40   C41   S    
Cr1   O4    S    
C40   H6    S    
C1    O13   A    
C22   C24   T    
Cr5   O11   S    
Cr2   O19   S    
C7    H12   S    
C9    C27   S    
C15   C17   S    
C34   C38   S    
Cr5   O25   S    
C6    H11   S    
Cr2   O13   S    
C2    C8    S    
Cr5   O8    S    
C3    C5    S    
Cr4   O11   S    
C6    C7    S    
Cr4   O24   S    
C5    H9    S    
C18   H18   S    
C17   H17   S    
C1    O4    A    
C13   C17   S    
C26   O2    A    
Cr2   O12   S    
C2    C3    S    
C33   O21   A    
C24   C31   S    
C37   H2    S    
C11   C13   S    
C31   O10   A    
C5    C6    S    
C2    C42   S    
C23   C39   S    
C14   H15   S    
C27   O23   A    
C37   C41   S    
C10   C11   S    
C32   O12   A    
C29   O7    A    
C20   C21   T    
Cr1   O1    S    
C28   O19   A    
C14   C15   S    
Cr2   O22   S    
C19   C30   S    
