data_mof_unit_28120.cif
_audit_creation_date              2013-03-05T16:09:50-0500
_audit_creation_method            fapswitch 2.2
_symmetry_space_group_name_H-M    P1
_symmetry_Int_Tables_number       1
_space_group_crystal_system       triclinic
_cell_length_a                    6.942654
_cell_length_b                    13.379549
_cell_length_c                    14.677279
_cell_angle_alpha                 98.899354
_cell_angle_beta                  89.767497
_cell_angle_gamma                 90.304249
_cell_volume                      1346.92731999

loop_
_atom_site_label
_atom_site_type_symbol
_atom_site_description
_atom_site_fract_x
_atom_site_fract_y
_atom_site_fract_z
_atom_type_partial_charge
O1    O     O_R   0.354890 0.151580 0.148210 -0.594451
O2    O     O_R   0.645110 0.848420 0.851790 -0.594452
O3    O     O_R   0.682370 0.152980 0.336770 -0.580908
O4    O     O_R   0.317630 0.847020 0.663230 -0.580892
O5    O     O_R   0.854980 0.348430 0.351800 -0.595515
O6    O     O_R   0.145020 0.651570 0.648200 -0.595515
C1    C     C_R   0.513249 0.130992 0.365863 1.037029
C2    C     C_R   0.486751 0.869009 0.634138 1.037010
O7    O     O_R   0.684450 0.139580 0.148000 -0.577891
O8    O     O_R   0.315550 0.860420 0.852000 -0.577886
O9    O     O_R   0.857080 0.334940 0.161680 -0.600278
O10   O     O_R   0.142920 0.665060 0.838320 -0.600277
C3    C     C_R   0.515539 0.112676 0.114029 1.015060
C4    C     C_R   0.484461 0.887324 0.885971 1.015045
O11   O     O_R   0.352790 0.165070 0.338330 -0.599653
O12   O     O_R   0.647210 0.834930 0.661670 -0.599655
O13   O     O_3   0.522170 0.314120 0.254710 -0.285594
O14   O     O_3   0.477830 0.685880 0.745290 -0.285593
V1    V     V_3+5 0.796120 0.238110 0.249130 1.210645
V2    V     V_3+5 0.203880 0.761890 0.750870 1.210655
O15   O     O_R   0.186930 0.347040 0.163240 -0.600010
O16   O     O_R   0.813070 0.652960 0.836760 -0.600010
C5    C     C_R   0.018625 0.368795 0.133575 0.916927
C6    C     C_R   0.981375 0.631204 0.866425 0.916926
O17   O     O_R   0.184850 0.360440 0.352010 -0.591701
O18   O     O_R   0.815150 0.639560 0.647990 -0.591701
C7    C     C_R   0.015819 0.387321 0.385988 0.984386
C8    C     C_R   0.984181 0.612679 0.614012 0.984387
V3    V     V_3+5 0.296410 0.261900 0.250880 1.191631
V4    V     V_3+5 0.703590 0.738100 0.749120 1.191632
O19   O     O_3   0.020490 0.185890 0.245290 -0.259715
O20   O     O_3   0.979510 0.814110 0.754710 -0.259709
C9    C     C_1   0.005133 0.466904 0.466343 -0.220506
C10   C     C_1   0.994867 0.533096 0.533657 -0.220505
C11   C     C_3   0.079209 0.589735 0.033772 -0.115469
C12   C     C_3   0.920791 0.410265 0.966228 -0.115471
C13   C     C_3   0.904034 0.540981 0.076180 -0.120312
C14   C     C_3   0.095966 0.459019 0.923820 -0.120312
H1    H     H_    0.825025 0.574425 0.139411 0.140322
H2    H     H_    0.174975 0.425575 0.860589 0.140325
H3    H     H_    0.144581 0.664165 0.061202 0.128536
H4    H     H_    0.855419 0.335834 0.938798 0.128535
C15   C     C_3   0.009862 0.438916 0.062713 -0.105594
C16   C     C_3   0.990138 0.561084 0.937287 -0.105594
C17   C     C_3   0.185235 0.486871 0.021091 -0.100353
C18   C     C_3   0.814765 0.513129 0.978909 -0.100351
H5    H     H_    0.338142 0.475845 0.038841 0.118960
H6    H     H_    0.661857 0.524155 0.961159 0.118960
C19   C     C_3   0.318390 0.028585 0.482960 -0.222544
C20   C     C_3   0.681610 0.971417 0.517041 -0.222553
C21   C     C_3   0.392136 0.917236 0.469549 -0.268941
C22   C     C_3   0.607864 0.082766 0.530451 -0.268965
H7    H     H_    0.306134 0.848617 0.443557 0.165766
H8    H     H_    0.693865 0.151384 0.556446 0.165773
H9    H     H_    0.169230 0.052727 0.470560 0.163216
H10   H     H_    0.830769 0.947275 0.529442 0.163227
C23   C     C_3   0.495907 0.939003 0.563823 -0.266111
C24   C     C_3   0.504092 0.060999 0.436177 -0.266116
C25   C     C_3   0.424041 0.048405 0.576084 0.452051
C26   C     C_3   0.575956 0.951598 0.423916 0.452068
C27   C     C_1   0.504947 0.033096 0.033665 -0.202675
C28   C     C_1   0.495052 0.966904 0.966335 -0.202681
N1    N     N_R   0.340021 0.105013 0.659478 0.227514
O21   O     O_R   0.280592 0.196980 0.659240 -0.417389
O22   O     O_R   0.328134 0.065504 0.734867 -0.426424
N2    N     N_R   0.659980 0.894995 0.340522 0.227521
O23   O     O_R   0.719482 0.803045 0.340773 -0.417392
O24   O     O_R   0.671754 0.934481 0.265117 -0.426441

loop_
_geom_bond_atom_site_label_1
_geom_bond_atom_site_label_2
_geom_bond_distance
_ccdc_geom_bond_type
N2    O24   1.300139 A    
N1    O22   1.300139 A    
O13   V3    1.710236 S    
C12   H4    1.110143 S    
O4    C2    1.295624 A    
V1    O19   1.707775 S    
C7    C9    1.463510 S    
O9    V1    2.002313 S    
C11   C13   1.550188 S    
O3    C1    1.295624 A    
C23   C25   1.532772 S    
O12   V4    2.000759 S    
C4    C28   1.463441 S    
C5    C15   1.506205 S    
O7    C3    1.303116 A    
C14   C17   1.549628 S    
O5    C7    1.298863 A    
O7    V1    1.983734 S    
O6    C8    1.298863 A    
O8    V2    1.983734 S    
C19   C21   1.561064 S    
C20   C22   1.561070 S    
O3    V1    2.002775 S    
C21   C23   1.549068 S    
V4    O20   2.159939 S    
C1    C24   1.497984 S    
C22   H8    1.110220 S    
C1    O11   1.295478 A    
N2    O23   1.300380 A    
C26   N2    1.457430 S    
C2    O12   1.295478 A    
C11   H3    1.110144 S    
C16   C18   1.540857 S    
O11   V3    2.000758 S    
C17   H5    1.110133 S    
O17   V3    1.984275 S    
C18   H6    1.110133 S    
O8    C4    1.303116 A    
C19   H9    1.110458 S    
O15   V3    2.000114 S    
C20   H10   1.110453 S    
C19   C24   1.549445 S    
C21   H7    1.110231 S    
C13   C15   1.539377 S    
C14   C16   1.539377 S    
C22   C25   1.539734 S    
C2    C23   1.498006 S    
O10   V2    2.002310 S    
O1    V3    1.981799 S    
C9    C10   1.222648 T    
C12   C18   1.549520 S    
C11   C16   1.539935 S    
C15   C17   1.540857 S    
C22   C24   1.549078 S    
O14   V4    1.710235 S    
O18   V4    1.984274 S    
O15   C5    1.298689 A    
C6    C16   1.506205 S    
O16   C6    1.298690 A    
O1    C3    1.299004 A    
C11   C17   1.549519 S    
V2    O20   1.707775 S    
O16   V4    2.000111 S    
C20   C23   1.549443 S    
C25   N1    1.457449 S    
O5    V1    1.981633 S    
O17   C7    1.303625 A    
O6    V2    1.981633 S    
O10   C6    1.296875 A    
O18   C8    1.303625 A    
C19   C25   1.539627 S    
O2    V4    1.981799 S    
C20   C26   1.539649 S    
C12   C14   1.550189 S    
C13   H1    1.110136 S    
C14   H2    1.110137 S    
O9    C5    1.296874 A    
O13   V1    2.156813 S    
O14   V2    2.156812 S    
C27   C28   1.222608 T    
O2    C4    1.299004 A    
C8    C10   1.463510 S    
N1    O21   1.300401 A    
O4    V2    2.002774 S    
C3    C27   1.463441 S    
V3    O19   2.159939 S    
C12   C15   1.539935 S    
C21   C26   1.539727 S    
C13   C18   1.549628 S    
C24   C26   1.532760 S    
