data_mof_unit_6818.cif
_audit_creation_date              2012-12-10T21:09:10-0500
_audit_creation_method            fapswitch 2.2
_symmetry_space_group_name_H-M    P1
_symmetry_Int_Tables_number       1
_space_group_crystal_system       triclinic
_cell_length_a                    10.943964
_cell_length_b                    17.547109
_cell_length_c                    16.783425
_cell_angle_alpha                 91.360049
_cell_angle_beta                  104.137772
_cell_angle_gamma                 90.652861
_cell_volume                      3124.01110429

loop_
_atom_site_label
_atom_site_type_symbol
_atom_type_description
_atom_site_fract_x
_atom_site_fract_y
_atom_site_fract_z
_atom_type_partial_charge
C1    C     C_R   0.498564 0.352904 0.498893 0.895955
C2    C     C_R   0.497722 0.647076 0.500563 0.896653
C3    C     C_R   0.439632 0.885770 0.489467 0.054798
C4    C     C_R   0.435192 0.113628 0.490502 0.054602
C5    C     C_1   0.427278 0.965709 0.488091 -0.057875
C6    C     C_1   0.425657 0.033318 0.488462 -0.058318
C7    C     C_R   0.412424 0.450232 0.815810 0.155583
C8    C     C_R   0.593881 0.544285 0.184555 0.160993
C9    C     C_R   0.416126 0.453478 0.732000 -0.162317
C10   C     C_R   0.587507 0.543664 0.268070 -0.163432
C11   C     C_R   0.586881 0.542224 0.765466 0.358771
C12   C     C_R   0.411861 0.458456 0.234645 0.362109
C13   C     C_R   0.584214 0.541475 0.848974 -0.327195
C14   C     C_R   0.414978 0.458130 0.151202 -0.325736
C15   C     C_R   0.497382 0.495904 0.875351 0.065932
C16   C     C_R   0.505203 0.500821 0.124889 0.066082
C17   C     C_1   0.498560 0.497488 0.963242 -0.000369
C18   C     C_1   0.502335 0.499655 0.036734 0.000248
C19   C     C_R   0.259531 0.501754 0.466186 0.989912
C20   C     C_R   0.740316 0.498389 0.533820 0.991558
C21   C     C_2   0.125511 0.492243 0.447707 -0.443152
C22   C     C_2   0.873696 0.509438 0.552392 -0.442710
C23   C     C_2   0.064069 0.514883 0.503766 0.447101
C24   C     C_2   0.937343 0.483470 0.498998 0.438564
C25   C     C_R   0.461278 0.851395 0.565458 -0.259834
C26   C     C_R   0.458696 0.148298 0.421799 -0.265358
C27   C     C_R   0.481038 0.773322 0.571303 0.205671
C28   C     C_R   0.484194 0.226266 0.423467 0.204380
C29   C     C_R   0.481607 0.729752 0.499374 -0.128820
C30   C     C_R   0.483427 0.269906 0.495276 -0.130131
C31   C     C_R   0.460698 0.765483 0.423249 -0.266276
C32   C     C_R   0.458967 0.234120 0.563962 -0.265082
C33   C     C_R   0.438718 0.843283 0.417401 0.250279
C34   C     C_R   0.434132 0.156119 0.562290 0.252791
H1    H     H_    0.650627 0.576870 0.893515 0.171517
H2    H     H_    0.346390 0.423996 0.106673 0.170055
H3    H     H_    0.911662 0.551427 0.600380 0.138736
H4    H     H_    0.084647 0.454498 0.396136 0.135174
H5    H     H_    0.462743 0.885342 0.620581 0.146742
H6    H     H_    0.461296 0.114188 0.367475 0.145593
H7    H     H_    0.461406 0.733043 0.367626 0.183646
H8    H     H_    0.459286 0.266736 0.619639 0.181202
H9    H     H_    0.351409 0.418327 0.686393 0.146512
H10   H     H_    0.654418 0.577543 0.313689 0.148453
N1    N     N_R   0.500030 0.500030 0.707240 -0.128748
N2    N     N_R   0.499970 0.499970 0.292760 -0.128903
O1    O     O_R   0.500000 0.389130 0.566570 -0.626993
O2    O     O_R   0.500000 0.610870 0.433430 -0.628656
O3    O     O_R   0.499990 0.389100 0.433480 -0.611815
O4    O     O_R   0.500010 0.610900 0.566520 -0.612080
O5    O     O_R   0.317810 0.500010 0.541690 -0.593107
O6    O     O_R   0.682190 0.499990 0.458310 -0.598460
O7    O     O_R   0.317800 0.499990 0.408610 -0.638436
O8    O     O_R   0.682200 0.500010 0.591390 -0.635785
Zn1   Zn    Zn3+2 0.500010 0.500020 0.588860 0.936202
Zn2   Zn    Zn3+2 0.499990 0.499980 0.411140 0.934364
O9    O     O_3   0.890062 0.420829 0.447317 -0.619804
C35   C     C_3   0.845954 0.442605 0.364598 -0.301182
H11   H     H_    0.894004 0.408594 0.325105 0.160003
H12   H     H_    0.859033 0.504369 0.354029 0.139731
H13   H     H_    0.744445 0.427620 0.343323 0.216858
O10   O     O_3   0.114871 0.574040 0.559649 -0.617439
C36   C     C_3   0.152956 0.547642 0.641016 -0.298752
H14   H     H_    0.139603 0.485095 0.647028 0.135524
H15   H     H_    0.101856 0.578820 0.680801 0.161363
H16   H     H_    0.253773 0.562510 0.665941 0.207136
N3    N     N_2   0.501362 0.739665 0.649608 -0.300167
H17   H     H_    0.563791 0.770434 0.695405 0.220155
C37   C     C_3   0.386493 0.720487 0.673282 -0.727553
H18   H     H_    0.409533 0.687253 0.730352 0.225505
H19   H     H_    0.322592 0.685315 0.624180 0.279518
H20   H     H_    0.337403 0.773191 0.684848 0.222967
N4    N     N_2   0.511537 0.259638 0.353173 -0.298243
H21   H     H_    0.461212 0.235354 0.298166 0.219862
C38   C     C_3   0.644684 0.265802 0.356795 -0.724590
H22   H     H_    0.658148 0.295600 0.301864 0.223886
H23   H     H_    0.685960 0.208158 0.357542 0.224988
H24   H     H_    0.694843 0.299025 0.412614 0.274309
N5    N     N_2   0.420096 0.877871 0.339364 -0.309984
H25   H     H_    0.442993 0.935121 0.340891 0.228121
C39   C     C_3   0.300581 0.859178 0.282626 -0.788444
H26   H     H_    0.296611 0.886063 0.222836 0.238318
H27   H     H_    0.221867 0.880925 0.307397 0.242993
H28   H     H_    0.289222 0.796540 0.271605 0.247071
N6    N     N_2   0.413394 0.121318 0.634017 -0.308844
H29   H     H_    0.430107 0.063704 0.638434 0.229000
C40   C     C_3   0.297478 0.142175 0.655179 -0.796628
H30   H     H_    0.291823 0.114203 0.712864 0.239150
H31   H     H_    0.215098 0.123159 0.605343 0.245597
H32   H     H_    0.294165 0.204787 0.665494 0.242264
N7    N     N_2   0.321996 0.402245 0.838918 -0.306705
H33   H     H_    0.240050 0.394207 0.793418 0.213729
C41   C     C_3   0.371658 0.330908 0.873318 -0.779604
H34   H     H_    0.404234 0.296016 0.826567 0.237001
H35   H     H_    0.296649 0.298541 0.892813 0.236796
H36   H     H_    0.451296 0.341198 0.928041 0.250373
N8    N     N_2   0.687376 0.589798 0.161414 -0.299703
H37   H     H_    0.717044 0.636642 0.199899 0.222262
C42   C     C_3   0.792351 0.547518 0.145886 -0.803391
H38   H     H_    0.845202 0.520629 0.203036 0.224375
H39   H     H_    0.857173 0.586912 0.124611 0.242117
H40   H     H_    0.759347 0.502715 0.097330 0.252046
N9    N     N_2   0.680934 0.587988 0.743435 -0.302953
H41   H     H_    0.661963 0.604528 0.683749 0.283378
C43   C     C_3   0.809151 0.563032 0.773917 -0.813528
H42   H     H_    0.874861 0.602564 0.753633 0.231543
H43   H     H_    0.820203 0.504748 0.749568 0.256145
H44   H     H_    0.835210 0.563166 0.842126 0.242702
N10   N     N_2   0.316461 0.414001 0.256781 -0.304371
H45   H     H_    0.335841 0.396201 0.316070 0.279867
C44   C     C_3   0.189215 0.440911 0.227249 -0.815555
H46   H     H_    0.122309 0.402238 0.247514 0.231232
H47   H     H_    0.162466 0.441408 0.159061 0.242844
H48   H     H_    0.180793 0.499297 0.252230 0.256119

loop_
_geom_bond_atom_site_label_1
_geom_bond_atom_site_label_2
_ccdc_geom_bond_type
C40   H30   S    
C36   H15   S    
C9    N1    A    
C41   H34   S    
C27   C29   A    
N4    H21   S    
C44   H46   S    
C8    N8    S    
C39   H26   S    
N6    H29   S    
C43   H43   S    
C2    C29   S    
C22   C24   D    
C19   C21   S    
C13   H1    S    
N10   C44   S    
C14   H2    S    
C5    C6    T    
C3    C33   A    
C35   H12   S    
C7    C9    A    
C37   H19   S    
C12   N2    A    
C2    O4    A    
C39   H27   S    
N9    C43   S    
C23   O10   S    
C21   H4    S    
C24   O9    S    
C10   N2    A    
C23   C24   S    
C31   C33   A    
C19   O7    A    
C35   H13   S    
C7    C15   A    
C36   H16   S    
C8    C16   A    
N4    C38   S    
C28   N4    S    
C12   N10   S    
N8    C42   S    
N8    H37   S    
N6    C40   S    
C43   H44   S    
C4    C34   A    
C9    H9    S    
C10   H10   S    
N3    H17   S    
C3    C25   A    
C20   O8    A    
N7    H33   S    
N5    C39   S    
C33   N5    S    
C2    O2    A    
C35   H11   S    
C22   H3    S    
C36   H14   S    
N3    C37   S    
C34   N6    S    
C32   C34   A    
C37   H20   S    
C38   H22   S    
O10   C36   S    
N7    C41   S    
C42   H38   S    
C29   C31   A    
C7    N7    S    
C17   C18   T    
C44   H47   S    
C16   C18   S    
C38   H23   S    
C8    C10   A    
C42   H39   S    
C12   C14   A    
C41   H36   S    
C13   C15   A    
C14   C16   A    
C11   N1    A    
C4    C6    S    
C39   H28   S    
O1    Zn1   S    
O7    Zn2   S    
O2    Zn2   S    
O8    Zn1   S    
C31   H7    S    
C1    O1    A    
C20   C22   S    
C3    C5    S    
C4    C26   A    
C15   C17   S    
C25   C27   A    
O3    Zn2   S    
C43   H42   S    
C26   C28   A    
O4    Zn1   S    
C21   C23   D    
C20   O6    A    
N10   H45   S    
C25   H5    S    
C30   C32   A    
C11   C13   A    
C26   H6    S    
O9    C35   S    
C28   C30   A    
C1    C30   S    
C44   H48   S    
O5    Zn1   S    
C37   H18   S    
C38   H24   S    
C27   N3    S    
N5    H25   S    
C19   O5    A    
C42   H40   S    
N1    Zn1   S    
C41   H35   S    
C40   H32   S    
N2    Zn2   S    
N9    H41   S    
C40   H31   S    
C32   H8    S    
C11   N9    S    
C1    O3    A    
O6    Zn2   S    
