data_mof_unit_63472.cif
_audit_creation_date              2012-12-11T16:21:31-0500
_audit_creation_method            fapswitch 2.2
_symmetry_space_group_name_H-M    P1
_symmetry_Int_Tables_number       1
_space_group_crystal_system       triclinic
_cell_length_a                    8.357117
_cell_length_b                    16.579396
_cell_length_c                    17.466866
_cell_angle_alpha                 108.437405
_cell_angle_beta                  83.755234
_cell_angle_gamma                 97.623049
_cell_volume                      2269.86775438

loop_
_atom_site_label
_atom_site_type_symbol
_atom_type_description
_atom_site_fract_x
_atom_site_fract_y
_atom_site_fract_z
_atom_type_partial_charge
Ba1   Ba    Ba6+2 0.638770 0.457640 0.528600 1.768423
Ba2   Ba    Ba6+2 0.171410 0.542370 0.471460 1.769053
C1    C     C_3   0.706028 0.227403 0.773956 0.215284
C2    C     C_R   0.118471 0.248806 0.486640 -0.288006
C3    C     C_2   0.506398 0.858007 0.579056 -0.038579
C4    C     C_3   0.254987 0.230067 0.697696 0.749652
C5    C     C_2   0.538905 0.776219 0.555188 0.053747
C6    C     C_2   0.808311 0.810418 0.494071 0.115331
C7    C     C_3   0.788152 0.905120 0.533981 -0.005698
C8    C     C_3   0.609364 0.921956 0.545443 0.141345
C9    C     C_2   0.882458 0.964700 0.491467 -0.078598
C10   C     C_2   0.935289 0.045843 0.533364 0.176310
C11   C     C_R   0.171049 0.078029 0.444509 0.083817
C12   C     C_3   0.763441 0.261835 0.703126 0.367469
C13   C     C_R   0.031053 0.105055 0.492855 -0.051940
C14   C     C_R   0.281765 0.134902 0.415862 0.339731
C15   C     C_R   0.259309 0.222526 0.439938 0.045830
C16   C     C_3   0.150374 0.212041 0.769480 -0.080351
C17   C     C_R   0.000124 0.191183 0.509970 0.005089
C18   C     C_R   0.085289 0.465618 0.714952 -0.158370
C19   C     C_R   0.949488 0.511043 0.747905 0.017010
C20   C     C_R   0.898429 0.523180 0.831426 0.077079
C21   C     C_R   0.980508 0.487488 0.877857 0.040354
C22   C     C_R   0.118944 0.445059 0.843952 0.060159
C23   C     C_3   0.985014 0.274850 0.269319 0.472283
C24   C     C_R   0.171203 0.434797 0.762706 0.062573
C25   C     C_R   0.919699 0.492783 0.165558 -0.165556
C26   C     C_R   0.871143 0.506470 0.247505 0.049771
C27   C     C_R   0.635546 0.570624 0.232820 -0.015442
C28   C     C_3   0.342104 0.665115 0.736924 0.327338
C29   C     C_R   0.673886 0.545666 0.147815 0.279100
C30   C     C_R   0.824671 0.515463 0.115965 -0.023274
C31   C     C_1   0.879636 0.504349 0.031875 0.142471
C32   C     C_1   0.925499 0.496905 0.961993 0.134563
C33   C     C_R   0.741151 0.554502 0.282409 -0.258105
C34   C     C_3   0.934788 0.180759 0.221132 0.492931
C35   C     C_3   0.340183 0.699389 0.830986 0.471125
C36   C     C_3   0.427202 0.327807 0.259017 0.384030
C37   C     C_3   0.405343 0.285184 0.168238 -0.294389
C38   C     C_3   0.812111 0.728381 0.711737 0.615564
C39   C     C_3   0.842226 0.822813 0.765125 0.697140
C40   C     C_3   0.492343 0.737791 0.212990 0.496084
C41   C     C_3   0.382628 0.716199 0.142570 -0.342952
C42   C     C_3   0.012427 0.782295 0.301328 0.706000
C43   C     C_3   0.052490 0.852813 0.259769 0.021899
C44   C     C_2   0.683211 0.751266 0.499737 -0.143537
Cl1   Cl    Cl    0.368528 0.615567 0.870005 -0.729428
Cl2   Cl    Cl    0.529495 0.539215 0.079186 -0.693679
Cl3   Cl    Cl    0.884217 0.718626 0.611837 -0.663724
Cl4   Cl    Cl    0.716156 0.886768 0.737861 -0.688507
Cl5   Cl    Cl    0.048313 0.866174 0.751647 -0.595973
Cl6   Cl    Cl    0.725623 0.309147 0.868075 -0.665611
Cl7   Cl    Cl    0.971908 0.166588 0.114586 -0.675080
Cl8   Cl    Cl    0.796485 0.770681 0.318552 -0.841476
Cl9   Cl    Cl    0.330219 0.133679 0.633775 -0.674759
Cl10  Cl    Cl    0.443615 0.092348 0.348936 -0.637159
H1    H     H_    0.713973 0.323676 0.713497 0.100415
H2    H     H_    0.777403 0.175112 0.772581 0.062783
H3    H     H_    0.064229 0.154151 0.748502 0.106560
H4    H     H_    0.601371 0.703815 0.190509 0.080220
H5    H     H_    0.302452 0.766410 0.150937 0.081070
H6    H     H_    0.457917 0.711536 0.085151 0.150506
H7    H     H_    0.306546 0.654710 0.136277 0.187344
H8    H     H_    0.012199 0.913659 0.301201 0.097600
H9    H     H_    0.184716 0.865631 0.248434 0.063284
H10   H     H_    0.402732 0.878281 0.620693 0.160490
H11   H     H_    0.697624 0.683748 0.473744 0.073502
H12   H     H_    0.332541 0.370571 0.285832 0.045528
H13   H     H_    0.095015 0.313657 0.498903 0.062511
H14   H     H_    0.895445 0.944329 0.426171 0.094199
H15   H     H_    0.025028 0.459245 0.139352 0.121647
H16   H     H_    0.178421 0.250311 0.660170 -0.150432
H17   H     H_    0.707723 0.567060 0.346348 0.063437
H18   H     H_    0.077239 0.266049 0.798789 0.066319
H19   H     H_    0.218759 0.637425 0.719199 -0.042712
H20   H     H_    0.426104 0.614946 0.713424 0.042925
H21   H     H_    0.164524 0.778704 0.841703 0.222991
H22   H     H_    0.092522 0.682542 0.851806 0.170605
H23   H     H_    0.516216 0.255551 0.137352 0.158533
H24   H     H_    0.474882 0.783958 0.919697 0.224088
H25   H     H_    0.448021 0.822151 0.844873 0.240993
H26   H     H_    0.603100 0.406736 0.224562 0.114950
H27   H     H_    0.578078 0.423769 0.325444 0.134898
H28   H     H_    0.821108 0.894340 0.884830 0.244124
H29   H     H_    0.883775 0.798285 0.869615 0.177716
H30   H     H_    0.037139 0.338710 0.386374 0.143667
H31   H     H_    0.844093 0.293497 0.376279 0.234871
H32   H     H_    0.152397 0.138981 0.229138 0.192991
H33   H     H_    0.998665 0.061273 0.209108 0.204022
H34   H     H_    0.381793 0.333505 0.140071 0.116202
H35   H     H_    0.731089 0.094288 0.207272 0.223863
H36   H     H_    0.694336 0.193967 0.217554 0.241852
H37   H     H_    0.601249 0.846289 0.187139 0.171209
H38   H     H_    0.451163 0.864734 0.261856 0.217794
H39   H     H_    0.055325 0.658233 0.279933 0.201382
H40   H     H_    0.989343 0.676674 0.200290 0.160237
H41   H     H_    0.035026 0.786809 0.139065 0.181593
H42   H     H_    0.983849 0.886576 0.166313 0.190446
H43   H     H_    0.793776 0.065528 0.638338 0.214500
H44   H     H_    0.976035 0.033956 0.640971 0.240869
H45   H     H_    0.303573 0.233869 0.157962 0.143564
H46   H     H_    0.137247 0.375535 0.919045 0.193808
H47   H     H_    0.254745 0.469765 0.939550 0.261241
H48   H     H_    0.717440 0.599531 0.835086 0.239506
H49   H     H_    0.818993 0.626575 0.917309 0.169248
H50   H     H_    0.195623 0.511958 0.624871 0.188932
H51   H     H_    0.054722 0.424551 0.595077 0.198723
H52   H     H_    0.174175 0.199411 0.879977 0.228903
H53   H     H_    0.293573 0.141461 0.805186 0.238521
H54   H     H_    0.681326 0.706722 0.714734 -0.021114
H55   H     H_    0.577082 0.201280 0.769999 0.158010
H56   H     H_    0.897790 0.272429 0.699577 -0.138341
H57   H     H_    0.112674 0.289150 0.252360 -0.023663
N1    N     N_3   0.185866 0.732105 0.866770 -0.476272
N2    N     N_3   0.972376 0.831526 0.184347 -0.473498
N3    N     N_3   0.916468 0.073724 0.620096 -0.493131
N4    N     N_3   0.212734 0.416585 0.892774 -0.429120
N5    N     N_3   0.769063 0.573910 0.872381 -0.390338
N6    N     N_3   0.145765 0.454070 0.633147 -0.479577
N7    N     N_3   0.249894 0.201364 0.828690 -0.420606
N8    N     N_3   0.472252 0.767147 0.856800 -0.445631
N9    N     N_3   0.583758 0.376592 0.269230 -0.442328
N10   N     N_3   0.803271 0.829912 0.850584 -0.489801
N11   N     N_3   0.963962 0.284547 0.355759 -0.530301
N12   N     N_3   0.029598 0.124504 0.243856 -0.503086
N13   N     N_3   0.762290 0.158425 0.239358 -0.406700
N14   N     N_3   0.548966 0.829120 0.237739 -0.400145
N15   N     N_3   0.065944 0.702000 0.247531 -0.473505
O1    O     O_2   0.563480 0.287900 0.421550 -0.409701
O2    O     O_2   0.296898 0.555484 0.238621 -0.471979
O3    O     O_3   0.409478 0.716982 0.280722 -0.528777
O4    O     O_3   0.344560 0.396140 0.441010 -0.525384
O5    O     O_3   0.942720 0.544140 0.599330 -0.447215
O6    O     O_2   0.129060 0.458130 0.306750 -0.491985
O7    O     O_3   0.894262 0.329087 0.247495 -0.608680
O8    O     O_2   0.128798 0.811808 0.518808 -0.395264
O9    O     O_3   0.100419 0.808412 0.371974 -0.599048
O10   O     O_3   0.805120 0.340890 0.569250 -0.523551
O11   O     O_2   0.679127 0.189224 0.482247 -0.376053
O12   O     O_3   0.898462 0.677913 0.738831 -0.676363
O13   O     O_3   0.419113 0.263517 0.295166 -0.598361
O14   O     O_3   0.706175 0.202099 0.632154 -0.570232
O15   O     O_2   0.681260 0.541920 0.693290 -0.478033
O16   O     O_3   0.399420 0.384560 0.615960 -0.462262
O17   O     O_2   0.507985 0.447935 0.762387 -0.389612
O18   O     O_3   0.388548 0.289679 0.725959 -0.573706
O19   O     O_2   0.246830 0.712160 0.578490 -0.379012
O20   O     O_3   0.465730 0.603870 0.559050 -0.519923
O21   O     O_3   0.005180 0.659120 0.430820 -0.448063
O22   O     O_3   0.391151 0.732800 0.704917 -0.609074
O23   O     O_3   0.867570 0.455870 0.400730 -0.476852
O24   O     O_3   0.410870 0.615450 0.384100 -0.469595
P1    P     P_3+3 0.397200 0.301470 0.401420 1.047259
P2    P     P_3+3 0.862850 0.568080 0.686620 1.023786
P3    P     P_3+3 0.364579 0.389940 0.718115 1.080925
P4    P     P_3+3 0.413100 0.698540 0.598650 1.058523
P5    P     P_3+3 0.441226 0.613981 0.281761 1.049983
P6    P     P_3+3 0.799603 0.230103 0.548457 1.036739
P7    P     P_3+3 0.941324 0.438336 0.299644 0.978354
P8    P     P_3+3 0.008764 0.771313 0.452119 1.109906

loop_
_geom_bond_atom_site_label_1
_geom_bond_atom_site_label_2
_ccdc_geom_bond_type
C12   O14   S    
C42   O9    S    
H35   N13   S    
H50   N6    S    
O17   P3    D    
H52   N7    S    
C34   N12   S    
H44   N3    S    
C4    Cl9   S    
Ba1   O4    S    
C15   P1    S    
C14   Cl10  S    
C9    H14   S    
C41   H7    S    
H22   N1    S    
H38   N14   S    
H28   N10   S    
C12   H56   S    
C22   N4    S    
Ba2   O6    S    
O2    P5    D    
C22   C24   A    
Ba1   O1    S    
C36   C37   S    
C4    O18   S    
C28   O22   S    
Ba2   O20   S    
C38   Cl3   S    
O23   P7    S    
H40   N15   S    
Ba1   Ba2   S    
O3    P5    S    
C43   N2    S    
C34   Cl7   S    
C2    C17   A    
H39   N15   S    
C42   N15   S    
O18   P3    S    
C26   C33   A    
C1    H55   S    
C6    C7    S    
Ba2   O4    S    
C19   P2    S    
H29   N10   S    
C40   O3    S    
C35   Cl1   S    
C7    C8    S    
C37   H34   S    
Ba2   O21   S    
O6    P7    D    
C16   H18   S    
O22   P4    S    
C19   C20   A    
C24   P3    S    
H47   N4    S    
O14   P6    S    
Ba1   O5    S    
H51   N6    S    
C2    H13   S    
C23   N11   S    
C37   H45   S    
H48   N5    S    
H24   N8    S    
Ba2   O24   S    
C4    C16   S    
Ba2   O5    S    
O7    P7    S    
C5    P4    S    
O5    P2    S    
C5    C44   S    
O11   P6    D    
C40   H4    S    
H43   N3    S    
C3    C5    D    
C14   C15   A    
O15   P2    D    
C38   H54   S    
C35   N1    S    
Ba2   O19   S    
C4    H16   S    
C26   P7    S    
C28   C35   S    
H25   N8    S    
C37   H23   S    
C13   C17   A    
H37   N14   S    
H32   N12   S    
Ba1   O15   S    
C23   H57   S    
C28   H20   S    
O10   P6    S    
C29   C30   A    
C10   C13   S    
C9    C10   D    
C21   C32   S    
C31   C32   T    
Ba1   P1    S    
O19   P4    D    
C7    C9    S    
C36   N9    S    
H46   N4    S    
C40   N14   S    
C35   N8    S    
C2    C15   A    
C38   C39   S    
O4    P1    S    
C29   Cl2   S    
C11   C13   A    
H30   N11   S    
C36   O13   S    
H49   N5    S    
H41   N2    S    
C40   C41   S    
H21   N1    S    
C6    P8    S    
C16   N7    S    
C39   Cl4   S    
C25   H15   S    
C42   C43   S    
C41   H5    S    
Ba2   O23   S    
C20   N5    S    
C12   H1    S    
O24   P5    S    
C33   H17   S    
Ba2   P4    S    
C21   C22   A    
O9    P8    S    
C25   C30   A    
C17   P6    S    
C34   N13   S    
C36   H12   S    
C3    H10   S    
H36   N13   S    
C27   P5    S    
C1    Cl6   S    
C1    C12   S    
C27   C33   A    
C43   H8    S    
H33   N12   S    
C43   H9    S    
C30   C31   S    
C39   N10   S    
O16   P3    S    
C44   H11   S    
C27   C29   A    
Ba1   O16   S    
O1    P1    D    
C28   H19   S    
O13   P1    S    
H42   N2    S    
H31   N11   S    
C18   C24   A    
C38   O12   S    
H26   N9    S    
Ba1   O23   S    
H27   N9    S    
Ba1   P2    S    
C23   O7    S    
O21   P8    S    
C6    C44   D    
C23   C34   S    
O8    P8    D    
C1    H2    S    
C42   Cl8   S    
C16   H3    S    
C3    C8    S    
C18   C19   A    
H53   N7    S    
C11   C14   A    
C25   C26   A    
C20   C21   A    
Ba1   O20   S    
O20   P4    S    
C39   Cl5   S    
C18   N6    S    
Ba1   O10   S    
C41   H6    S    
O12   P2    S    
C10   N3    S    
