data_mof_unit_37800.cif
_audit_creation_date              2012-12-10T20:31:07-0500
_audit_creation_method            fapswitch 2.2
_symmetry_space_group_name_H-M    P1
_symmetry_Int_Tables_number       1
_space_group_crystal_system       triclinic
_cell_length_a                    14.847146
_cell_length_b                    10.669219
_cell_length_c                    9.95363
_cell_angle_alpha                 90.209958
_cell_angle_beta                  90.151219
_cell_angle_gamma                 89.769957
_cell_volume                      1576.70044295

loop_
_atom_site_label
_atom_site_type_symbol
_atom_type_description
_atom_site_fract_x
_atom_site_fract_y
_atom_site_fract_z
_atom_type_partial_charge
Br1   Br    Br    0.682832 0.134615 0.656919 -0.560544
Br2   Br    Br    0.299762 0.720770 0.822454 -0.482805
Br3   Br    Br    0.300072 0.733531 0.157019 -0.469629
Br4   Br    Br    0.406194 0.138193 0.222313 -0.525552
C1    C     C_R   0.495333 0.260439 0.499490 0.937875
C2    C     C_R   0.187751 0.386405 0.473474 -0.298582
C3    C     C_R   0.232335 0.498075 0.501041 -0.051065
C4    C     C_R   0.327420 0.499203 0.500060 0.918108
C5    C     C_R   0.186675 0.608986 0.529048 -0.202548
C6    C     C_R   0.495694 0.064192 0.619606 0.031594
C7    C     C_R   0.481103 0.128708 0.499867 -0.160925
C8    C     C_R   0.449750 0.062531 0.385452 0.254668
C9    C     C_R   0.452895 0.932806 0.387307 -0.199874
C10   C     C_R   0.483130 0.870850 0.502631 -0.140447
C11   C     C_R   0.494365 0.936853 0.621870 0.121770
C12   C     C_R   0.906356 0.608862 0.532551 0.141966
C13   C     C_3   0.566316 0.928746 0.726750 -0.459009
C14   C     C_3   0.568708 0.071161 0.723890 0.102768
C15   C     C_R   0.439893 0.570308 0.069836 0.063293
C16   C     C_R   0.497372 0.739586 0.500398 0.901486
C17   C     C_R   0.563740 0.434790 0.071747 -0.070790
C18   C     C_R   0.563655 0.434640 0.928287 -0.117327
C19   C     C_R   0.440502 0.571014 0.928857 0.077020
C20   C     C_3   0.340040 0.571038 0.918208 0.340293
C21   C     C_3   0.338210 0.575488 0.073398 0.309931
C22   C     C_R   0.672683 0.499859 0.500138 0.900077
C23   C     C_R   0.954252 0.274440 0.436904 0.210607
C24   C     C_R   0.813242 0.608375 0.533603 -0.250588
C25   C     C_R   0.767999 0.498926 0.500414 -0.059232
C26   C     C_R   0.812864 0.388605 0.466981 -0.203958
C27   C     C_R   0.906478 0.385660 0.467300 0.079095
C28   C     C_R   0.953326 0.497041 0.500430 0.011540
C29   C     C_3   0.213670 0.432934 0.835282 -0.669724
C30   C     C_3   0.199818 0.474922 0.160765 -0.664083
C31   C     C_3   0.884963 0.150484 0.262799 -0.745487
C32   C     C_R   0.048263 0.275002 0.441599 -0.282609
C33   C     C_R   0.094449 0.385286 0.472456 0.085049
C34   C     C_R   0.047034 0.497048 0.501474 0.049705
C35   C     C_R   0.093575 0.609216 0.530981 0.112587
C36   C     C_R   0.046515 0.719518 0.561207 -0.181983
C37   C     C_R   0.953023 0.719171 0.562759 -0.207337
H1    H     H_    0.775727 0.692832 0.558559 0.139140
H2    H     H_    0.225869 0.301771 0.451536 0.165889
H3    H     H_    0.223804 0.694632 0.547895 0.182012
H4    H     H_    0.081998 0.805625 0.584038 0.167646
H5    H     H_    0.917211 0.805055 0.586869 0.161031
H6    H     H_    0.343082 0.372712 0.887490 0.229212
H7    H     H_    0.184315 0.375692 0.916552 0.229662
H8    H     H_    0.205469 0.377000 0.742450 0.241130
H9    H     H_    0.175991 0.522296 0.824488 0.265452
H10   H     H_    0.332711 0.398368 0.177927 0.279906
H11   H     H_    0.189640 0.532318 0.251726 0.273261
H12   H     H_    0.436120 0.881450 0.296873 0.234157
H13   H     H_    0.171436 0.379968 0.176096 0.230029
H14   H     H_    0.162308 0.522569 0.079028 0.251449
H15   H     H_    0.940183 0.081908 0.438655 0.236108
H16   H     H_    0.946956 0.144914 0.200630 0.241849
H17   H     H_    0.843672 0.231929 0.229999 0.243747
H18   H     H_    0.844996 0.063964 0.246643 0.251718
H19   H     H_    0.540161 0.890873 0.822909 0.211891
H20   H     H_    0.628549 0.882131 0.689223 0.216498
H21   H     H_    0.545273 0.115363 0.818966 0.159618
H22   H     H_    0.614313 0.381276 0.125254 0.157013
H23   H     H_    0.614106 0.380887 0.874766 0.178097
H24   H     H_    0.774103 0.305686 0.442608 0.197935
H25   H     H_    0.085190 0.189665 0.418822 0.165307
N1    N     N_R   0.499390 0.499140 0.142800 -0.115262
N2    N     N_R   0.499390 0.499180 0.857150 -0.119884
N3    N     N_2   0.308796 0.452861 0.859277 -0.266583
N4    N     N_2   0.294882 0.465455 0.129468 -0.307472
N5    N     N_2   0.908408 0.161539 0.403487 -0.293584
O1    O     O_R   0.500010 0.316790 0.614690 -0.615973
O2    O     O_R   0.500000 0.316760 0.385350 -0.589706
O3    O     O_R   0.367850 0.499990 0.614680 -0.582173
O4    O     O_R   0.367840 0.499950 0.385340 -0.611800
O5    O     O_R   0.500000 0.683240 0.614650 -0.597971
O6    O     O_R   0.499990 0.683210 0.385310 -0.607097
O7    O     O_R   0.632160 0.500050 0.614660 -0.603428
O8    O     O_R   0.632150 0.500010 0.385320 -0.624501
Zn1   Zn    Zn3+2 0.500010 0.500020 0.653130 0.991192
Zn2   Zn    Zn3+2 0.499990 0.499980 0.346870 0.989155

loop_
_geom_bond_atom_site_label_1
_geom_bond_atom_site_label_2
_ccdc_geom_bond_type
N2    Zn1   S    
C12   C24   A    
C3    C4    S    
Br1   C14   S    
C25   C26   A    
C16   O6    A    
C31   H17   S    
C32   C33   A    
C1    C7    S    
C1    O1    A    
C6    C11   A    
C26   C27   A    
C32   H25   S    
C29   H8    S    
C5    C35   A    
C16   O5    A    
C31   H18   S    
H6    N3    S    
C13   H20   S    
C37   H5    S    
C15   N1    A    
H10   N4    S    
C28   C34   A    
Br4   C8    S    
C30   N4    S    
C29   N3    S    
C31   N5    S    
C30   H14   S    
O3    Zn1   S    
C17   C18   A    
C17   N1    A    
O2    Zn2   S    
C20   N3    S    
C9    H12   S    
C36   H4    S    
C23   C27   A    
C10   C16   S    
Br3   C21   S    
C20   C21   S    
C35   C36   A    
O8    Zn2   S    
C14   H21   S    
C29   H9    S    
C4    O4    A    
C19   N2    A    
C15   C19   A    
C33   C34   A    
C27   C28   A    
O6    Zn2   S    
C19   C20   S    
H15   N5    S    
C4    O3    A    
C13   C14   S    
C2    C33   A    
C22   O7    A    
C18   N2    A    
C36   C37   A    
C30   H13   S    
C2    H2    S    
Br2   C20   S    
C23   N5    S    
C11   C13   S    
C24   C25   A    
C5    H3    S    
O4    Zn2   S    
O5    Zn1   S    
C7    C8    A    
N1    Zn2   S    
C2    C3    A    
C23   C32   A    
C12   C28   A    
C30   H11   S    
C22   O8    A    
C31   H16   S    
O1    Zn1   S    
C34   C35   A    
C6    C14   S    
C24   H1    S    
O7    Zn1   S    
C1    O2    A    
C15   C21   S    
C17   H22   S    
C26   H24   S    
C6    C7    A    
C13   H19   S    
C18   H23   S    
C3    C5    A    
C8    C9    A    
C22   C25   S    
C29   H7    S    
C10   C11   A    
C21   N4    S    
C9    C10   A    
C12   C37   A    
