data_mof_unit_61529.cif
_audit_creation_date              2012-12-10T19:58:51-0500
_audit_creation_method            fapswitch 2.2
_symmetry_space_group_name_H-M    P1
_symmetry_Int_Tables_number       1
_space_group_crystal_system       triclinic
_cell_length_a                    18.390948
_cell_length_b                    18.390953
_cell_length_c                    22.423719
_cell_angle_alpha                 89.98682
_cell_angle_beta                  90.013175
_cell_angle_gamma                 89.85693
_cell_volume                      7584.28451113

loop_
_atom_site_label
_atom_site_type_symbol
_atom_type_description
_atom_site_fract_x
_atom_site_fract_y
_atom_site_fract_z
_atom_type_partial_charge
Br1   Br    Br    0.725561 0.598545 0.360604 -0.222589
Br2   Br    Br    0.951761 0.175955 0.974005 -0.275512
Br3   Br    Br    0.772403 0.900326 0.859158 -0.224821
Br4   Br    Br    0.057348 0.815826 0.985833 -0.289333
Br5   Br    Br    0.824046 0.048240 0.974006 -0.275512
Br6   Br    Br    0.099680 0.227607 0.859152 -0.224829
Br7   Br    Br    0.184173 0.942650 0.985835 -0.289337
Br8   Br    Br    0.900423 0.773999 0.859842 -0.223119
Br9   Br    Br    0.848784 0.721615 0.360720 -0.372675
Br10  Br    Br    0.392417 0.734807 0.354114 -0.273016
Br11  Br    Br    0.151145 0.278449 0.360717 -0.373280
Br12  Br    Br    0.442638 0.684174 0.485296 -0.288140
Br13  Br    Br    0.607482 0.265297 0.354122 -0.272909
Br14  Br    Br    0.265193 0.607584 0.354114 -0.273016
Br15  Br    Br    0.721561 0.848866 0.360720 -0.373279
Br16  Br    Br    0.734703 0.392519 0.354123 -0.272908
Br17  Br    Br    0.278396 0.151227 0.360717 -0.372675
Br18  Br    Br    0.349848 0.222028 0.860976 -0.370630
Br19  Br    Br    0.882713 0.245000 0.854550 -0.284500
Br20  Br    Br    0.649956 0.776575 0.861316 -0.372122
Br21  Br    Br    0.107012 0.765767 0.854423 -0.272526
Br22  Br    Br    0.755000 0.117286 0.854551 -0.284499
Br23  Br    Br    0.274340 0.401546 0.360611 -0.222676
Br24  Br    Br    0.223435 0.350050 0.861319 -0.372123
Br25  Br    Br    0.234233 0.892991 0.854425 -0.272523
Br26  Br    Br    0.777974 0.650158 0.860974 -0.370632
Br27  Br    Br    0.557374 0.315814 0.485323 -0.287583
Br28  Br    Br    0.315825 0.557362 0.485296 -0.288138
Br29  Br    Br    0.598464 0.725670 0.360603 -0.222686
Br30  Br    Br    0.684185 0.442626 0.485324 -0.287585
Br31  Br    Br    0.401465 0.274450 0.360612 -0.222578
Br32  Br    Br    0.226004 0.099582 0.859839 -0.223123
C1    C     C_R   0.500000 0.000005 0.340091 0.532118
C2    C     C_R   0.859832 0.640027 0.500012 0.546523
C3    C     C_R   0.359943 0.859867 0.500014 0.538106
C4    C     C_R   0.140160 0.359964 0.500015 0.546381
C5    C     C_R   0.359972 0.140168 0.500011 0.546523
C6    C     C_R   0.140133 0.640057 0.500014 0.538107
C7    C     C_R   0.640035 0.859840 0.500015 0.546381
C8    C     C_R   0.859861 0.359940 0.500016 0.538345
C9    C     C_R   0.140057 0.640142 0.000016 0.538359
C10   C     C_R   0.359824 0.140027 0.000001 0.546600
C11   C     C_R   0.859984 0.360015 0.999962 0.535865
C12   C     C_R   0.999995 0.500000 0.340091 0.532118
C13   C     C_R   0.640146 0.859958 0.999997 0.545379
C14   C     C_R   0.859972 0.640176 0.000001 0.546599
C15   C     C_R   0.639985 0.140015 0.999962 0.535865
C16   C     C_R   0.140042 0.359854 0.999998 0.545380
C17   C     C_R   0.359858 0.859943 0.000016 0.538359
C18   C     C_R   0.695583 0.748596 0.457704 0.028362
C19   C     C_R   0.251148 0.696382 0.457219 -0.004187
C20   C     C_R   0.304400 0.251443 0.457706 0.028274
C21   C     C_R   0.748843 0.303628 0.457203 -0.004395
C22   C     C_R   0.303618 0.748852 0.457220 -0.004187
C23   C     C_R   0.999998 0.500005 0.840091 0.533187
C24   C     C_R   0.748561 0.695604 0.457703 0.028275
C25   C     C_R   0.696372 0.251157 0.457203 -0.004395
C26   C     C_R   0.251408 0.304421 0.457707 0.028360
C27   C     C_R   0.195873 0.248958 0.957370 0.028730
C28   C     C_R   0.759038 0.189037 0.967472 -0.004848
C29   C     C_R   0.804117 0.751206 0.957408 0.028607
C30   C     C_R   0.248747 0.803730 0.957271 -0.004090
C31   C     C_R   0.810963 0.240962 0.967472 -0.004848
C32   C     C_R   0.248795 0.195884 0.957407 0.028608
C33   C     C_R   0.196270 0.751253 0.957270 -0.004090
C34   C     C_R   0.499995 0.000002 0.840091 0.533187
C35   C     C_R   0.751043 0.804129 0.957371 0.028729
C36   C     C_R   0.693629 0.801876 0.502104 0.038285
C37   C     C_R   0.193475 0.698062 0.497639 0.035879
C38   C     C_R   0.306388 0.198138 0.502103 0.038283
C39   C     C_R   0.806521 0.301937 0.497642 0.035878
C40   C     C_R   0.301938 0.806525 0.497640 0.035879
C41   C     C_R   0.801862 0.693612 0.502103 0.038284
C42   C     C_R   0.698063 0.193479 0.497642 0.035878
C43   C     C_R   0.198124 0.306371 0.502104 0.038284
C44   C     C_R   0.193650 0.301914 0.002027 0.038054
C45   C     C_R   0.500005 0.000001 0.659925 0.522015
C46   C     C_R   0.694671 0.196444 0.999435 0.037868
C47   C     C_R   0.806387 0.698166 0.002037 0.038153
C48   C     C_R   0.306504 0.801949 0.997637 0.035848
C49   C     C_R   0.803556 0.305329 0.999435 0.037868
C50   C     C_R   0.301834 0.193612 0.002038 0.038153
C51   C     C_R   0.198051 0.693496 0.997636 0.035848
C52   C     C_R   0.698086 0.806349 0.002027 0.038053
C53   C     C_R   0.742267 0.796081 0.550314 -0.123585
C54   C     C_R   0.186174 0.760014 0.534175 -0.126313
C55   C     C_R   0.257767 0.203891 0.550311 -0.123508
C56   C     C_R   0.999999 0.499995 0.659925 0.522015
C57   C     C_R   0.813832 0.239979 0.534193 -0.125813
C58   C     C_R   0.239986 0.813826 0.534175 -0.126314
C59   C     C_R   0.796104 0.742228 0.550313 -0.123507
C60   C     C_R   0.760021 0.186168 0.534193 -0.125812
C61   C     C_R   0.203915 0.257728 0.550311 -0.123585
C62   C     C_R   0.241987 0.295809 0.050409 -0.123950
C63   C     C_R   0.684513 0.261525 0.031809 -0.126561
C64   C     C_R   0.758046 0.704188 0.050405 -0.123778
C65   C     C_R   0.313890 0.739919 0.034093 -0.126144
C66   C     C_R   0.738475 0.315487 0.031809 -0.126562
C67   C     C_R   0.000005 0.500001 0.159925 0.521254
C68   C     C_R   0.295808 0.241950 0.050408 -0.123776
C69   C     C_R   0.260081 0.686110 0.034093 -0.126144
C70   C     C_R   0.704187 0.758009 0.050407 -0.123952
C71   C     C_1   0.999993 0.500000 0.276718 0.045950
C72   C     C_1   0.500000 0.000007 0.276718 0.045950
C73   C     C_1   0.499994 0.000003 0.776718 0.047012
C74   C     C_1   0.999997 0.500006 0.776718 0.047012
C75   C     C_1   0.500008 0.000003 0.723309 0.034946
C76   C     C_1   0.999997 0.499992 0.723309 0.034946
C77   C     C_1   0.000007 0.500001 0.223309 0.034096
C78   C     C_R   0.499999 0.999995 0.159925 0.521254
C79   C     C_1   0.499999 0.999993 0.223309 0.034096
C80   C     C_3   0.753198 0.693695 0.390975 0.297485
C81   C     C_3   0.360309 0.699405 0.431609 0.316833
C82   C     C_3   0.246739 0.306371 0.390978 0.297512
C83   C     C_3   0.639658 0.300630 0.431617 0.316807
C84   C     C_3   0.300595 0.639691 0.431608 0.316834
C85   C     C_3   0.693637 0.753269 0.390975 0.297511
C86   C     C_3   0.699370 0.360342 0.431618 0.316805
C87   C     C_3   0.306313 0.246811 0.390978 0.297486
C88   C     C_3   0.253916 0.194425 0.890689 0.297316
C89   C     C_R   0.640060 0.140138 0.500016 0.538346
C90   C     C_3   0.862555 0.197451 0.930421 0.318396
C91   C     C_3   0.745723 0.805371 0.890646 0.297532
C92   C     C_3   0.139469 0.800820 0.931926 0.316767
C93   C     C_3   0.802550 0.137445 0.930421 0.318397
C94   C     C_3   0.194635 0.254282 0.890644 0.297530
C95   C     C_3   0.199180 0.860531 0.931926 0.316765
C96   C     C_3   0.805578 0.746088 0.890690 0.297315
H1    H     H_    0.740154 0.834262 0.587043 0.169951
H2    H     H_    0.635323 0.270799 0.057265 0.168037
H3    H     H_    0.760423 0.666210 0.087280 0.169865
H4    H     H_    0.359622 0.734059 0.064160 0.169243
H5    H     H_    0.729201 0.364677 0.057265 0.168037
H6    H     H_    0.333784 0.239571 0.087285 0.169864
H7    H     H_    0.265941 0.640378 0.064160 0.169244
H8    H     H_    0.666239 0.760353 0.087289 0.169830
H9    H     H_    0.140512 0.765806 0.564302 0.169152
H10   H     H_    0.259903 0.165686 0.587038 0.169980
H11   H     H_    0.859501 0.234182 0.564333 0.169448
H12   H     H_    0.234194 0.859488 0.564302 0.169151
H13   H     H_    0.834305 0.740088 0.587043 0.169979
H14   H     H_    0.765818 0.140499 0.564333 0.169448
H15   H     H_    0.165729 0.259837 0.587038 0.169951
H16   H     H_    0.239641 0.333755 0.087293 0.169828
O1    O     O_3   0.500000 1.000000 0.500000 -0.485607
O2    O     O_R   0.560750 0.000000 0.867980 -0.499227
O3    O     O_R   1.000000 0.560750 0.867980 -0.501701
O4    O     O_R   0.439250 0.000000 0.867980 -0.501701
O5    O     O_R   0.560720 0.000000 0.632020 -0.524663
O6    O     O_R   0.000000 0.560720 0.632020 -0.525213
O7    O     O_R   0.439280 0.000000 0.632020 -0.525213
O8    O     O_R   1.000000 0.439280 0.632020 -0.524662
O9    O     O_R   0.060720 0.500000 0.132020 -0.525303
O10   O     O_R   0.500000 0.060720 0.132020 -0.525136
O11   O     O_R   0.939280 0.500000 0.132020 -0.525135
O12   O     O_3   1.000000 0.500000 0.500000 -0.485607
O13   O     O_R   0.500000 0.939280 0.132020 -0.525302
O14   O     O_R   0.585450 0.146130 0.465380 -0.491452
O15   O     O_R   0.853870 0.585450 0.465380 -0.483319
O16   O     O_R   0.414550 0.853870 0.465380 -0.491359
O17   O     O_R   0.146130 0.414550 0.465380 -0.483312
O18   O     O_R   0.414550 0.146130 0.465380 -0.483319
O19   O     O_R   0.146130 0.585450 0.465380 -0.491359
O20   O     O_R   0.585450 0.853870 0.465380 -0.483312
O21   O     O_R   0.853870 0.414550 0.465380 -0.491453
O22   O     O_R   0.085450 0.646130 0.965380 -0.491479
O23   O     O_3   0.000000 0.500000 0.000000 -0.485635
O24   O     O_R   0.353870 0.085450 0.965380 -0.483285
O25   O     O_R   0.914550 0.353870 0.965380 -0.491724
O26   O     O_R   0.646130 0.914550 0.965380 -0.484729
O27   O     O_R   0.914550 0.646130 0.965380 -0.483285
O28   O     O_R   0.646130 0.085450 0.965380 -0.491724
O29   O     O_R   0.085450 0.353870 0.965380 -0.484729
O30   O     O_R   0.353870 0.914550 0.965380 -0.491480
O31   O     O_R   0.353850 0.914510 0.534610 -0.547379
O32   O     O_R   0.085490 0.353850 0.534610 -0.546345
O33   O     O_R   0.646150 0.085490 0.534610 -0.547104
O34   O     O_3   0.500000 0.000000 0.000000 -0.485634
O35   O     O_R   0.914510 0.646150 0.534610 -0.546221
O36   O     O_R   0.646150 0.914510 0.534610 -0.546343
O37   O     O_R   0.914510 0.353850 0.534610 -0.547105
O38   O     O_R   0.353850 0.085490 0.534610 -0.546223
O39   O     O_R   0.085490 0.646150 0.534610 -0.547378
O40   O     O_R   0.853850 0.414510 0.034610 -0.547598
O41   O     O_R   0.585490 0.853850 0.034610 -0.546116
O42   O     O_R   0.146150 0.585490 0.034610 -0.547071
O43   O     O_R   0.414510 0.146150 0.034610 -0.546014
O44   O     O_R   0.146150 0.414510 0.034610 -0.546115
O45   O     O_R   0.500000 0.939250 0.367980 -0.501321
O46   O     O_R   0.414510 0.853850 0.034610 -0.547072
O47   O     O_R   0.853850 0.585490 0.034610 -0.546015
O48   O     O_R   0.585490 0.146150 0.034610 -0.547597
O49   O     O_R   0.060750 0.500000 0.367980 -0.501321
O50   O     O_R   0.500000 0.060750 0.367980 -0.501434
O51   O     O_R   0.939250 0.500000 0.367980 -0.501434
O52   O     O_R   1.000000 0.439250 0.867980 -0.499227
Zn1   Zn    Zn3+2 0.586760 1.000000 0.549450 0.984862
Zn2   Zn    Zn3+2 0.913280 0.500000 0.450540 1.055722
Zn3   Zn    Zn3+2 0.500000 0.913280 0.450540 1.055608
Zn4   Zn    Zn3+2 0.086720 0.500000 0.450540 1.055608
Zn5   Zn    Zn3+2 1.000000 0.586720 0.950540 1.056161
Zn6   Zn    Zn3+2 0.413280 0.000000 0.950540 1.056161
Zn7   Zn    Zn3+2 1.000000 0.413280 0.950540 1.055560
Zn8   Zn    Zn3+2 0.586720 0.000000 0.950540 1.055561
Zn9   Zn    Zn3+2 1.000000 0.586760 0.549450 0.984412
Zn10  Zn    Zn3+2 0.413240 1.000000 0.549450 0.984410
Zn11  Zn    Zn3+2 1.000000 0.413240 0.549450 0.984860
Zn12  Zn    Zn3+2 0.086760 0.500000 0.049450 0.983658
Zn13  Zn    Zn3+2 0.500000 0.086760 0.049450 0.983869
Zn14  Zn    Zn3+2 0.913240 0.500000 0.049450 0.983868
Zn15  Zn    Zn3+2 0.500000 0.913240 0.049450 0.983657
Zn16  Zn    Zn3+2 0.500000 0.086720 0.450540 1.055722

loop_
_geom_bond_atom_site_label_1
_geom_bond_atom_site_label_2
_ccdc_geom_bond_type
C10   O43   A    
O35   Zn9   S    
Br19  C90   S    
C8    C39   S    
C64   C70   A    
C48   C65   A    
C18   C85   S    
C52   C70   A    
C7    C36   S    
C16   C44   S    
O8    Zn11  S    
C10   C50   S    
O1    Zn16  S    
C14   O47   A    
C13   O26   A    
C45   O7    A    
C15   O28   A    
C53   C59   A    
C63   C66   A    
O4    Zn6   S    
C25   C83   S    
C27   C94   S    
C73   C75   T    
C66   H5    S    
C28   C46   A    
C12   O49   A    
O18   Zn16  S    
C31   C49   A    
C28   C31   A    
O32   Zn11  S    
C30   C48   A    
C28   C93   S    
O37   Zn11  S    
Br12  C81   S    
O10   Zn13  S    
O34   Zn8   S    
O17   Zn4   S    
Br1   C80   S    
C80   C85   S    
C56   C76   S    
C88   C94   S    
C33   C51   A    
C49   C66   A    
C9    C51   S    
C22   C81   S    
C55   C61   A    
C11   O40   A    
O30   Zn6   S    
C14   O27   A    
Br4   C92   S    
C1    O45   A    
C33   C92   S    
C42   C60   A    
C15   O48   A    
O28   Zn8   S    
O12   Zn11  S    
C3    O16   A    
C17   O30   A    
Br20  C91   S    
O2    Zn8   S    
O36   Zn1   S    
Br28  C84   S    
C54   H9    S    
C53   H1    S    
C78   C79   S    
Br8   C96   S    
O15   Zn2   S    
Br27  C83   S    
O43   Zn13  S    
C68   H6    S    
C55   H10   S    
C57   H11   S    
C67   O11   A    
C9    O42   A    
C63   H2    S    
O41   Zn15  S    
O23   Zn7   S    
C60   H14   S    
C1    O50   A    
O26   Zn8   S    
C82   C87   S    
C61   H15   S    
O20   Zn3   S    
O51   Zn2   S    
C44   C62   A    
C2    O15   A    
O45   Zn3   S    
Br9   C80   S    
Br2   C90   S    
C23   O52   A    
C6    C37   S    
C35   C52   A    
O33   Zn1   S    
C5    C38   S    
Br24  C94   S    
C36   C53   A    
C56   O8    A    
C2    O35   A    
O12   Zn4   S    
C56   O6    A    
Br32  C88   S    
C38   C55   A    
O1    Zn10  S    
C12   C71   S    
Br3   C91   S    
C26   C43   A    
C7    O36   A    
O16   Zn3   S    
C69   H7    S    
C90   C93   S    
O14   Zn16  S    
C23   C74   S    
C41   C59   A    
C45   C75   S    
Br6   C94   S    
C54   C58   A    
C45   O5    A    
C21   C25   A    
C21   C86   S    
Br22  C93   S    
C89   O33   A    
C17   O46   A    
Br30  C86   S    
Br14  C84   S    
Br29  C85   S    
C18   C24   A    
C6    O39   A    
Br15  C85   S    
O34   Zn13  S    
O38   Zn10  S    
O22   Zn5   S    
C25   C42   A    
O27   Zn5   S    
O46   Zn15  S    
O1    Zn1   S    
C78   O10   A    
C4    C43   S    
Br16  C86   S    
O25   Zn7   S    
O9    Zn12  S    
C40   C58   A    
C29   C35   A    
C23   O3    A    
C39   C57   A    
C62   C68   A    
C46   C63   A    
C83   C86   S    
Br31  C87   S    
C9    O22   A    
C27   C32   A    
C16   O44   A    
Br26  C96   S    
C15   C46   S    
C57   C60   A    
O40   Zn14  S    
O12   Zn9   S    
C78   O13   A    
C32   C50   A    
C8    O21   A    
Br13  C83   S    
Br10  C81   S    
C20   C26   A    
C64   H3    S    
C6    O19   A    
O19   Zn4   S    
O13   Zn15  S    
C89   O14   A    
C11   O25   A    
C4    O17   A    
O39   Zn9   S    
C10   O24   A    
C4    O32   A    
C34   C73   S    
Br5   C93   S    
C21   C39   A    
Br18  C88   S    
C31   C90   S    
C43   C61   A    
C8    O37   A    
C65   H4    S    
O44   Zn12  S    
C12   O51   A    
C24   C41   A    
C51   C69   A    
C30   C33   A    
C34   O4    A    
O23   Zn14  S    
O11   Zn14  S    
O12   Zn2   S    
O29   Zn7   S    
O6    Zn9   S    
C35   C91   S    
C3    C40   S    
C72   C79   T    
C58   H12   S    
O1    Zn3   S    
O42   Zn12  S    
O49   Zn4   S    
C19   C84   S    
C32   C88   S    
C17   C48   S    
O3    Zn5   S    
C71   C77   T    
C19   C22   A    
O52   Zn7   S    
O23   Zn12  S    
C81   C84   S    
Br21  C92   S    
O34   Zn6   S    
Br25  C95   S    
C3    O31   A    
C47   C64   A    
O21   Zn2   S    
Br23  C82   S    
C13   O41   A    
C91   C96   S    
C14   C47   S    
C74   C76   T    
C29   C47   A    
C11   C49   S    
C5    O38   A    
C67   O9    A    
C1    C72   S    
C50   C68   A    
C62   H16   S    
O24   Zn6   S    
O34   Zn15  S    
C16   O29   A    
C29   C96   S    
O23   Zn5   S    
O7    Zn10  S    
C70   H8    S    
O48   Zn13  S    
C34   O2    A    
C20   C38   A    
Br17  C87   S    
C2    C41   S    
O50   Zn16  S    
C13   C52   S    
C20   C87   S    
C30   C95   S    
C42   C89   S    
C22   C40   A    
O47   Zn14  S    
C92   C95   S    
C26   C82   S    
C19   C37   A    
O31   Zn10  S    
Br7   C95   S    
C7    O20   A    
C18   C36   A    
C27   C44   A    
C24   C80   S    
C65   C69   A    
C37   C54   A    
Br11  C82   S    
O5    Zn1   S    
C5    O18   A    
C59   H13   S    
C67   C77   S    
