data_mof_unit_61852.cif
_audit_creation_date              2012-10-26T20:53:12-0400
_audit_creation_method            fapswitch 2.2
_symmetry_space_group_name_H-M    P1
_symmetry_Int_Tables_number       1
_space_group_crystal_system       triclinic
_cell_length_a                    14.768608
_cell_length_b                    15.995756
_cell_length_c                    17.126245
_cell_angle_alpha                 89.572184
_cell_angle_beta                  93.540245
_cell_angle_gamma                 90.036363
_cell_volume                      4037.98596216

loop_
_atom_site_label
_atom_site_type_symbol
_atom_type_description
_atom_site_fract_x
_atom_site_fract_y
_atom_site_fract_z
_atom_type_partial_charge
C1    C     C_R   0.499957 0.340846 0.499960 0.551074
C2    C     C_1   0.500083 0.748275 0.500076 0.014215
C3    C     C_R   0.946826 0.499171 0.429020 0.229413
C4    C     C_R   0.053174 0.500828 0.570980 0.229414
C5    C     C_R   0.902860 0.499982 0.499999 -0.064070
C6    C     C_R   0.097140 0.500018 0.500001 -0.064071
C7    C     C_R   0.956994 0.500799 0.570978 0.220013
C8    C     C_R   0.043006 0.499200 0.429022 0.220013
C9    C     C_1   0.802601 0.500000 0.500005 0.283045
C10   C     C_1   0.197399 0.500000 0.499995 0.283048
C11   C     C_R   0.510776 0.501077 0.651141 0.567145
C12   C     C_R   0.500043 0.659154 0.500040 0.551068
C13   C     C_R   0.489224 0.498923 0.348859 0.567150
C14   C     C_R   0.516332 0.502273 0.736832 0.011531
C15   C     C_R   0.483668 0.497730 0.263169 0.011538
C16   C     C_R   0.448145 0.540106 0.778807 0.212583
C17   C     C_R   0.551846 0.459884 0.221193 0.212584
C18   C     C_R   0.453497 0.536064 0.860162 -0.031885
C19   C     C_R   0.546496 0.463928 0.139838 -0.031883
C20   C     C_R   0.526563 0.494830 0.900927 0.189443
C21   C     C_R   0.473440 0.505178 0.099074 0.189446
C22   C     C_R   0.595240 0.459991 0.859093 -0.096861
C23   C     C_R   0.500047 0.912783 0.500060 0.037861
C24   C     C_R   0.404770 0.540030 0.140909 -0.096859
C25   C     C_R   0.590412 0.463667 0.777728 -0.167074
C26   C     C_R   0.409597 0.536351 0.222273 -0.167072
C27   C     C_R   0.578427 0.956581 0.482537 -0.090249
C28   C     C_R   0.421573 0.043419 0.517463 -0.090249
C29   C     C_R   0.499952 0.087217 0.499940 0.037861
C30   C     C_R   0.421621 0.956169 0.517522 -0.086606
C31   C     C_R   0.578379 0.043831 0.482477 -0.086605
C32   C     C_1   0.500080 0.823326 0.500083 -0.029215
C33   C     C_1   0.499920 0.176674 0.499916 -0.029212
C34   C     C_1   0.499917 0.251725 0.499923 0.014221
Cl1   Cl    Cl    0.643258 0.403491 0.267047 -0.480479
Cl2   Cl    Cl    0.356720 0.596481 0.732954 -0.480463
Cl3   Cl    Cl    0.095870 0.498225 0.339261 -0.472247
Cl4   Cl    Cl    0.904130 0.501774 0.660739 -0.472253
Cl5   Cl    Cl    0.881114 0.498103 0.339259 -0.404074
Cl6   Cl    Cl    0.118886 0.501895 0.660740 -0.404061
Cu1   Cu    Cu3+1 0.589220 0.500000 0.499980 1.110459
Cu2   Cu    Cu3+1 0.410780 0.500000 0.500020 1.110462
H1    H     H_    0.599536 0.434494 0.108842 0.185658
H2    H     H_    0.360662 0.076657 0.531030 0.135348
H3    H     H_    0.400450 0.565487 0.891158 0.185661
H4    H     H_    0.652161 0.428825 0.889768 0.163956
H5    H     H_    0.347856 0.571207 0.110233 0.163952
H6    H     H_    0.639257 0.077389 0.468873 0.140029
H7    H     H_    0.360743 0.922611 0.531127 0.140027
H8    H     H_    0.643711 0.434649 0.746668 0.170560
H9    H     H_    0.356304 0.565379 0.253334 0.170548
H10   H     H_    0.639338 0.923343 0.468969 0.135348
N1    N     N_2   0.533813 0.487182 0.983593 -0.225077
N2    N     N_2   0.466191 0.512827 0.016409 -0.225080
N3    N     N_1   0.276710 0.499980 0.499980 -0.148548
N4    N     N_1   0.723290 0.500020 0.500020 -0.148551
O1    O     O_R   0.575320 0.380310 0.499960 -0.481820
O2    O     O_R   0.424680 0.619690 0.500040 -0.481825
O3    O     O_R   0.424640 0.380310 0.500000 -0.497335
O4    O     O_R   0.575360 0.619690 0.500000 -0.497337
O5    O     O_R   0.583590 0.499240 0.613900 -0.507515
O6    O     O_R   0.416410 0.500760 0.386100 -0.507511
O7    O     O_R   0.432900 0.499240 0.613940 -0.439291
O8    O     O_R   0.567100 0.500760 0.386060 -0.439295

loop_
_geom_bond_atom_site_label_1
_geom_bond_atom_site_label_2
_ccdc_geom_bond_type
Cu2   O3    S    
C6    C10   S    
C28   H2    S    
C23   C30   A    
Cu1   N4    S    
C5    C9    S    
C23   C27   A    
Cu2   N3    S    
C19   H1    S    
C5    C7    A    
Cu1   Cu2   S    
Cu2   O6    S    
C11   O7    A    
C3    Cl5   S    
Cu1   O5    S    
C12   O2    A    
C23   C32   S    
Cu2   O2    S    
C28   C30   A    
C33   C34   T    
Cu1   O1    S    
C29   C31   A    
C9    N4    T    
C26   H9    S    
C16   Cl2   S    
C10   N3    T    
C1    O3    A    
C13   O8    A    
C11   O5    A    
C4    C7    A    
C2    C32   T    
C28   C29   A    
C19   C21   A    
C7    Cl4   S    
C24   C26   A    
C1    C34   S    
C3    C8    A    
C18   C20   A    
C31   H6    S    
C13   C15   S    
C14   C25   A    
C21   N2    S    
C11   C14   S    
C14   C16   A    
C8    Cl3   S    
C27   C31   A    
C12   O4    A    
C18   H3    S    
C29   C33   S    
C27   H10   S    
C4    C6    A    
C2    C12   S    
C21   C24   A    
C15   C17   A    
C25   H8    S    
C17   C19   A    
C15   C26   A    
C6    C8    A    
C17   Cl1   S    
Cu1   O8    S    
C22   H4    S    
N1    N2    D    
C24   H5    S    
Cu2   O7    S    
C30   H7    S    
C16   C18   A    
C13   O6    A    
C4    Cl6   S    
Cu1   O4    S    
C20   C22   A    
C20   N1    S    
C3    C5    A    
C22   C25   A    
C1    O1    A    
