data_mof_unit_46168.cif
_audit_creation_date              2012-10-26T17:10:31-0400
_audit_creation_method            fapswitch 2.2
_symmetry_space_group_name_H-M    P1
_symmetry_Int_Tables_number       1
_space_group_crystal_system       triclinic
_cell_length_a                    16.802491
_cell_length_b                    16.73626
_cell_length_c                    16.814444
_cell_angle_alpha                 67.599089
_cell_angle_beta                  67.389938
_cell_angle_gamma                 67.620069
_cell_volume                      3880.65130071

loop_
_atom_site_label
_atom_site_type_symbol
_atom_type_description
_atom_site_fract_x
_atom_site_fract_y
_atom_site_fract_z
_atom_type_partial_charge
C1    C     C_R   0.594746 0.019454 0.598898 -0.176702
C2    C     C_R   0.171667 0.434959 0.972991 0.869772
C3    C     C_R   0.564630 0.028941 0.828607 0.834010
C4    C     C_R   0.435231 0.971434 0.171365 0.877919
C5    C     C_R   0.430611 0.168922 0.985488 0.846221
C6    C     C_R   0.564410 0.828475 0.029400 0.848711
C7    C     C_R   0.985394 0.430548 0.168911 0.847214
C8    C     C_R   0.029415 0.564531 0.828418 0.845967
C9    C     C_R   0.168719 0.984936 0.430432 0.851700
C10   C     C_R   0.831178 0.015252 0.569485 0.847537
C11   C     C_R   0.543624 0.012641 0.548620 0.199716
C12   C     C_R   0.404029 0.984626 0.399661 -0.161963
C13   C     C_R   0.454521 0.992480 0.449919 0.174468
C14   C     C_R   0.062293 0.528039 0.538331 0.146575
C15   C     C_R   0.018048 0.441412 0.451741 0.184797
C16   C     C_R   0.528399 0.537786 0.062792 0.153971
C17   C     C_R   0.439903 0.453639 0.017959 0.167529
C18   C     C_R   0.549473 0.064908 0.459641 -0.033424
C19   C     C_R   0.448911 0.940090 0.538772 -0.069789
C20   C     C_R   0.122126 0.449338 0.514887 -0.040235
C21   C     C_R   0.959470 0.521650 0.471507 -0.075790
C22   C     C_R   0.450729 0.513065 0.123637 -0.025677
C23   C     C_R   0.082595 0.577828 0.582883 -0.152157
C24   C     C_R   0.519280 0.474504 0.958364 -0.060886
C25   C     C_R   0.504968 0.054982 0.410506 -0.022871
C26   C     C_R   0.492980 0.950344 0.588034 -0.009223
C27   C     C_R   0.405098 0.474672 0.100108 -0.118195
C28   C     C_R   0.561801 0.517980 0.979701 -0.085488
C29   C     C_R   0.098775 0.404691 0.475259 -0.033332
C30   C     C_R   0.980442 0.563254 0.516145 -0.081200
C31   C     C_R   0.549795 0.049060 0.677263 0.350676
C32   C     C_R   0.449508 0.953710 0.322092 0.386374
C33   C     C_R   0.074869 0.670900 0.543150 0.288875
C34   C     C_R   0.997650 0.397955 0.402205 -0.183311
C35   C     C_R   0.965111 0.321078 0.448991 0.401577
C36   C     C_R   0.671256 0.542635 0.074502 0.287463
C37   C     C_R   0.320026 0.449689 0.965864 0.339414
C38   C     C_R   0.309295 0.009595 0.428366 0.245762
C39   C     C_R   0.689486 0.993538 0.570142 0.339070
C40   C     C_R   0.428964 0.308466 0.015559 0.277972
C41   C     C_R   0.540594 0.672682 0.086415 0.373378
C42   C     C_R   0.015513 0.429573 0.307504 0.279024
C43   C     C_R   0.085837 0.540261 0.673119 0.377006
C44   C     C_R   0.601352 0.040643 0.731196 -0.158824
C45   C     C_R   0.578297 0.582221 0.082947 -0.158195
C46   C     C_R   0.398403 0.960221 0.268647 -0.142964
C47   C     C_R   0.046191 0.728696 0.599034 -0.141874
C48   C     C_R   0.964678 0.269243 0.398873 -0.156301
C49   C     C_R   0.728738 0.598902 0.046362 -0.152878
C50   C     C_R   0.268801 0.398735 0.965664 -0.131946
C51   C     C_R   0.263130 0.985874 0.389397 -0.165460
C52   C     C_R   0.736493 0.014991 0.610170 -0.167703
C53   C     C_R   0.390296 0.263492 0.988773 -0.159861
C54   C     C_R   0.598123 0.729457 0.050750 -0.153858
C55   C     C_R   0.988273 0.390524 0.263293 -0.151275
C56   C     C_R   0.396740 0.403463 0.998013 -0.173234
C57   C     C_R   0.050477 0.598159 0.729561 -0.158085
C58   C     C_R   0.692653 0.032997 0.693129 -0.305219
C59   C     C_R   0.307352 0.966736 0.306972 -0.265349
C60   C     C_R   0.030385 0.691105 0.691570 -0.315000
C61   C     C_R   0.968164 0.308482 0.308720 -0.305600
C62   C     C_R   0.690937 0.691622 0.030845 -0.315181
C63   C     C_R   0.308253 0.308287 0.969411 -0.277978
C64   C     C_R   0.027510 0.828218 0.564991 0.846918
C65   C     C_R   0.972621 0.171680 0.435188 0.847199
C66   C     C_R   0.828144 0.565062 0.027588 0.828203
Cu1   Cu    Cu3+1 0.995180 0.995180 0.424630 1.166825
Cu2   Cu    Cu3+1 0.004820 0.004820 0.575370 1.124770
Cu3   Cu    Cu3+1 0.995180 0.424630 0.995180 1.151707
Cu4   Cu    Cu3+1 0.004820 0.575370 0.004820 1.169180
Cu5   Cu    Cu3+1 0.424630 0.995180 0.995180 1.147748
Cu6   Cu    Cu3+1 0.575370 0.004820 0.004820 1.148996
H1    H     H_    0.489293 0.908544 0.656154 0.157449
H2    H     H_    0.426429 0.519647 0.190565 0.196906
H3    H     H_    0.897109 0.551324 0.453297 0.146139
H4    H     H_    0.188212 0.423285 0.523512 0.196387
H5    H     H_    0.730625 0.037368 0.730098 0.220630
H6    H     H_    0.269870 0.960670 0.270567 0.229044
H7    H     H_    0.002978 0.735018 0.734880 0.206636
H8    H     H_    0.958444 0.272991 0.272572 0.223199
H9    H     H_    0.734627 0.735191 0.003583 0.206566
H10   H     H_    0.273078 0.271579 0.959998 0.226424
H11   H     H_    0.335178 0.186729 0.628677 0.406912
H12   H     H_    0.508787 0.096606 0.342301 0.196988
H13   H     H_    0.686746 0.946763 0.229858 0.388632
H14   H     H_    0.228605 0.599061 0.398676 0.366024
H15   H     H_    0.978678 0.213989 0.679488 0.384810
H16   H     H_    0.599225 0.397720 0.226099 0.352958
H17   H     H_    0.259989 0.612941 0.037915 0.368066
H18   H     H_    0.247947 0.956406 0.608116 0.326981
H19   H     H_    0.724136 0.824541 0.460912 0.403000
H20   H     H_    0.624444 0.277247 0.964722 0.348235
H21   H     H_    0.299228 0.712661 0.146119 0.401210
H22   H     H_    0.969579 0.625730 0.273554 0.348255
H23   H     H_    0.933116 0.624205 0.532261 0.161874
H24   H     H_    0.146704 0.297856 0.714018 0.388393
H25   H     H_    0.145854 0.344003 0.458332 0.185939
H26   H     H_    0.621984 0.535099 0.931654 0.145156
H27   H     H_    0.345399 0.456412 0.148104 0.183569
H28   H     H_    0.410746 0.891136 0.569583 0.135084
H29   H     H_    0.588583 0.113078 0.428533 0.165490
H30   H     H_    0.547717 0.457786 0.895087 0.147380
O1    O     O_R   0.124540 0.978640 0.385460 -0.573208
O2    O     O_R   0.124540 0.385460 0.978640 -0.580715
O3    O     O_R   0.021360 0.875460 0.614540 -0.607333
O4    O     O_R   0.978640 0.124540 0.385460 -0.603704
O5    O     O_R   0.013780 0.867370 0.487190 -0.485840
O6    O     O_R   0.986220 0.132630 0.512810 -0.487003
O7    O     O_R   0.867370 0.487190 0.013780 -0.515422
O8    O     O_R   0.132630 0.512810 0.986220 -0.490866
O9    O     O_R   0.487190 0.013780 0.867370 -0.522215
O10   O     O_R   0.512810 0.986220 0.132630 -0.496951
O11   O     O_R   0.512810 0.132630 0.986220 -0.511482
O12   O     O_R   0.875460 0.021360 0.614540 -0.590575
O13   O     O_R   0.487190 0.867370 0.013780 -0.532352
O14   O     O_R   0.986220 0.512810 0.132630 -0.510346
O15   O     O_R   0.013780 0.487190 0.867370 -0.532328
O16   O     O_R   0.132630 0.986220 0.512810 -0.542777
O17   O     O_R   0.867370 0.013780 0.487190 -0.516647
O18   O     O_2   0.382000 0.032617 0.757009 -0.267831
O19   O     O_2   0.408680 0.167490 0.755726 -0.253250
O20   O     O_3   0.400709 0.160030 0.608292 -0.493331
O21   O     O_2   0.594714 0.850472 0.381820 -0.278404
O22   O     O_2   0.591639 0.835272 0.244454 -0.267067
O23   O     O_R   0.978640 0.385460 0.124540 -0.578568
O24   O     O_3   0.622596 0.979643 0.236108 -0.476611
O25   O     O_2   0.030313 0.756872 0.388436 -0.204051
O26   O     O_2   0.166225 0.773471 0.394990 -0.262710
O27   O     O_3   0.173737 0.623462 0.378424 -0.462117
O28   O     O_2   0.879856 0.376366 0.600523 -0.282717
O29   O     O_2   0.851779 0.244633 0.599008 -0.278345
O30   O     O_3   0.006682 0.227035 0.613903 -0.457757
O31   O     O_2   0.757650 0.388350 0.027561 -0.225800
O32   O     O_2   0.773714 0.393686 0.164139 -0.275109
O33   O     O_3   0.624495 0.376960 0.171283 -0.452188
O34   O     O_R   0.021360 0.614540 0.875460 -0.583834
O35   O     O_2   0.374919 0.602407 0.879727 -0.283779
O36   O     O_2   0.247748 0.596873 0.848538 -0.233232
O37   O     O_3   0.222177 0.618758 0.002028 -0.428457
O38   O     O_2   0.306607 0.134971 0.496348 -0.257714
O39   O     O_2   0.167651 0.145824 0.474664 -0.257470
O40   O     O_3   0.218575 0.019977 0.608647 -0.446578
O41   O     O_2   0.770462 0.983708 0.400120 -0.249360
O42   O     O_2   0.831925 0.860314 0.516826 -0.292975
O43   O     O_3   0.684418 0.863727 0.500709 -0.517386
O44   O     O_2   0.517202 0.296550 0.130213 -0.234966
O45   O     O_R   0.385460 0.124540 0.978640 -0.580828
O46   O     O_2   0.488501 0.161352 0.140765 -0.253074
O47   O     O_3   0.612876 0.218918 0.003944 -0.453933
O48   O     O_2   0.414216 0.635802 0.241295 -0.298263
O49   O     O_2   0.406212 0.793003 0.173169 -0.255362
O50   O     O_3   0.356760 0.715800 0.099125 -0.514606
O51   O     O_2   0.133285 0.515270 0.294584 -0.257168
O52   O     O_2   0.143037 0.485332 0.160805 -0.275261
O53   O     O_3   0.008775 0.612911 0.215849 -0.449662
O54   O     O_2   0.241272 0.414963 0.635705 -0.290358
O55   O     O_2   0.172955 0.406512 0.792590 -0.260407
O56   O     O_R   0.614540 0.875460 0.021360 -0.584229
O57   O     O_3   0.099588 0.355463 0.716290 -0.509743
O58   O     O_R   0.614540 0.021360 0.875460 -0.600351
O59   O     O_R   0.385460 0.978640 0.124540 -0.581294
O60   O     O_R   0.875460 0.614540 0.021360 -0.596184
S1    S     S_3+6 0.432125 0.102617 0.702938 0.043880
S2    S     S_3+6 0.427686 0.706045 0.152825 0.035861
S3    S     S_3+6 0.078902 0.510474 0.244408 0.042304
S4    S     S_3+6 0.152723 0.427568 0.706144 0.029321
S5    S     S_3+6 0.567244 0.900769 0.296838 0.042302
S6    S     S_3+6 0.110928 0.709481 0.423773 0.067644
S7    S     S_3+6 0.921977 0.293208 0.568436 0.043824
S8    S     S_3+6 0.710076 0.422941 0.108974 0.057432
S9    S     S_3+6 0.292537 0.569293 0.920662 0.065719
S10   S     S_3+6 0.249852 0.081085 0.501764 0.051013
S11   S     S_3+6 0.747390 0.924761 0.494284 0.021578
S12   S     S_3+6 0.511540 0.246050 0.076412 0.059669

loop_
_geom_bond_atom_site_label_1
_geom_bond_atom_site_label_2
_ccdc_geom_bond_type
C16   C28   A    
Cu5   O45   S    
Cu6   O10   S    
C60   H7    S    
C5    O45   A    
C46   C59   A    
C8    O34   A    
C34   C42   A    
C7    C55   S    
C39   S11   S    
C10   C52   S    
Cu1   O1    S    
C64   O3    A    
C11   C18   A    
C4    C46   S    
C27   H27   S    
C5    C53   S    
C14   C30   A    
C34   C35   A    
C8    C57   S    
Cu3   O2    S    
O28   S7    D    
O19   S1    D    
C55   C61   A    
C1    C31   A    
C26   H1    S    
Cu6   O56   S    
C20   H4    S    
O47   S12   S    
O33   S8    S    
C19   C26   A    
C66   O7    A    
C10   O17   A    
Cu4   O8    S    
C58   H5    S    
Cu2   O16   S    
C47   C60   A    
C37   C56   A    
Cu3   O7    S    
O29   S7    D    
C44   C58   A    
O25   S6    D    
C40   C56   A    
Cu5   O9    S    
O42   S11   D    
C25   H12   S    
O52   S3    D    
O37   S9    S    
C2    O2    A    
C48   C65   S    
C2    C50   S    
C15   C34   S    
O18   S1    D    
C42   S3    S    
O21   S5    D    
C39   C52   A    
C4    O10   A    
Cu3   O23   S    
O38   S10   D    
C12   C32   A    
Cu4   O34   S    
C9    O16   A    
C13   C25   A    
H13   O24   S    
C18   C25   A    
C6    C54   S    
C35   C48   A    
Cu4   O60   S    
C59   H6    S    
C6    O56   A    
C14   C23   S    
C8    O15   A    
C15   C29   A    
C50   C63   A    
C20   C29   A    
C41   C54   A    
C31   S1    S    
C3    C44   S    
C17   C24   A    
C49   C66   S    
C13   C19   A    
C63   H10   S    
Cu1   Cu2   S    
C17   C27   A    
C14   C20   A    
O24   S5    S    
C31   C44   A    
O40   S10   S    
C3    O9    A    
C47   C64   S    
C1    C39   A    
H22   O53   S    
C57   C60   A    
C38   C51   A    
C54   C62   A    
C11   C26   A    
C23   C33   A    
Cu6   O11   S    
O39   S10   D    
O46   S12   D    
O20   S1    S    
C18   H29   S    
C7    O14   A    
O55   S4    D    
O31   S8    D    
C30   H23   S    
C42   C55   A    
O22   S5    D    
O54   S4    D    
C9    O1    A    
Cu5   O13   S    
C36   C45   A    
H14   O27   S    
C65   O6    A    
O50   S2    S    
C7    O23   A    
C17   C56   S    
H18   O40   S    
C52   C58   A    
C62   H9    S    
O43   S11   S    
O49   S2    D    
C22   C27   A    
O32   S8    D    
C3    O58   A    
C35   S7    S    
C32   S5    S    
C66   O60   A    
C51   C59   A    
Cu2   O3    S    
O41   S11   D    
C65   O4    A    
H19   O43   S    
C64   O5    A    
H17   O37   S    
C43   S4    S    
C28   H26   S    
C2    O8    A    
C16   C22   A    
C49   C62   A    
Cu5   O59   S    
O27   S6    S    
C5    O11   A    
O36   S9    D    
C23   C43   A    
C32   C46   A    
C24   C28   A    
H16   O33   S    
C10   O12   A    
C16   C45   S    
C37   S9    S    
C19   H28   S    
Cu1   O4    S    
C38   S10   S    
O48   S2    D    
C21   C30   A    
C21   H3    S    
C36   S8    S    
Cu6   O58   S    
O57   S4    S    
C29   H25   S    
Cu4   O14   S    
C9    C51   S    
Cu5   Cu6   S    
C41   C45   A    
C40   S12   S    
C37   C50   A    
C53   C63   A    
Cu1   O5    S    
C48   C61   A    
O53   S3    S    
C33   C47   A    
O44   S12   D    
Cu3   O15   S    
H15   O30   S    
C24   H30   S    
H11   O20   S    
C12   C38   A    
Cu3   Cu4   S    
Cu2   O6    S    
C6    O13   A    
O35   S9    D    
C43   C57   A    
C33   S6    S    
C15   C21   A    
H24   O57   S    
C12   C13   S    
C40   C53   A    
O30   S7    S    
C41   S2    S    
O51   S3    D    
H20   O47   S    
O26   S6    D    
C22   H2    S    
C4    O59   A    
H21   O50   S    
C1    C11   S    
C61   H8    S    
Cu1   O17   S    
C36   C49   A    
Cu2   O12   S    
