data_mof_unit_60355.cif
_audit_creation_date              2012-12-10T19:31:18-0500
_audit_creation_method            fapswitch 2.2
_symmetry_space_group_name_H-M    P1
_symmetry_Int_Tables_number       1
_space_group_crystal_system       triclinic
_cell_length_a                    30.574636
_cell_length_b                    29.081086
_cell_length_c                    31.097661
_cell_angle_alpha                 89.805492
_cell_angle_beta                  89.99113
_cell_angle_gamma                 89.867496
_cell_volume                      27650.0532728

loop_
_atom_site_label
_atom_site_type_symbol
_atom_type_description
_atom_site_fract_x
_atom_site_fract_y
_atom_site_fract_z
_atom_type_partial_charge
C1    C     C_R   0.309613 0.998029 0.689997 0.932228
C2    C     C_R   0.634846 0.004620 0.580834 0.070605
C3    C     C_R   0.749959 0.085635 0.249936 0.880524
C4    C     C_R   0.250066 0.414362 0.250045 0.872158
C5    C     C_R   0.750009 0.585641 0.249988 0.871884
C6    C     C_R   0.749964 0.414363 0.249990 0.883115
C7    C     C_R   0.249962 0.585635 0.249933 0.881598
C8    C     C_R   0.135826 0.996811 0.914428 0.110543
C9    C     C_R   0.864246 0.014228 0.912848 0.107901
C10   C     C_R   0.636367 0.490979 0.915588 0.111076
C11   C     C_R   0.364839 0.518639 0.913708 0.116462
C12   C     C_R   0.635939 0.008289 0.412942 0.097284
C13   C     C_R   0.865593 0.495224 0.581614 0.044743
C14   C     C_R   0.363394 0.000525 0.414514 0.103910
C15   C     C_R   0.136404 0.489892 0.414579 0.107654
C16   C     C_R   0.864108 0.487971 0.412779 0.099301
C17   C     C_3   0.168486 0.011394 0.947163 -0.513924
C18   C     C_3   0.829191 0.014267 0.945958 -0.528344
C19   C     C_3   0.668345 0.512152 0.945786 -0.518881
C20   C     C_3   0.330007 0.507834 0.945791 -0.532850
C21   C     C_3   0.671132 0.012941 0.445664 -0.545689
C22   C     C_3   0.330102 0.986856 0.447088 -0.546780
C23   C     C_3   0.170034 0.501967 0.447142 -0.521537
C24   C     C_R   0.136399 0.515086 0.580845 0.046292
C25   C     C_3   0.829174 0.486676 0.446034 -0.526714
C26   C     C_3   0.203029 0.008121 0.911783 -0.421183
C27   C     C_3   0.796273 0.016249 0.909188 -0.417252
C28   C     C_3   0.702248 0.509073 0.910216 -0.421576
C29   C     C_3   0.296768 0.510329 0.909819 -0.416730
C30   C     C_3   0.704149 0.013179 0.409076 -0.404646
C31   C     C_3   0.296126 0.990389 0.411213 -0.403723
C32   C     C_3   0.203852 0.497168 0.411309 -0.420397
C33   C     C_3   0.796265 0.484102 0.409242 -0.408474
C34   C     C_R   0.937447 0.000170 0.941214 0.931072
C35   C     C_R   0.866297 0.993627 0.081666 0.046980
C36   C     C_R   0.060212 0.999820 0.938883 0.933225
C37   C     C_R   0.437800 0.500273 0.940619 0.923118
C38   C     C_R   0.561274 0.499874 0.939785 0.928659
C39   C     C_R   0.438978 0.000241 0.439650 0.914872
C40   C     C_R   0.561422 0.999965 0.440011 0.911904
C41   C     C_R   0.938002 0.500028 0.440550 0.919214
C42   C     C_R   0.061780 0.499875 0.440304 0.928259
C43   C     C_R   0.442723 0.000008 0.563824 0.906961
C44   C     C_R   0.555356 0.999810 0.565163 0.905339
C45   C     C_R   0.945097 0.500131 0.565446 0.908728
C46   C     C_R   0.136507 0.017062 0.080930 0.037816
C47   C     C_R   0.058896 0.499757 0.562601 0.924034
C48   C     C_R   0.944751 0.000097 0.065269 0.928169
C49   C     C_R   0.059198 0.999876 0.062207 0.937278
C50   C     C_R   0.444145 0.499969 0.064808 0.929096
C51   C     C_R   0.559258 0.499838 0.062218 0.933165
C52   C     C_R   0.189520 0.998033 0.809377 0.879373
C53   C     C_R   0.810795 0.999336 0.809218 0.876475
C54   C     C_R   0.689377 0.497420 0.809391 0.871938
C55   C     C_R   0.310762 0.501527 0.809305 0.874555
C56   C     C_R   0.689460 0.998367 0.309215 0.875728
C57   C     C_R   0.365719 0.489613 0.081822 0.057984
C58   C     C_R   0.310502 0.002081 0.309332 0.875591
C59   C     C_R   0.189316 0.497352 0.309290 0.876440
C60   C     C_R   0.810674 0.501802 0.309221 0.874843
C61   C     C_1   0.250171 0.863504 0.750132 -0.185253
C62   C     C_1   0.750063 0.136498 0.750004 -0.188227
C63   C     C_1   0.749908 0.863502 0.749962 -0.190837
C64   C     C_1   0.249864 0.136494 0.749823 -0.196357
C65   C     C_1   0.750174 0.363504 0.750135 -0.184030
C66   C     C_1   0.250065 0.636499 0.749999 -0.183539
C67   C     C_1   0.249903 0.363502 0.749958 -0.195974
C68   C     C_R   0.636491 0.517113 0.080736 0.041083
C69   C     C_1   0.749855 0.636494 0.749830 -0.195959
C70   C     C_1   0.750179 0.863504 0.250128 -0.186763
C71   C     C_1   0.250068 0.136499 0.249995 -0.180415
C72   C     C_1   0.249895 0.863503 0.249958 -0.195309
C73   C     C_1   0.749849 0.136495 0.249836 -0.192919
C74   C     C_1   0.250179 0.363504 0.250130 -0.183791
C75   C     C_1   0.750062 0.636499 0.249991 -0.181549
C76   C     C_1   0.749905 0.363503 0.249967 -0.193651
C77   C     C_1   0.249855 0.636495 0.249828 -0.196816
C78   C     C_1   0.250192 0.821195 0.750132 0.006709
C79   C     C_R   0.406822 0.000422 0.593392 -0.140748
C80   C     C_1   0.750102 0.178808 0.750030 0.006368
C81   C     C_1   0.749874 0.821192 0.749929 0.003905
C82   C     C_1   0.249839 0.178804 0.749812 0.002953
C83   C     C_1   0.750193 0.321195 0.750138 0.007373
C84   C     C_1   0.250105 0.678808 0.750021 0.007608
C85   C     C_1   0.249869 0.321192 0.749924 0.003342
C86   C     C_1   0.749830 0.678804 0.749820 0.003197
C87   C     C_1   0.750201 0.821195 0.250126 0.005323
C88   C     C_1   0.250111 0.178808 0.250017 0.008576
C89   C     C_1   0.249857 0.821194 0.249925 0.002757
C90   C     C_R   0.591007 0.998769 0.595098 -0.134219
C91   C     C_1   0.749822 0.178805 0.249828 0.004426
C92   C     C_1   0.250201 0.321195 0.250129 0.007669
C93   C     C_1   0.750105 0.678808 0.250012 0.007392
C94   C     C_1   0.749867 0.321193 0.249936 0.004380
C95   C     C_1   0.249826 0.678805 0.249817 0.002690
C96   C     C_1   0.250174 0.771148 0.750096 0.012034
C97   C     C_1   0.750145 0.228854 0.750070 0.011961
C98   C     C_1   0.749847 0.771146 0.749885 0.009244
C99   C     C_1   0.249838 0.228851 0.749841 0.008926
C100  C     C_1   0.750174 0.271148 0.750105 0.012179
C101  C     C_R   0.909482 0.501161 0.595398 -0.131017
C102  C     C_1   0.250146 0.728854 0.750060 0.012254
C103  C     C_1   0.249847 0.271145 0.749878 0.008992
C104  C     C_1   0.749834 0.728851 0.749849 0.009142
C105  C     C_1   0.750181 0.771149 0.250088 0.011427
C106  C     C_1   0.250155 0.228855 0.250056 0.013194
C107  C     C_1   0.249832 0.771147 0.249881 0.008322
C108  C     C_1   0.749824 0.228852 0.249858 0.009801
C109  C     C_1   0.250184 0.271149 0.250092 0.013022
C110  C     C_1   0.750151 0.728855 0.250051 0.011903
C111  C     C_1   0.749837 0.271146 0.249894 0.009811
C112  C     C_R   0.690336 0.001019 0.689954 0.939407
C113  C     C_R   0.094495 0.498719 0.592431 -0.142105
C114  C     C_1   0.249823 0.728852 0.249846 0.008351
C115  C     C_R   0.381808 0.014979 0.665021 0.019246
C116  C     C_R   0.616246 0.991454 0.667074 0.069024
C117  C     C_R   0.884471 0.505574 0.667818 0.059279
C118  C     C_R   0.119626 0.480497 0.663448 0.035986
C119  C     C_R   0.883536 0.009102 0.167316 0.054147
C120  C     C_R   0.118016 0.986544 0.164673 0.064704
C121  C     C_R   0.384496 0.504768 0.167854 0.048966
C122  C     C_R   0.619977 0.480474 0.162856 0.057661
C123  C     C_R   0.340926 0.998298 0.655927 -0.257676
C124  C     C_R   0.909317 0.000763 0.095539 -0.121326
C125  C     C_R   0.658634 0.999992 0.656110 -0.261169
C126  C     C_R   0.841890 0.497595 0.656678 -0.261489
C127  C     C_R   0.158854 0.502839 0.655772 -0.257442
C128  C     C_R   0.841593 0.997601 0.156352 -0.258601
C129  C     C_R   0.159121 0.004249 0.156140 -0.257540
C130  C     C_R   0.341896 0.495754 0.156858 -0.260129
C131  C     C_R   0.658964 0.503644 0.155594 -0.257375
C132  C     C_R   0.330678 0.984988 0.612399 0.367192
C133  C     C_R   0.669060 0.005217 0.611622 0.358082
C134  C     C_R   0.831807 0.491045 0.612291 0.362031
C135  C     C_R   0.094518 0.999545 0.092321 -0.137941
C136  C     C_R   0.169169 0.517417 0.612791 0.359369
C137  C     C_R   0.831775 0.989986 0.111861 0.352854
C138  C     C_R   0.169427 0.019689 0.113173 0.355765
C139  C     C_R   0.331918 0.486307 0.112804 0.358562
C140  C     C_R   0.669236 0.519257 0.112999 0.357260
C141  C     C_R   0.409007 0.499688 0.095248 -0.130374
C142  C     C_R   0.594955 0.499081 0.092053 -0.145579
C143  C     C_R   0.413104 0.017200 0.634795 -0.024574
C144  C     C_R   0.583937 0.988898 0.637977 -0.036842
C145  C     C_R   0.916941 0.507467 0.638912 -0.042225
C146  C     C_R   0.088760 0.477063 0.632356 -0.008228
C147  C     C_R   0.916061 0.011010 0.138384 -0.038028
C148  C     C_R   0.809749 0.498069 0.690083 0.937359
C149  C     C_R   0.087344 0.983518 0.134094 -0.025385
C150  C     C_R   0.416861 0.506441 0.138799 -0.041834
C151  C     C_R   0.589280 0.477110 0.131669 -0.002413
C152  C     C_3   0.448295 0.024010 0.667357 -0.516645
C153  C     C_3   0.549817 0.991717 0.672228 -0.572843
C154  C     C_3   0.950975 0.509976 0.673569 -0.551413
C155  C     C_3   0.052391 0.479711 0.663954 -0.540202
C156  C     C_3   0.950296 0.009693 0.172505 -0.560271
C157  C     C_3   0.052061 0.974609 0.165688 -0.558464
C158  C     C_3   0.450771 0.512703 0.172990 -0.540867
C159  C     C_R   0.190270 0.502876 0.689937 0.938276
C160  C     C_3   0.552770 0.479725 0.163446 -0.576200
C161  C     C_3   0.412922 0.021935 0.701860 0.315683
C162  C     C_3   0.587115 0.994236 0.704979 0.317589
C163  C     C_3   0.913511 0.507991 0.706148 0.324036
C164  C     C_3   0.086746 0.483896 0.699055 0.321832
C165  C     C_3   0.913172 0.007763 0.205423 0.325656
C166  C     C_3   0.087242 0.977178 0.200905 0.316076
C167  C     C_3   0.413539 0.510980 0.205823 0.324245
C168  C     C_3   0.587426 0.483100 0.198434 0.311123
C169  C     C_R   0.166190 0.993885 0.883465 0.102838
C170  C     C_R   0.809667 0.997761 0.190018 0.932270
C171  C     C_R   0.835265 0.014579 0.880814 0.102486
C172  C     C_R   0.666765 0.488604 0.883635 0.112705
C173  C     C_R   0.334751 0.520023 0.881335 0.105344
C174  C     C_R   0.665323 0.007521 0.381412 0.107204
C175  C     C_R   0.333555 0.003385 0.383270 0.112216
C176  C     C_R   0.165958 0.486454 0.382957 0.107192
C177  C     C_R   0.835270 0.487075 0.380956 0.104533
C178  C     C_R   0.155074 0.992998 0.840501 -0.147357
C179  C     C_R   0.846161 0.001657 0.839417 -0.149349
C180  C     C_R   0.654807 0.490607 0.840475 -0.154500
C181  C     C_R   0.190473 0.003041 0.190109 0.945174
C182  C     C_R   0.345925 0.508015 0.839670 -0.153273
C183  C     C_R   0.654673 0.997513 0.339776 -0.141145
C184  C     C_R   0.344876 0.006516 0.340344 -0.154251
C185  C     C_R   0.154402 0.490904 0.339905 -0.156281
C186  C     C_R   0.845793 0.501047 0.339447 -0.149181
C187  C     C_R   0.109879 0.987276 0.829595 0.135038
C188  C     C_R   0.891970 0.993827 0.830230 0.153001
C189  C     C_R   0.609077 0.485452 0.830378 0.141289
C190  C     C_R   0.391882 0.504548 0.829625 0.136983
C191  C     C_R   0.609537 0.988669 0.329658 0.130260
C192  C     C_R   0.309714 0.497735 0.190129 0.936492
C193  C     C_R   0.390397 0.013000 0.330151 0.135086
C194  C     C_R   0.108152 0.489880 0.329705 0.150367
C195  C     C_R   0.891273 0.510915 0.330215 0.151766
C196  C     C_R   0.078321 0.989950 0.862598 -0.254730
C197  C     C_R   0.921682 0.993521 0.864531 -0.240854
C198  C     C_R   0.578674 0.490500 0.863715 -0.235699
C199  C     C_R   0.421536 0.500202 0.863596 -0.229074
C200  C     C_R   0.578674 0.990245 0.363471 -0.247765
C201  C     C_R   0.421203 0.010554 0.363495 -0.237925
C202  C     C_R   0.078168 0.494602 0.363615 -0.237960
C203  C     C_R   0.690293 0.503133 0.189915 0.942475
C204  C     C_R   0.921462 0.508871 0.364049 -0.236603
C205  C     C_R   0.091606 0.998261 0.905282 -0.121468
C206  C     C_R   0.907327 0.001138 0.906705 -0.126006
C207  C     C_R   0.592725 0.498465 0.905967 -0.126639
C208  C     C_R   0.406743 0.502135 0.906281 -0.130591
C209  C     C_R   0.592110 0.999809 0.405824 -0.114542
C210  C     C_R   0.407801 0.001735 0.405985 -0.123391
C211  C     C_R   0.092568 0.498530 0.406267 -0.126787
C212  C     C_R   0.907719 0.499701 0.406268 -0.124353
C213  C     C_R   0.250062 0.914362 0.750047 0.870297
C214  C     C_R   0.364384 0.984995 0.581220 0.064478
C215  C     C_R   0.750012 0.085639 0.749993 0.876818
C216  C     C_R   0.749964 0.914361 0.749988 0.874583
C217  C     C_R   0.249966 0.085635 0.749930 0.878249
C218  C     C_R   0.750064 0.414362 0.750046 0.872080
C219  C     C_R   0.250013 0.585641 0.749992 0.874617
C220  C     C_R   0.249961 0.414362 0.749986 0.881279
C221  C     C_R   0.749961 0.585635 0.749934 0.880822
C222  C     C_R   0.750065 0.914362 0.250045 0.865316
C223  C     C_R   0.250012 0.085641 0.249990 0.872065
C224  C     C_R   0.249960 0.914363 0.249986 0.882726
Cl1   Cl    Cl    0.277534 0.966170 0.596854 -0.603672
Cl2   Cl    Cl    0.723660 0.014550 0.592986 -0.601561
Cl3   Cl    Cl    0.779133 0.473242 0.594527 -0.592931
Cl4   Cl    Cl    0.221161 0.540952 0.599080 -0.609455
Cl5   Cl    Cl    0.779048 0.973770 0.093631 -0.608168
Cl6   Cl    Cl    0.220941 0.046115 0.100101 -0.607822
Cl7   Cl    Cl    0.279263 0.467846 0.095664 -0.603577
Cl8   Cl    Cl    0.721234 0.543298 0.099863 -0.609869
H1    H     H_    0.468361 0.992885 0.668177 0.194991
H2    H     H_    0.031633 0.005581 0.165783 0.195451
H3    H     H_    0.589068 0.557924 0.203114 0.187448
H4    H     H_    0.587044 0.410785 0.213560 0.184846
H5    H     H_    0.577046 0.447668 0.259119 0.185730
H6    H     H_    0.402229 0.553751 0.262051 0.198187
H7    H     H_    0.402782 0.584676 0.210529 0.189561
H8    H     H_    0.110036 0.956945 0.766653 0.213850
H9    H     H_    0.064509 0.997806 0.778507 0.190491
H10   H     H_    0.891645 0.980881 0.760211 0.230859
H11   H     H_    0.944245 0.980392 0.785807 0.179301
H12   H     H_    0.612703 0.466724 0.763184 0.228653
H13   H     H_    0.036543 0.940239 0.161261 0.193651
H14   H     H_    0.561286 0.485606 0.782040 0.184567
H15   H     H_    0.392118 0.522748 0.762336 0.229780
H16   H     H_    0.433454 0.482511 0.779488 0.187540
H17   H     H_    0.610833 0.958808 0.266921 0.211916
H18   H     H_    0.560208 0.983343 0.282410 0.181414
H19   H     H_    0.388408 0.040874 0.265794 0.224202
H20   H     H_    0.433496 0.001057 0.278054 0.191594
H21   H     H_    0.108992 0.475153 0.260633 0.229964
H22   H     H_    0.058258 0.495377 0.282479 0.182035
H23   H     H_    0.887681 0.532161 0.262406 0.230747
H24   H     H_    0.968994 0.042671 0.173616 0.194180
H25   H     H_    0.941791 0.528378 0.284608 0.182075
H26   H     H_    0.470892 0.481443 0.175591 0.202179
H27   H     H_    0.534550 0.512132 0.158233 0.191634
H28   H     H_    0.534293 0.446789 0.164207 0.194240
H29   H     H_    0.467494 0.546680 0.170961 0.195653
H30   H     H_    0.043885 0.987095 0.854894 0.135318
H31   H     H_    0.956050 0.986726 0.858708 0.134298
H32   H     H_    0.544027 0.487927 0.856947 0.136489
H33   H     H_    0.532576 0.025118 0.669256 0.198787
H34   H     H_    0.456110 0.495863 0.856838 0.139113
H35   H     H_    0.544350 0.984254 0.356864 0.135359
H36   H     H_    0.455730 0.014381 0.356100 0.141336
H37   H     H_    0.043325 0.495242 0.356818 0.135477
H38   H     H_    0.955720 0.516508 0.358029 0.135901
H39   H     H_    0.163305 0.047722 0.957295 0.211035
H40   H     H_    0.826706 0.980451 0.962291 0.211833
H41   H     H_    0.829647 0.046008 0.965832 0.224465
H42   H     H_    0.172836 0.984481 0.972412 0.231824
H43   H     H_    0.660363 0.548681 0.953947 0.209277
H44   H     H_    0.530869 0.959160 0.674261 0.194049
H45   H     H_    0.332644 0.471980 0.958408 0.210415
H46   H     H_    0.326099 0.536619 0.969105 0.223574
H47   H     H_    0.676004 0.488204 0.972833 0.234867
H48   H     H_    0.669659 0.046569 0.462425 0.218432
H49   H     H_    0.334559 0.950505 0.457448 0.214015
H50   H     H_    0.325574 0.013480 0.472376 0.226393
H51   H     H_    0.674117 0.980755 0.464808 0.228974
H52   H     H_    0.167279 0.538369 0.457515 0.209136
H53   H     H_    0.830076 0.454643 0.465773 0.242134
H54   H     H_    0.826291 0.520458 0.462560 0.202279
H55   H     H_    0.464424 0.058325 0.664203 0.196671
H56   H     H_    0.173121 0.474881 0.472371 0.233853
H57   H     H_    0.216949 0.042271 0.902797 0.210801
H58   H     H_    0.775637 0.984834 0.907177 0.216087
H59   H     H_    0.778597 0.049653 0.906792 0.207724
H60   H     H_    0.227120 0.979710 0.916917 0.209753
H61   H     H_    0.713425 0.543621 0.898934 0.210206
H62   H     H_    0.280621 0.476608 0.903602 0.216521
H63   H     H_    0.274525 0.540623 0.912290 0.207253
H64   H     H_    0.728686 0.483590 0.917202 0.210301
H65   H     H_    0.720535 0.046891 0.404153 0.209682
H66   H     H_    0.969815 0.477536 0.674118 0.201598
H67   H     H_    0.281711 0.956528 0.402619 0.208622
H68   H     H_    0.272560 0.019202 0.415564 0.210360
H69   H     H_    0.725763 0.982390 0.408835 0.213148
H70   H     H_    0.220027 0.530376 0.403402 0.214426
H71   H     H_    0.779430 0.450163 0.406977 0.209159
H72   H     H_    0.774774 0.515022 0.407354 0.212812
H73   H     H_    0.225970 0.466985 0.415579 0.208420
H74   H     H_    0.380596 0.971551 0.515049 0.205250
H75   H     H_    0.325141 0.956394 0.529499 0.249069
H76   H     H_    0.618783 0.008959 0.513987 0.208629
H77   H     H_    0.033910 0.511900 0.658568 0.188611
H78   H     H_    0.675734 0.024903 0.527816 0.248956
H79   H     H_    0.878850 0.504304 0.516960 0.186240
H80   H     H_    0.824983 0.503294 0.530088 0.226240
H81   H     H_    0.123309 0.545920 0.520990 0.201811
H82   H     H_    0.178080 0.534590 0.529877 0.245686
H83   H     H_    0.872339 0.967190 0.018970 0.201151
H84   H     H_    0.824358 0.004060 0.029201 0.236663
H85   H     H_    0.124241 0.054408 0.024597 0.205678
H86   H     H_    0.178295 0.038079 0.030548 0.246233
H87   H     H_    0.375837 0.463423 0.018778 0.209429
H88   H     H_    0.034239 0.446516 0.665088 0.194889
H89   H     H_    0.323389 0.490264 0.028157 0.243254
H90   H     H_    0.621929 0.551442 0.023540 0.202628
H91   H     H_    0.676692 0.542661 0.031062 0.244765
H92   H     H_    0.408535 0.949663 0.718711 0.193252
H93   H     H_    0.423086 0.987573 0.763214 0.194551
H94   H     H_    0.591744 0.038556 0.761427 0.196981
H95   H     H_    0.588596 0.068991 0.708549 0.187094
H96   H     H_    0.587512 0.921619 0.718763 0.182124
H97   H     H_    0.581922 0.957981 0.765636 0.181151
H98   H     H_    0.396818 0.064210 0.756796 0.195110
H99   H     H_    0.968869 0.543341 0.673264 0.194745
H100  H     H_    0.400068 0.094825 0.705882 0.185616
H101  H     H_    0.916777 0.467972 0.765525 0.191916
H102  H     H_    0.908776 0.433918 0.716373 0.191034
H103  H     H_    0.092378 0.558339 0.702876 0.189974
H104  H     H_    0.080891 0.529669 0.754131 0.195067
H105  H     H_    0.088873 0.450219 0.761787 0.195424
H106  H     H_    0.091577 0.411498 0.715563 0.190781
H107  H     H_    0.906694 0.581868 0.714909 0.187034
H108  H     H_    0.909986 0.548354 0.764907 0.190755
H109  H     H_    0.898738 0.934429 0.214256 0.190400
H110  H     H_    0.967849 0.976305 0.171236 0.203335
H111  H     H_    0.921476 0.964224 0.262192 0.189727
H112  H     H_    0.078447 0.010424 0.263015 0.192074
H113  H     H_    0.081331 0.050173 0.216398 0.188223
H114  H     H_    0.086477 0.903727 0.205319 0.190345
H115  H     H_    0.099372 0.933220 0.256468 0.196041
H116  H     H_    0.917036 0.045041 0.265675 0.188119
H117  H     H_    0.908862 0.081177 0.217187 0.189813
H118  H     H_    0.407493 0.438191 0.220993 0.192299
H119  H     H_    0.421985 0.474804 0.266691 0.190479
H120  H     H_    0.582982 0.527641 0.254418 0.197817
N1    N     N_3   0.356700 0.966458 0.538552 -0.463426
N2    N     N_3   0.590793 0.038462 0.727262 -0.449121
N3    N     N_3   0.593654 0.954245 0.733219 -0.429841
N4    N     N_3   0.410531 0.066035 0.724998 -0.450863
N5    N     N_3   0.912898 0.465605 0.732124 -0.454091
N6    N     N_3   0.085614 0.528657 0.720839 -0.457300
N7    N     N_3   0.087432 0.444462 0.728576 -0.459332
N8    N     N_3   0.906321 0.550097 0.731235 -0.448463
N9    N     N_3   0.911751 0.964163 0.229577 -0.452239
N10   N     N_3   0.081865 0.016522 0.229870 -0.454412
N11   N     N_3   0.095753 0.933144 0.222585 -0.456024
N12   N     N_3   0.644322 0.011417 0.535776 -0.466240
N13   N     N_3   0.909214 0.048952 0.232364 -0.447217
N14   N     N_3   0.415303 0.470387 0.234013 -0.458829
N15   N     N_3   0.588274 0.527404 0.221586 -0.451309
N16   N     N_3   0.590909 0.443401 0.228203 -0.440834
N17   N     N_3   0.406906 0.554497 0.228685 -0.458259
N18   N     N_3   0.095268 0.982863 0.785758 -0.452318
N19   N     N_3   0.910237 0.987309 0.787534 -0.466708
N20   N     N_3   0.591817 0.470872 0.789256 -0.465082
N21   N     N_3   0.410386 0.508354 0.787132 -0.467400
N22   N     N_3   0.594347 0.982872 0.285817 -0.443963
N23   N     N_3   0.855665 0.488607 0.536743 -0.427103
N24   N     N_3   0.406658 0.021422 0.287462 -0.465848
N25   N     N_3   0.089870 0.481623 0.287560 -0.466375
N26   N     N_3   0.907486 0.527389 0.289105 -0.471253
N27   N     N_3   0.145828 0.524049 0.536076 -0.471344
N28   N     N_3   0.858502 0.996594 0.036034 -0.449014
N29   N     N_3   0.145626 0.029049 0.036444 -0.471599
N30   N     N_3   0.356398 0.485838 0.036679 -0.467862
N31   N     N_3   0.645302 0.529176 0.036572 -0.470744
N32   N     N_3   0.418394 0.981945 0.730243 -0.456471
O1    O     O_R   0.321670 1.000000 0.730060 -0.627495
O2    O     O_R   0.730060 1.000000 0.678340 -0.548586
O3    O     O_R   0.769940 0.500000 0.678340 -0.551927
O4    O     O_R   0.230060 0.500000 0.678340 -0.550593
O5    O     O_R   0.769940 0.000000 0.178340 -0.550212
O6    O     O_R   0.230060 0.000000 0.178340 -0.555728
O7    O     O_R   0.269940 0.500000 0.178340 -0.550798
O8    O     O_R   0.730060 0.500000 0.178340 -0.553526
O9    O     O_R   0.275870 0.936860 0.775860 -0.607889
O10   O     O_R   0.724130 0.063140 0.775860 -0.607413
O11   O     O_R   0.724130 0.936860 0.775860 -0.601031
O12   O     O_R   0.678330 1.000000 0.730060 -0.607929
O13   O     O_R   0.275870 0.063140 0.775860 -0.606473
O14   O     O_R   0.775870 0.436860 0.775860 -0.607725
O15   O     O_R   0.224130 0.563140 0.775860 -0.609272
O16   O     O_R   0.224130 0.436860 0.775860 -0.601914
O17   O     O_R   0.775870 0.563140 0.775860 -0.601979
O18   O     O_R   0.775870 0.936860 0.275860 -0.608105
O19   O     O_R   0.224130 0.063140 0.275860 -0.609127
O20   O     O_R   0.224130 0.936860 0.275860 -0.603051
O21   O     O_R   0.775870 0.063140 0.275860 -0.601147
O22   O     O_R   0.275870 0.436860 0.275860 -0.608614
O23   O     O_R   0.821670 0.500000 0.730060 -0.611697
O24   O     O_R   0.724130 0.563140 0.275860 -0.609901
O25   O     O_R   0.724130 0.436860 0.275860 -0.598669
O26   O     O_R   0.275870 0.563140 0.275860 -0.603331
O27   O     O_R   0.224140 0.936870 0.724140 -0.588424
O28   O     O_R   0.775860 0.063130 0.724140 -0.586187
O29   O     O_R   0.775860 0.936870 0.724140 -0.597583
O30   O     O_R   0.224140 0.063130 0.724140 -0.592598
O31   O     O_R   0.724140 0.436870 0.724140 -0.589593
O32   O     O_R   0.275860 0.563130 0.724140 -0.584759
O33   O     O_R   0.275860 0.436870 0.724140 -0.595566
O34   O     O_R   0.178330 0.500000 0.730060 -0.618027
O35   O     O_R   0.724140 0.563130 0.724140 -0.593870
O36   O     O_R   0.724140 0.936870 0.224140 -0.591698
O37   O     O_R   0.275860 0.063130 0.224140 -0.586250
O38   O     O_R   0.275860 0.936870 0.224140 -0.595700
O39   O     O_R   0.724140 0.063130 0.224140 -0.592433
O40   O     O_R   0.224140 0.436870 0.224140 -0.587530
O41   O     O_R   0.775860 0.563130 0.224140 -0.586427
O42   O     O_R   0.775860 0.436870 0.224140 -0.595598
O43   O     O_R   0.224140 0.563130 0.224140 -0.594512
O44   O     O_R   0.230060 0.000000 0.821670 -0.619062
O45   O     O_R   0.821670 1.000000 0.230060 -0.611519
O46   O     O_R   0.769940 0.000000 0.821670 -0.617913
O47   O     O_R   0.730060 0.500000 0.821670 -0.615232
O48   O     O_R   0.269940 0.500000 0.821670 -0.617172
O49   O     O_R   0.730060 0.000000 0.321670 -0.621970
O50   O     O_R   0.269940 0.000000 0.321670 -0.618883
O51   O     O_R   0.230060 0.500000 0.321670 -0.616173
O52   O     O_R   0.769940 0.500000 0.321670 -0.618372
O53   O     O_R   0.178330 0.000000 0.769950 -0.614095
O54   O     O_R   0.821670 0.000000 0.769950 -0.633120
O55   O     O_R   0.678330 0.500000 0.769950 -0.633917
O56   O     O_R   0.178330 1.000000 0.230060 -0.616857
O57   O     O_R   0.321670 0.500000 0.769950 -0.632757
O58   O     O_R   0.678330 1.000000 0.269950 -0.615103
O59   O     O_R   0.321670 1.000000 0.269950 -0.624084
O60   O     O_R   0.178330 0.500000 0.269950 -0.632635
O61   O     O_R   0.821670 0.500000 0.269950 -0.633161
O62   O     O_R   0.954170 0.964330 0.954180 -0.625634
O63   O     O_R   0.045830 0.035670 0.954180 -0.624497
O64   O     O_R   0.045830 0.964330 0.954180 -0.617952
O65   O     O_R   0.954170 0.035670 0.954180 -0.613377
O66   O     O_R   0.454170 0.464330 0.954180 -0.624018
O67   O     O_R   0.321670 0.500000 0.230060 -0.618518
O68   O     O_R   0.545830 0.535670 0.954180 -0.625850
O69   O     O_R   0.545830 0.464330 0.954180 -0.615351
O70   O     O_R   0.454170 0.535670 0.954180 -0.612192
O71   O     O_R   0.454170 0.964330 0.454180 -0.623813
O72   O     O_R   0.545830 0.035670 0.454180 -0.618867
O73   O     O_R   0.545830 0.964330 0.454180 -0.617523
O74   O     O_R   0.454170 0.035670 0.454180 -0.615429
O75   O     O_R   0.954170 0.464330 0.454180 -0.612126
O76   O     O_R   0.045830 0.535670 0.454180 -0.625746
O77   O     O_R   0.045830 0.464330 0.454180 -0.614475
O78   O     O_R   0.678330 0.500000 0.230060 -0.606673
O79   O     O_R   0.954170 0.535670 0.454180 -0.621278
O80   O     O_R   0.454180 0.964360 0.545790 -0.625824
O81   O     O_R   0.545820 0.035640 0.545790 -0.625026
O82   O     O_R   0.545820 0.964360 0.545790 -0.618270
O83   O     O_R   0.454180 0.035640 0.545790 -0.622124
O84   O     O_R   0.954180 0.464360 0.545790 -0.610061
O85   O     O_R   0.045820 0.535640 0.545790 -0.638919
O86   O     O_R   0.045820 0.464360 0.545790 -0.618282
O87   O     O_R   0.954180 0.535640 0.545790 -0.629612
O88   O     O_R   0.954180 0.964360 0.045790 -0.631654
O89   O     O_R   0.269940 1.000000 0.678340 -0.548830
O90   O     O_R   0.045820 0.035640 0.045790 -0.639855
O91   O     O_R   0.045820 0.964360 0.045790 -0.619932
O92   O     O_R   0.954180 0.035640 0.045790 -0.610095
O93   O     O_R   0.454180 0.464360 0.045790 -0.631146
O94   O     O_R   0.545820 0.535640 0.045790 -0.642289
O95   O     O_R   0.545820 0.464360 0.045790 -0.616569
O96   O     O_R   0.454180 0.535640 0.045790 -0.615176
Zn1   Zn    Zn3+2 0.284540 0.000000 0.784540 0.944277
Zn2   Zn    Zn3+2 0.784540 0.000000 0.715470 1.021651
Zn3   Zn    Zn3+2 0.715460 0.500000 0.715470 1.016956
Zn4   Zn    Zn3+2 0.284540 0.500000 0.715470 1.017727
Zn5   Zn    Zn3+2 0.715460 0.000000 0.215470 1.026483
Zn6   Zn    Zn3+2 0.284540 0.000000 0.215470 1.019309
Zn7   Zn    Zn3+2 0.215460 0.500000 0.215470 1.016930
Zn8   Zn    Zn3+2 0.784540 0.500000 0.215470 1.018499
Zn9   Zn    Zn3+2 1.000000 0.952400 0.999990 0.971913
Zn10  Zn    Zn3+2 0.000000 0.047600 0.999990 0.973024
Zn11  Zn    Zn3+2 0.500000 0.452400 0.999990 0.975545
Zn12  Zn    Zn3+2 0.715460 0.000000 0.784540 0.955600
Zn13  Zn    Zn3+2 0.500000 0.547600 0.999990 0.969087
Zn14  Zn    Zn3+2 0.500000 0.952400 0.499990 0.974701
Zn15  Zn    Zn3+2 0.500000 0.047600 0.499990 0.974510
Zn16  Zn    Zn3+2 0.000000 0.452400 0.499990 0.986886
Zn17  Zn    Zn3+2 1.000000 0.547600 0.499990 0.962604
Zn18  Zn    Zn3+2 0.784540 0.500000 0.784540 0.953264
Zn19  Zn    Zn3+2 0.215460 0.500000 0.784540 0.950562
Zn20  Zn    Zn3+2 0.784540 1.000000 0.284540 0.954847
Zn21  Zn    Zn3+2 0.215460 1.000000 0.284540 0.951143
Zn22  Zn    Zn3+2 0.284540 0.500000 0.284540 0.948652
Zn23  Zn    Zn3+2 0.715460 0.500000 0.284540 0.959642
Zn24  Zn    Zn3+2 0.215460 0.000000 0.715470 1.025753

loop_
_geom_bond_atom_site_label_1
_geom_bond_atom_site_label_2
_ccdc_geom_bond_type
C99   C103  T    
C105  C110  T    
C155  H77   S    
C96   C102  T    
O10   Zn12  S    
C161  N4    S    
O69   Zn11  S    
C120  C166  S    
O58   Zn5   S    
C23   H52   S    
C117  C163  S    
O8    Zn8   S    
C68   N31   S    
C118  C164  S    
H82   N27   S    
C61   C213  S    
C223  O37   A    
C34   O65   A    
O92   Zn10  S    
C67   C220  S    
C219  O15   A    
O4    Zn4   S    
C92   C109  S    
C155  H88   S    
C184  C193  A    
C72   C224  S    
O16   Zn19  S    
C53   C179  S    
C94   C111  S    
C193  C201  A    
H90   N31   S    
C47   C113  S    
C6    O42   A    
C181  O56   A    
C74   C92   T    
C25   H54   S    
C2    C90   A    
C39   O71   A    
C131  C140  A    
C76   C94   T    
O59   Zn6   S    
C32   H70   S    
C200  H35   S    
C78   C96   S    
H106  N7    S    
C216  O11   A    
O31   Zn3   S    
C60   O52   A    
C117  C126  A    
C85   C103  S    
C50   C141  S    
C93   C110  S    
H18   N22   S    
C18   H41   S    
C119  C128  A    
C59   O51   A    
H15   N21   S    
O38   Zn6   S    
C197  C206  A    
C7    O26   A    
C130  C192  S    
C190  C199  A    
C44   O82   A    
H95   N2    S    
C224  O38   A    
C11   C20   S    
C67   C85   T    
C115  C123  A    
H107  N8    S    
C213  O9    A    
C182  C190  A    
C127  C136  A    
O90   Zn10  S    
O80   Zn14  S    
O74   Zn15  S    
C214  N1    S    
O54   Zn2   S    
C190  N21   S    
C1    O89   A    
C179  C188  A    
C112  O2    A    
C37   O70   A    
C40   C209  S    
H118  N14   S    
C177  C186  A    
O36   Zn5   S    
C113  C146  A    
C220  O33   A    
H12   N20   S    
C50   O93   A    
C166  N10   S    
C66   C219  S    
C7    O43   A    
H112  N10   S    
C186  C195  A    
C46   N29   S    
C16   C212  A    
C204  C212  A    
C40   O73   A    
C112  C125  S    
C217  O13   A    
C39   O74   A    
C121  C167  S    
H17   N22   S    
C173  C182  A    
C83   C100  S    
H93   N32   S    
O37   Zn6   S    
C37   C208  S    
O83   Zn15  S    
C9    C171  A    
C51   O94   A    
C8    C169  A    
C75   C93   T    
C12   C174  A    
C26   H60   S    
C16   C25   S    
H97   N3    S    
C35   C124  A    
C8    C17   S    
C23   C32   S    
C60   O61   A    
H119  N14   S    
C165  N9    S    
H78   N12   S    
C200  C209  A    
C108  C111  T    
C203  O8    A    
C134  Cl3   S    
O85   Zn17  S    
C162  N3    S    
C21   H51   S    
C35   C137  A    
O23   Zn18  S    
O45   Zn20  S    
O21   Zn20  S    
C33   H71   S    
C53   O46   A    
C33   H72   S    
C29   H62   S    
C69   C221  S    
C160  C168  S    
C27   H58   S    
C8    C205  A    
C157  H2    S    
C203  O78   A    
O5    Zn5   S    
C194  N25   S    
C71   C88   T    
O52   Zn23  S    
O3    Zn3   S    
O49   Zn20  S    
C126  C134  A    
H16   N21   S    
O11   Zn12  S    
O12   Zn12  S    
C139  Cl7   S    
C40   O72   A    
O34   Zn19  S    
C119  C147  A    
C30   C174  S    
C204  H38   S    
C54   O47   A    
H20   N24   S    
C221  O17   A    
C58   C184  S    
C80   C97   S    
C84   C102  S    
O89   Zn24  S    
C121  C130  A    
C17   H39   S    
C86   C104  S    
C18   H40   S    
O76   Zn17  S    
C159  O34   A    
C59   O60   A    
H79   N23   S    
O27   Zn24  S    
C136  Cl4   S    
C101  C145  A    
C120  C149  A    
C64   C217  S    
O82   Zn14  S    
C62   C80   T    
C193  N24   S    
C20   H46   S    
H114  N11   S    
C180  C189  A    
C170  O5    A    
C48   O92   A    
H84   N28   S    
C116  C144  A    
C28   C172  S    
C79   C143  A    
O26   Zn22  S    
H113  N10   S    
H103  N6    S    
C68   C142  A    
C63   C216  S    
O96   Zn13  S    
C119  C165  S    
C152  C161  S    
C49   O90   A    
C7    C77   S    
H23   N26   S    
C23   H56   S    
C24   C136  A    
C49   C135  S    
C168  N16   S    
C171  C179  A    
C218  O14   A    
O30   Zn24  S    
C164  N7    S    
H109  N9    S    
C70   C87   T    
C47   O85   A    
C141  C150  A    
O39   Zn5   S    
O13   Zn1   S    
C181  O6    A    
O87   Zn17  S    
C38   C207  S    
C33   C177  S    
C120  C129  A    
H115  N11   S    
C138  Cl6   S    
C191  C200  A    
C22   H50   S    
C5    O41   A    
H98   N4    S    
O57   Zn4   S    
C160  H27   S    
C167  N17   S    
C170  O45   A    
C115  C161  S    
C48   O88   A    
H91   N31   S    
H81   N27   S    
C36   O63   A    
C87   C105  S    
C148  O23   A    
C19   C28   S    
C50   O96   A    
C5    O24   A    
O95   Zn11  S    
O48   Zn19  S    
C145  C154  S    
C35   N28   S    
C1    O1    A    
C116  C125  A    
H19   N24   S    
C220  O16   A    
C118  C127  A    
C28   H64   S    
C122  C131  A    
C97   C100  T    
O28   Zn2   S    
H74   N1    S    
C198  C207  A    
C51   O95   A    
O46   Zn12  S    
C6    C76   S    
H76   N12   S    
C41   O75   A    
C43   O83   A    
C14   C22   S    
C189  N20   S    
H21   N25   S    
C154  H99   S    
C202  C211  A    
H8    N18   S    
C199  C208  A    
C13   N23   S    
C55   C182  S    
C59   C185  S    
C56   O49   A    
C156  H110  S    
C3    C73   S    
C3    O21   A    
C45   O84   A    
C31   H68   S    
C9    C18   S    
O19   Zn21  S    
H9    N18   S    
C213  O27   A    
O18   Zn20  S    
C57   N30   S    
H85   N29   S    
C27   H59   S    
H3    N15   S    
C90   C144  A    
H94   N2    S    
C25   C33   S    
C163  N5    S    
C106  C109  T    
H75   N1    S    
C19   H47   S    
C27   C171  S    
C187  C196  A    
C82   C99   S    
O65   Zn10  S    
H101  N5    S    
C185  C194  A    
C29   H63   S    
C192  O7    A    
C38   O69   A    
C176  C185  A    
C15   C176  A    
H22   N25   S    
C9    C206  A    
O79   Zn17  S    
C123  C132  A    
H116  N13   S    
C51   C142  S    
C81   C98   S    
C95   C114  S    
C10   C172  A    
C194  C202  A    
C57   C139  A    
C117  C145  A    
O56   Zn21  S    
H25   N26   S    
O24   Zn23  S    
O9    Zn1   S    
C45   O87   A    
C43   O80   A    
C41   C212  S    
C79   C214  A    
C146  C155  S    
C38   O68   A    
O42   Zn8   S    
C158  C167  S    
C159  O4    A    
C131  C203  S    
H92   N32   S    
C172  C180  A    
H102  N5    S    
O88   Zn9   S    
O35   Zn3   S    
C130  C139  A    
C2    N12   S    
O67   Zn22  S    
H14   N20   S    
C199  H34   S    
O68   Zn13  S    
C55   O57   A    
C55   O48   A    
H120  N15   S    
O43   Zn7   S    
O53   Zn24  S    
C2    C133  A    
C122  C168  S    
C195  C204  A    
C215  O10   A    
O64   Zn9   S    
C133  Cl2   S    
C137  Cl5   S    
O55   Zn3   S    
C126  C148  S    
C152  H1    S    
C158  H26   S    
C34   C206  S    
C39   C210  S    
H104  N6    S    
C5    C75   S    
O86   Zn16  S    
C1    C123  S    
C107  C114  T    
C222  O18   A    
O70   Zn13  S    
C222  O36   A    
O44   Zn1   S    
C30   H69   S    
C42   O76   A    
H111  N9    S    
C10   C19   S    
C89   C107  S    
C3    O39   A    
C147  C156  S    
C196  C205  A    
C45   C101  S    
O29   Zn2   S    
C128  C137  A    
C178  C187  A    
C164  N6    S    
C143  C152  S    
C140  Cl8   S    
H80   N23   S    
O15   Zn19  S    
O71   Zn14  S    
C166  N11   S    
C42   O77   A    
C44   O81   A    
H105  N7    S    
H83   N28   S    
O22   Zn22  S    
C215  O28   A    
C150  C158  S    
C91   C108  S    
C202  H37   S    
H4    N16   S    
C56   O58   A    
C174  C183  A    
C12   C209  A    
C46   C135  A    
C56   C183  S    
H100  N4    S    
C21   C30   S    
C57   C141  A    
C153  C162  S    
H89   N30   S    
O72   Zn15  S    
C197  H31   S    
O14   Zn18  S    
C151  C160  S    
C198  H32   S    
C188  C197  A    
O20   Zn21  S    
C70   C222  S    
O17   Zn18  S    
O78   Zn23  S    
C36   C205  S    
O6    Zn6   S    
C52   C178  S    
C221  O35   A    
C192  O67   A    
C34   O62   A    
O2    Zn2   S    
O1    Zn1   S    
C149  C157  S    
C24   N27   S    
C124  C147  A    
C4    O40   A    
C175  C184  A    
H96   N3    S    
C189  C198  A    
C41   O79   A    
O47   Zn18  S    
C128  C170  S    
C154  H66   S    
C13   C134  A    
O91   Zn9   S    
C26   H57   S    
C153  H33   S    
O66   Zn11  S    
C17   H42   S    
C152  H55   S    
O73   Zn14  S    
C58   O50   A    
C31   C175  S    
C156  C165  S    
O63   Zn10  S    
C32   C176  S    
C14   C175  A    
C63   C81   T    
C187  N18   S    
H11   N19   S    
C17   C26   S    
C116  C162  S    
C162  N2    S    
C62   C215  S    
C65   C218  S    
C224  O20   A    
C65   C83   T    
C43   C79   S    
C160  H28   S    
C223  O19   A    
C121  C150  A    
C144  C153  S    
C188  N19   S    
C15   C211  A    
C58   O59   A    
C36   O64   A    
C19   H43   S    
C129  C138  A    
C26   C169  S    
C201  H36   S    
O60   Zn7   S    
C4    O22   A    
C201  C210  A    
C4    C74   S    
C46   C138  A    
O33   Zn4   S    
C15   C23   S    
H10   N19   S    
C24   C113  A    
O7    Zn7   S    
C53   O54   A    
O93   Zn11  S    
C25   H53   S    
C52   O44   A    
C219  O32   A    
C28   H61   S    
C20   C29   S    
C115  C143  A    
C11   C173  A    
C6    O25   A    
C71   C223  S    
C22   C31   S    
C14   C210  A    
C148  O3    A    
C154  C163  S    
C118  C146  A    
O61   Zn8   S    
C20   H45   S    
C73   C91   T    
C21   H48   S    
C54   O55   A    
C135  C149  A    
C12   C21   S    
C77   C95   T    
C167  N14   S    
O32   Zn4   S    
O77   Zn16  S    
C10   C207  A    
O50   Zn21  S    
C88   C106  S    
C112  O12   A    
C165  N13   S    
C61   C78   T    
C158  H29   S    
O75   Zn16  S    
O62   Zn9   S    
C64   C82   T    
O84   Zn16  S    
C31   H67   S    
C32   H73   S    
C49   O91   A    
C168  N15   S    
H108  N8    S    
C132  C214  A    
C11   C208  A    
C13   C101  A    
C47   O86   A    
C127  C159  S    
C169  C178  A    
O51   Zn22  S    
C44   C90   S    
C16   C177  A    
C163  N8    S    
H5    N16   S    
C125  C133  A    
C191  N22   S    
C129  C181  S    
C60   C186  S    
C161  N32   S    
C18   C27   S    
O81   Zn15  S    
C29   C173  S    
C22   H49   S    
C183  C191  A    
C157  C166  S    
C48   C124  S    
H86   N29   S    
C30   H65   S    
C155  C164  S    
C142  C151  A    
O94   Zn13  S    
O41   Zn8   S    
C122  C151  A    
C196  H30   S    
C217  O30   A    
H7    N17   S    
C132  Cl1   S    
C37   O66   A    
O40   Zn7   S    
C72   C89   T    
H6    N17   S    
C157  H13   S    
C98   C104  T    
O25   Zn23  S    
C54   C180  S    
C153  H44   S    
H87   N30   S    
C68   C140  A    
C69   C86   T    
C66   C84   T    
C195  N26   S    
C52   O53   A    
C218  O31   A    
C216  O29   A    
C42   C211  S    
C156  H24   S    
H117  N13   S    
