data_mof_unit_38392.cif
_audit_creation_date              2012-12-11T18:04:51-0500
_audit_creation_method            fapswitch 2.2
_symmetry_space_group_name_H-M    P1
_symmetry_Int_Tables_number       1
_space_group_crystal_system       triclinic
_cell_length_a                    8.206093
_cell_length_b                    12.941897
_cell_length_c                    22.826798
_cell_angle_alpha                 96.481584
_cell_angle_beta                  89.308123
_cell_angle_gamma                 98.832619
_cell_volume                      2380.1661737

loop_
_atom_site_label
_atom_site_type_symbol
_atom_type_description
_atom_site_fract_x
_atom_site_fract_y
_atom_site_fract_z
_atom_type_partial_charge
Ba1   Ba    Ba6+2 0.856210 0.551220 0.472190 1.672785
Ba2   Ba    Ba6+2 0.333620 0.448870 0.527810 1.659364
C1    C     C_3   0.654801 0.915054 0.294497 -0.336143
C2    C     C_R   0.092939 0.590247 0.943097 -0.101656
C3    C     C_R   0.043664 0.585436 0.882789 0.608269
C4    C     C_3   0.139550 0.829444 0.308083 0.287290
C5    C     C_R   0.956941 0.399012 0.878825 0.577009
C6    C     C_R   0.002893 0.400555 0.938220 0.002843
C7    C     C_R   0.069400 0.496385 0.970766 -0.089726
C8    C     C_R   0.160634 0.685745 0.977615 0.403536
C9    C     C_R   0.191947 0.686635 0.037948 -0.039007
C10   C     C_R   0.170370 0.593512 0.065309 -0.082822
C11   C     C_R   0.111150 0.497869 0.031427 -0.048016
C12   C     C_3   0.639619 0.816439 0.326214 0.649862
C13   C     C_R   0.982956 0.307322 0.965748 -0.056124
C14   C     C_R   0.028312 0.308639 0.024516 -0.057684
C15   C     C_R   0.092506 0.403481 0.058155 -0.007471
C16   C     C_3   0.078218 0.865531 0.252261 -0.312794
C17   C     C_R   0.140163 0.405700 0.117712 0.633405
C18   C     C_R   0.210344 0.593742 0.125562 0.650823
C19   C     C_2   0.785394 0.433375 0.769073 -0.085214
C20   C     C_3   0.758097 0.401598 0.704042 -0.055307
C21   C     C_1   0.004781 0.526243 0.686692 0.029163
C22   C     C_2   0.051014 0.532412 0.743290 -0.102554
C23   C     C_3   0.480309 0.296891 0.349602 0.282608
C24   C     C_2   0.933891 0.485601 0.788581 0.200247
C25   C     C_R   0.423322 0.540656 0.228246 -0.110794
C26   C     C_R   0.466614 0.552699 0.288893 -0.063412
C27   C     C_R   0.191784 0.471417 0.313826 0.023831
C28   C     C_3   0.227226 0.773572 0.594870 0.241782
C29   C     C_R   0.144228 0.463468 0.254313 -0.108948
C30   C     C_R   0.256677 0.500925 0.211198 0.235919
C31   C     C_2   0.861769 0.473681 0.666519 -0.281213
C32   C     C_R   0.753429 0.176841 0.523299 -0.260952
C33   C     C_R   0.435413 0.808911 0.470948 -0.204783
C34   C     C_3   0.483948 0.273051 0.282453 -0.234154
C35   C     C_R   0.409449 0.982331 0.446056 -0.113386
C36   C     C_R   0.347776 0.875928 0.444684 0.012514
C37   C     C_R   0.578460 0.847230 0.504199 0.034323
C38   C     C_R   0.640007 0.958046 0.509361 -0.050733
C39   C     C_R   0.554101 0.027243 0.480165 -0.073216
C40   C     C_3   0.280639 0.891303 0.611607 -0.289467
C41   C     C_R   0.614706 0.138002 0.488387 0.033338
C42   C     C_R   0.845885 0.110189 0.546413 -0.014354
C43   C     C_R   0.786238 0.001773 0.541837 -0.088584
C44   C     C_3   0.966527 0.226272 0.405508 0.299861
C45   C     C_3   0.051052 0.227990 0.689458 0.335183
C46   C     C_3   0.906533 0.109935 0.388195 -0.412370
C47   C     C_3   0.715102 0.692785 0.647123 0.289188
C48   C     C_3   0.729453 0.721584 0.713520 -0.346961
C49   C     C_2   0.158451 0.934334 0.653237 0.651216
C50   C     C_2   0.354420 0.182375 0.260934 0.655879
C51   C     C_2   0.552405 0.565871 0.183512 0.538947
C52   C     C_2   0.307542 0.040327 0.413196 0.534602
C53   C     C_3   0.081410 0.204773 0.751900 -0.256144
C54   C     C_3   0.513703 0.173489 0.676532 0.321618
C55   C     C_3   0.580576 0.117011 0.723743 -0.369901
C56   C     C_R   0.349736 0.520061 0.330625 -0.242261
H1    H     H_    0.696983 0.838197 0.370657 0.079533
H2    H     H_    0.617188 0.623529 0.638089 0.077438
H3    H     H_    0.585080 0.973124 0.318594 0.153241
H4    H     H_    0.832204 0.787506 0.724009 0.144264
H5    H     H_    0.753816 0.652953 0.735171 0.075473
H6    H     H_    0.612558 0.745693 0.731161 0.140687
H7    H     H_    0.604184 0.895196 0.249007 0.141458
H8    H     H_    0.353664 0.307070 0.364060 -0.021466
H9    H     H_    0.566052 0.371057 0.362123 0.043446
H10   H     H_    0.460823 0.342437 0.261552 -0.024229
H11   H     H_    0.608486 0.256115 0.268602 0.131332
H12   H     H_    0.404551 0.904564 0.632813 0.104152
H13   H     H_    0.785809 0.950704 0.291913 0.091738
H14   H     H_    0.167751 0.854093 0.216155 0.143239
H15   H     H_    0.137923 0.299657 0.681315 0.092046
H16   H     H_    0.921944 0.242030 0.685637 -0.064435
H17   H     H_    0.188709 0.162554 0.753559 0.181847
H18   H     H_    0.109883 0.279865 0.780900 0.105537
H19   H     H_    0.971540 0.155293 0.768316 0.132537
H20   H     H_    0.615803 0.195527 0.645530 -0.051524
H21   H     H_    0.418446 0.117708 0.650390 0.094153
H22   H     H_    0.675108 0.172196 0.750672 0.127198
H23   H     H_    0.289162 0.933097 0.571592 0.019427
H24   H     H_    0.637665 0.049694 0.702736 0.087996
H25   H     H_    0.135418 0.742533 0.301851 0.055252
H26   H     H_    0.479393 0.087183 0.753033 0.175348
H27   H     H_    0.012010 0.234856 0.043632 0.135480
H28   H     H_    0.932889 0.232358 0.941723 0.133334
H29   H     H_    0.240335 0.761040 0.062953 0.150595
H30   H     H_    0.173890 0.570599 0.756923 0.120493
H31   H     H_    0.694745 0.400648 0.799680 0.117604
H32   H     H_    0.019827 0.428132 0.241394 0.114890
H33   H     H_    0.384638 0.528329 0.376673 0.079378
H34   H     H_    0.865702 0.263780 0.426862 0.007850
H35   H     H_    0.266271 0.870944 0.314056 0.111466
H36   H     H_    0.828825 0.467432 0.620214 0.074642
H37   H     H_    0.857013 0.952674 0.562738 0.100630
H38   H     H_    0.797573 0.260626 0.528985 0.050216
H39   H     H_    0.384884 0.726305 0.468905 0.066258
H40   H     H_    0.957841 0.819387 0.237912 0.149177
H41   H     H_    0.067680 0.950542 0.259673 0.140075
H42   H     H_    0.332194 0.738582 0.574889 0.003675
H43   H     H_    0.124842 0.761597 0.562490 0.065279
H44   H     H_    0.032823 0.933023 0.638802 -0.011284
H45   H     H_    0.070890 0.235234 0.436677 0.070136
H46   H     H_    0.430070 0.751387 0.291969 0.270398
H47   H     H_    0.225139 0.187339 0.269060 0.002577
H48   H     H_    0.664968 0.619099 0.195560 0.022821
H49   H     H_    0.264566 0.766246 0.918075 0.337741
H50   H     H_    0.201167 0.067907 0.434136 0.027497
H51   H     H_    0.783285 0.100595 0.367435 0.129408
H52   H     H_    0.898180 0.065834 0.427171 0.079955
H53   H     H_    0.992803 0.076117 0.356342 0.162089
H54   H     H_    0.834463 0.673015 0.630104 0.001277
N1    N     N_R   0.980334 0.490267 0.850933 -0.424758
N2    N     N_R   0.200235 0.500089 0.150686 -0.406304
O1    O     O_2   0.890290 0.440320 0.360790 -0.455400
O2    O     O_2   0.189016 0.119040 0.543975 -0.502280
O3    O     O_3   0.078488 0.141519 0.649977 -0.603133
O4    O     O_3   0.130840 0.441440 0.431840 -0.498999
O5    O     O_3   0.574800 0.630800 0.528960 -0.491896
O6    O     O_2   0.344900 0.234690 0.472540 -0.489685
O7    O     O_3   0.531430 0.213416 0.374842 -0.609018
O8    O     O_2   0.438297 0.461233 0.708050 -0.493875
O9    O     O_3   0.439000 0.257939 0.703675 -0.595678
O10   O     O_2   0.051527 0.666138 0.859232 -0.561545
O11   O     O_2   0.894935 0.315578 0.851929 -0.626285
O12   O     O_3   0.675896 0.779126 0.621445 -0.641978
O13   O     O_2   0.130247 0.323390 0.139970 -0.590173
O14   O     O_2   0.255964 0.677306 0.155554 -0.626348
O15   O     O_3   0.672400 0.637930 0.395560 -0.458628
O16   O     O_2   0.812578 0.560508 0.295617 -0.493762
O17   O     O_3   0.016244 0.271516 0.354390 -0.636071
O18   O     O_3   0.723256 0.742325 0.293386 -0.618207
O19   O     O_2   0.844800 0.765340 0.527490 -0.471073
O20   O     O_3   0.090520 0.693800 0.424220 -0.466226
O21   O     O_2   0.025961 0.877106 0.469723 -0.503384
O22   O     O_2   0.197811 0.967419 0.704065 -0.582070
O23   O     O_3   0.044795 0.859474 0.356716 -0.591672
O24   O     O_3   0.472643 0.776895 0.332404 -0.818016
O25   O     O_2   0.393201 0.102907 0.234003 -0.552453
O26   O     O_2   0.537430 0.524490 0.132698 -0.575095
O27   O     O_3   0.199741 0.779895 0.954255 -0.672497
O28   O     O_2   0.327944 0.045270 0.360641 -0.609127
O29   O     O_2   0.299410 0.559720 0.639240 -0.451644
O30   O     O_3   0.058870 0.558650 0.568170 -0.502808
O31   O     O_3   0.517310 0.362160 0.604450 -0.463617
O32   O     O_3   0.176426 0.727868 0.645951 -0.620578
O33   O     O_3   0.614910 0.369290 0.471050 -0.481552
O34   O     O_3   0.099190 0.306290 0.575790 -0.489528
P1    P     P_3+3 0.057140 0.408270 0.369700 0.989253
P2    P     P_3+3 0.667360 0.749400 0.544670 0.965590
P3    P     P_3+3 0.131155 0.827410 0.421254 0.973481
P4    P     P_3+3 0.132580 0.591820 0.630310 0.992790
P5    P     P_3+3 0.051425 0.169231 0.577931 0.928665
P6    P     P_3+3 0.669717 0.618796 0.318319 0.996488
P7    P     P_3+3 0.529113 0.237837 0.451818 0.953807
P8    P     P_3+3 0.538183 0.375742 0.680919 0.956687

loop_
_geom_bond_atom_site_label_1
_geom_bond_atom_site_label_2
_ccdc_geom_bond_type
C46   H52   S    
C21   P4    S    
C48   H5    S    
C51   O26   D    
C48   H6    S    
C33   C37   A    
C23   H9    S    
C19   C24   D    
C31   H36   S    
Ba2   O4    S    
C54   H20   S    
C5    C6    A    
C20   P8    S    
C42   C43   A    
C49   H44   S    
C47   O12   S    
C37   P2    S    
C47   H2    S    
C42   P5    S    
C27   C56   A    
C32   H38   S    
C18   O14   D    
Ba1   O15   S    
O15   P6    S    
C53   H19   S    
C41   P7    S    
C44   H34   S    
Ba2   O34   S    
C13   C14   A    
C28   H42   S    
C40   H12   S    
C50   O25   D    
Ba2   O30   S    
C54   C55   S    
Ba1   Ba2   S    
Ba1   O5    S    
C7    C11   A    
O31   P8    S    
C51   H48   S    
C12   O24   S    
C9    H29   S    
C6    C7    A    
C21   C31   D    
O18   P6    S    
C21   C22   D    
Ba1   P1    S    
H49   O27   S    
O33   P7    S    
C56   H33   S    
C34   C50   S    
C40   C49   S    
C53   H17   S    
C4    H35   S    
O5    P2    S    
C46   H51   S    
C19   C20   S    
C26   P6    S    
Ba2   O29   S    
C39   C41   A    
C55   H22   S    
O1    P1    D    
C1    H7    S    
C40   H23   S    
Ba1   O19   S    
C28   O32   S    
O9    P8    S    
C1    H3    S    
C16   H14   S    
C38   C43   A    
C4    C16   S    
C44   C46   S    
O19   P2    D    
C54   O9    S    
C33   C36   A    
C32   C42   A    
C45   H15   S    
C44   O17   S    
Ba2   O6    S    
C14   C15   A    
C12   O18   S    
C17   N2    Am   
Ba2   O33   S    
O6    P7    D    
Ba2   O31   S    
C8    O27   S    
O4    P1    S    
C1    H13   S    
C35   C36   A    
C12   H1    S    
C49   O22   D    
C29   C30   A    
C3    O10   D    
C9    C10   A    
C29   H32   S    
C10   C18   A    
Ba2   P4    S    
C34   H10   S    
C55   H26   S    
Ba1   P2    S    
O16   P6    D    
C5    O11   D    
C22   H30   S    
O2    P5    D    
C1    C12   S    
C13   H28   S    
O32   P4    S    
C35   C52   S    
O29   P4    D    
C52   O28   D    
C50   H47   S    
C6    C13   A    
C47   H54   S    
O3    P5    S    
C14   H27   S    
C48   H4    S    
O17   P1    S    
O34   P5    S    
C53   H18   S    
C2    C8    A    
Ba1   O20   S    
C43   H37   S    
C36   P3    S    
C37   C38   A    
C34   H11   S    
C45   C53   S    
C20   C31   S    
C38   C39   A    
C4    H25   S    
O7    P7    S    
C3    N1    Am   
C25   C30   A    
O8    P8    D    
C28   C40   S    
C23   H8    S    
C19   H31   S    
C45   H16   S    
C22   C24   S    
C2    C3    A    
Ba2   O5    S    
C25   C51   S    
C26   C56   A    
C16   H40   S    
C44   H45   S    
C52   H50   S    
C5    N1    Am   
C4    O23   S    
C24   N1    S    
C54   H21   S    
O30   P4    S    
Ba1   O30   S    
C18   N2    Am   
O12   P2    S    
O21   P3    D    
O20   P3    S    
C28   H43   S    
C17   O13   D    
C15   C17   A    
H46   O24   S    
Ba1   O4    S    
C35   C39   A    
Ba1   O33   S    
C8    C9    A    
C23   C34   S    
C27   P1    S    
C11   C15   A    
C45   O3    S    
C46   H53   S    
C10   C11   A    
C27   C29   A    
C47   C48   S    
C16   H41   S    
C25   C26   A    
C55   H24   S    
O23   P3    S    
Ba1   O1    S    
C30   N2    S    
C2    C7    A    
C33   H39   S    
C23   O7    S    
C32   C41   A    
