data_mof_unit_56858.cif
_audit_creation_date              2012-10-26T19:04:42-0400
_audit_creation_method            fapswitch 2.2
_symmetry_space_group_name_H-M    P1
_symmetry_Int_Tables_number       1
_space_group_crystal_system       triclinic
_cell_length_a                    9.607243
_cell_length_b                    10.776097
_cell_length_c                    13.425269
_cell_angle_alpha                 92.391544
_cell_angle_beta                  72.408055
_cell_angle_gamma                 89.883748
_cell_volume                      1323.58748794

loop_
_atom_site_label
_atom_site_type_symbol
_atom_type_description
_atom_site_fract_x
_atom_site_fract_y
_atom_site_fract_z
_atom_type_partial_charge
C1    C     C_R   0.498705 0.737233 0.502677 0.546157
C2    C     C_R   0.373881 0.485825 0.814540 -0.007233
C3    C     C_R   0.307957 0.880986 0.680442 -0.098538
C4    C     C_R   0.421658 0.493544 0.699769 0.514097
C5    C     C_R   0.217125 0.951056 0.764850 -0.119870
C6    C     C_R   0.218304 0.080153 0.764584 -0.114348
C7    C     C_R   0.310126 0.139904 0.679825 -0.105272
C8    C     C_R   0.402068 0.070775 0.592731 -0.021739
C9    C     C_R   0.401046 0.939702 0.593283 0.011902
C10   C     C_R   0.496219 0.871158 0.507758 -0.029016
C11   C     C_R   0.591706 0.930277 0.424440 -0.138587
C12   C     C_R   0.432682 0.475101 0.979301 0.034874
C13   C     C_R   0.592225 0.059297 0.422240 0.214390
C14   C     C_R   0.497445 0.129003 0.506074 0.043835
C15   C     C_R   0.915622 0.338347 0.358852 -0.074314
C16   C     C_R   0.499498 0.262812 0.501362 0.578219
C17   C     C_R   0.016869 0.259566 0.288984 -0.162019
C18   C     C_R   0.159984 0.258008 0.289621 -0.173774
C19   C     C_R   0.202798 0.335566 0.359820 -0.083076
C20   C     C_R   0.103926 0.419576 0.430991 0.154966
C21   C     C_R   0.954571 0.420246 0.430733 0.143152
C22   C     C_R   0.898074 0.575916 0.566089 -0.000082
C23   C     C_R   0.470850 0.448746 0.869883 0.026204
C24   C     C_R   0.045965 0.576002 0.565978 -0.003520
C25   C     C_R   0.578459 0.497341 0.299992 0.548246
C26   C     C_R   0.787467 0.392716 0.024356 -0.135601
C27   C     C_R   0.622292 0.479265 0.185977 0.001285
C28   C     C_R   0.231809 0.526566 0.870459 -0.143767
C29   C     C_R   0.188111 0.537087 0.978852 -0.148127
C30   C     C_R   0.287428 0.514292 0.033014 -0.120430
C31   C     C_R   0.541039 0.460221 0.030612 0.029016
C32   C     C_R   0.679194 0.406665 0.974859 0.048864
C33   C     C_R   0.706835 0.365628 0.870900 -0.143880
C34   C     C_R   0.603678 0.384767 0.819499 -0.123602
C35   C     C_R   0.517275 0.499339 0.135341 -0.136189
C36   C     C_R   0.758935 0.428355 0.129652 -0.133648
Cu1   Cu    Cu3+1 0.359340 0.500010 0.500010 0.916318
Cu2   Cu    Cu3+1 0.640660 0.499990 0.499990 0.929814
H1    H     H_    0.841615 0.412223 0.167558 0.122823
H2    H     H_    0.314598 0.324921 0.354562 0.194188
H3    H     H_    0.809193 0.319189 0.828769 0.110381
H4    H     H_    0.893148 0.351891 0.982124 0.106246
H5    H     H_    0.417094 0.545753 0.179907 0.123637
H6    H     H_    0.154671 0.552805 0.830280 0.125499
H7    H     H_    0.245908 0.525197 0.117007 0.109341
H8    H     H_    0.077595 0.567016 0.021162 0.120915
H9    H     H_    0.628615 0.345598 0.740624 0.153104
H10   H     H_    0.663694 0.875260 0.359730 0.109380
H11   H     H_    0.740348 0.056850 0.285820 0.315056
H12   H     H_    0.305637 0.780972 0.684881 0.124603
H13   H     H_    0.078206 0.638370 0.620049 0.110576
H14   H     H_    0.146459 0.904982 0.831115 0.108658
H15   H     H_    0.148536 0.134310 0.830647 0.109086
H16   H     H_    0.309149 0.240253 0.683987 0.130922
H17   H     H_    0.820004 0.638223 0.620288 0.124372
H18   H     H_    0.808352 0.331113 0.353241 0.223640
H19   H     H_    0.983579 0.198676 0.234380 0.136201
H20   H     H_    0.238623 0.195695 0.235653 0.130705
N1    N     N_R   0.852480 0.498790 0.499000 -0.250090
N2    N     N_R   0.148360 0.498710 0.498970 -0.243168
O1    O     O_R   0.381190 0.680360 0.500010 -0.496325
O2    O     O_R   0.618760 0.680340 0.500000 -0.493871
O3    O     O_R   0.323240 0.499990 0.650990 -0.517718
O4    O     O_R   0.560820 0.499960 0.650980 -0.509905
O5    O     O_R   0.381240 0.319660 0.500000 -0.530674
O6    O     O_R   0.618810 0.319640 0.499990 -0.497738
O7    O     O_R   0.439180 0.500040 0.349020 -0.521364
O8    O     O_R   0.676760 0.500010 0.349010 -0.520421
O9    O     O_3   0.681170 0.119328 0.337852 -0.732769

loop_
_geom_bond_atom_site_label_1
_geom_bond_atom_site_label_2
_ccdc_geom_bond_type
Cu1   O1    S    
C5    H14   S    
C26   C32   A    
Cu1   Cu2   S    
C3    C9    A    
C27   C36   A    
C20   N2    A    
C35   H5    S    
C9    C10   A    
C4    O4    A    
C30   H7    S    
C2    C4    S    
C19   C20   A    
C12   C23   A    
C29   H8    S    
C24   N2    A    
C23   C34   A    
C33   H3    S    
C32   C33   A    
C2    C23   A    
C24   H13   S    
C33   C34   A    
C22   H17   S    
C7    C8    A    
H11   O9    S    
C13   C14   A    
C1    O2    A    
C11   C13   A    
C4    O3    A    
C11   H10   S    
C29   C30   A    
C25   O8    A    
C13   O9    S    
C27   C35   A    
Cu1   O7    S    
C22   C24   A    
C26   C36   A    
C28   C29   A    
Cu1   O3    S    
C3    H12   S    
Cu2   O8    S    
C21   N1    A    
C6    C7    A    
C31   C35   A    
C12   C31   A    
C5    C6    A    
C15   H18   S    
C14   C16   S    
Cu1   N2    S    
C25   C27   S    
C10   C11   A    
C6    H15   S    
Cu2   N1    S    
C3    C5    A    
Cu2   O6    S    
C15   C21   A    
C16   O6    A    
C20   C21   A    
C26   H4    S    
C28   H6    S    
C17   C18   A    
C18   C19   A    
C19   H2    S    
C22   N1    A    
C15   C17   A    
Cu2   O4    S    
C8    C9    A    
C2    C28   A    
C34   H9    S    
C8    C14   A    
C7    H16   S    
C12   C30   A    
C16   O5    A    
C18   H20   S    
C36   H1    S    
C1    C10   S    
C31   C32   A    
Cu1   O5    S    
C17   H19   S    
C25   O7    A    
Cu2   O2    S    
C1    O1    A    
