data_mof_unit_66267.cif
_audit_creation_date              2012-12-10T17:51:40-0500
_audit_creation_method            fapswitch 2.2
_symmetry_space_group_name_H-M    P1
_symmetry_Int_Tables_number       1
_space_group_crystal_system       triclinic
_cell_length_a                    18.59631
_cell_length_b                    18.686725
_cell_length_c                    18.790988
_cell_angle_alpha                 109.305006
_cell_angle_beta                  109.366455
_cell_angle_gamma                 109.22904
_cell_volume                      5058.33369156

loop_
_atom_site_label
_atom_site_type_symbol
_atom_type_description
_atom_site_fract_x
_atom_site_fract_y
_atom_site_fract_z
_atom_type_partial_charge
C1    C     C_R   0.620277 0.120257 0.000057 0.862431
C2    C     C_R   0.501629 0.760636 0.681305 -0.185608
C3    C     C_R   0.500787 0.823825 0.744533 -0.185848
C4    C     C_R   0.497403 0.117616 0.119287 0.930866
C5    C     C_R   0.500668 0.814968 0.815423 -0.005560
C6    C     C_R   0.313367 0.828312 0.077207 -0.206208
C7    C     C_R   0.248542 0.764937 0.076904 -0.166358
C8    C     C_R   0.186516 0.686503 0.999562 -0.001531
C9    C     C_R   0.187974 0.671768 0.922209 -0.190139
C10   C     C_R   0.251253 0.736302 0.922069 -0.201315
C11   C     C_R   0.313855 0.813782 0.999692 0.001045
C12   C     C_R   0.822588 0.242592 0.000568 -0.187870
C13   C     C_R   0.620294 0.502606 0.622707 0.858143
C14   C     C_R   0.502545 0.383847 0.385478 0.933907
C15   C     C_R   0.379592 0.503807 0.383220 0.876784
C16   C     C_R   0.379842 0.879744 0.999832 0.856449
C17   C     C_R   0.499912 0.622571 0.622655 0.862647
C18   C     C_R   0.879574 0.500940 0.880613 0.861914
C19   C     C_R   0.879720 0.379886 0.000165 0.860817
C20   C     C_R   0.121182 0.500153 0.118868 0.877192
C21   C     C_R   0.120318 0.620270 0.999773 0.874840
C22   C     C_R   0.757583 0.581530 0.759290 -0.184603
C23   C     C_R   0.813869 0.314068 0.000701 -0.008936
C24   C     C_R   0.820658 0.581123 0.823685 -0.185124
C25   C     C_R   0.813246 0.501528 0.815297 -0.010358
C26   C     C_R   0.742640 0.422352 0.743956 -0.185587
C27   C     C_R   0.678203 0.422742 0.680941 -0.184970
C28   C     C_R   0.500199 0.880529 0.880767 0.857487
C29   C     C_R   0.686381 0.502321 0.688546 -0.006496
C30   C     C_R   0.336759 0.535992 0.264603 -0.219916
C31   C     C_R   0.273782 0.534062 0.197654 -0.007279
C32   C     C_R   0.187621 0.499638 0.183608 -0.044604
C33   C     C_R   0.164698 0.467047 0.234387 -0.205036
C34   C     C_R   0.741929 0.322269 0.000847 -0.186201
C35   C     C_R   0.227547 0.467742 0.299751 -0.177882
C36   C     C_R   0.313596 0.502581 0.315072 -0.045049
C37   C     C_2   0.493795 0.242904 0.320600 -0.156521
C38   C     C_2   0.511167 0.320201 0.325302 -0.333985
C39   C     C_2   0.505047 0.181305 0.259066 -0.156466
C40   C     C_2   0.488640 0.177759 0.182748 -0.334221
C41   C     C_R   0.759228 0.179169 0.001734 -0.185533
C42   C     C_R   0.300671 0.571051 0.146242 0.080993
C43   C     C_R   0.359717 0.660389 0.186318 -0.179762
C44   C     C_R   0.388304 0.695065 0.139114 -0.130604
C45   C     C_R   0.677215 0.257486 0.999306 -0.184265
C46   C     C_R   0.357963 0.640964 0.051642 -0.090820
C47   C     C_R   0.299521 0.551942 0.011419 -0.140333
C48   C     C_R   0.271493 0.516839 0.058651 -0.107618
C49   C     C_R   0.686506 0.186576 0.000346 -0.008296
C50   C     C_R   0.500142 0.743081 0.823280 -0.190802
C51   C     C_R   0.498349 0.678563 0.758699 -0.187717
C52   C     C_R   0.499735 0.688061 0.688416 -0.007751
H1    H     H_    0.474912 0.226300 0.364262 0.161879
H2    H     H_    0.875762 0.642386 0.878946 0.144616
H3    H     H_    0.736983 0.360750 0.737881 0.143360
H4    H     H_    0.539664 0.340715 0.288748 0.157292
H5    H     H_    0.622998 0.361456 0.625795 0.139947
H6    H     H_    0.403534 0.562451 0.276388 0.161721
H7    H     H_    0.098139 0.441047 0.223175 0.138251
H8    H     H_    0.209256 0.442244 0.338870 0.157220
H9    H     H_    0.523152 0.136661 0.274886 0.161212
H10   H     H_    0.460804 0.215226 0.162859 0.156780
H11   H     H_    0.765970 0.123866 0.002214 0.144081
H12   H     H_    0.497351 0.622289 0.764049 0.143388
H13   H     H_    0.878747 0.236757 0.000819 0.142805
H14   H     H_    0.735329 0.377692 0.000575 0.143037
H15   H     H_    0.620861 0.263128 0.998645 0.142388
H16   H     H_    0.499573 0.736422 0.878269 0.139446
H17   H     H_    0.383670 0.703002 0.254063 0.135115
H18   H     H_    0.433645 0.763988 0.170227 0.137199
H19   H     H_    0.379667 0.668051 0.015046 0.133218
H20   H     H_    0.276400 0.510026 0.943784 0.127420
H21   H     H_    0.227960 0.447410 0.027268 0.139884
H22   H     H_    0.502397 0.767485 0.626454 0.143367
H23   H     H_    0.501483 0.879942 0.738996 0.143493
H24   H     H_    0.362261 0.888766 0.137168 0.132759
H25   H     H_    0.247925 0.776166 0.137032 0.147565
H26   H     H_    0.139687 0.611224 0.862176 0.149394
H27   H     H_    0.252397 0.725572 0.862228 0.139699
H28   H     H_    0.763396 0.643104 0.765119 0.144358
O1    O     O_R   0.539900 0.091920 0.948590 -0.625091
O2    O     O_R   0.908310 0.551980 0.960300 -0.623477
O3    O     O_R   0.908280 0.357000 0.948510 -0.623550
O4    O     O_R   0.643340 0.091290 0.051390 -0.619642
O5    O     O_R   0.908310 0.459790 0.051330 -0.621556
O6    O     O_R   0.091510 0.448020 0.039520 -0.632691
O7    O     O_R   0.091540 0.550800 0.142340 -0.617470
O8    O     O_R   0.091520 0.540220 0.948490 -0.624225
O9    O     O_R   0.091540 0.643000 0.051310 -0.629164
O10   O     O_R   0.448270 0.091350 0.039630 -0.623378
O11   O     O_R   0.551710 0.090720 0.142430 -0.615589
O12   O     O_R   0.643360 0.554400 0.594170 -0.620402
O13   O     O_R   0.356660 0.908710 0.948610 -0.616307
O14   O     O_R   0.460100 0.908080 0.051410 -0.633061
O15   O     O_R   0.448290 0.909280 0.857570 -0.622681
O16   O     O_R   0.551730 0.908650 0.960370 -0.624370
O17   O     O_R   0.539910 0.450960 0.594180 -0.627980
O18   O     O_R   0.448310 0.360490 0.412110 -0.616554
O19   O     O_R   0.551750 0.463920 0.412090 -0.622229
O20   O     O_R   0.356690 0.452080 0.412090 -0.624381
O21   O     O_R   0.460130 0.555510 0.412070 -0.630624
O22   O     O_R   0.448290 0.542560 0.594160 -0.623157
O23   O     O_R   0.551730 0.645990 0.594150 -0.624120
O24   O     O_R   0.908290 0.449200 0.857490 -0.622974
Zn1   Zn    Zn3+2 0.430930 0.000420 0.931360 0.954218
Zn2   Zn    Zn3+2 0.569070 0.999580 0.068640 0.945602
Zn3   Zn    Zn3+2 0.430950 0.434180 0.503140 0.948281
Zn4   Zn    Zn3+2 0.569090 0.572300 0.503120 0.950880
Zn5   Zn    Zn3+2 0.999890 0.431370 0.931260 0.942096
Zn6   Zn    Zn3+2 0.999930 0.568630 0.068560 0.954366

loop_
_geom_bond_atom_site_label_1
_geom_bond_atom_site_label_2
_ccdc_geom_bond_type
C22   C29   A    
C27   C29   A    
C35   C36   A    
C15   O20   A    
C43   C44   A    
C26   H3    S    
C34   H14   S    
C7    C8    A    
O7    Zn6   S    
C21   O9    A    
C1    O4    A    
O19   Zn4   S    
C12   C23   A    
C16   O13   A    
C12   C41   A    
C28   O15   A    
O2    Zn6   S    
C13   C29   S    
C31   C42   S    
O24   Zn5   S    
C33   C35   A    
C24   H2    S    
C20   O7    A    
C40   H10   S    
O15   Zn1   S    
O13   Zn1   S    
O12   Zn4   S    
C4    C40   S    
C8    C9    A    
C20   O6    A    
C45   H15   S    
O4    Zn2   S    
O3    Zn5   S    
C44   H18   S    
O23   Zn4   S    
C3    H23   S    
C9    C10   A    
C2    H22   S    
C7    H25   S    
C4    O11   A    
C37   H1    S    
O21   Zn4   S    
C21   O8    A    
C33   H7    S    
O11   Zn2   S    
C18   C25   S    
C19   O3    A    
C17   C52   S    
C41   C49   A    
C44   C46   A    
C14   O18   A    
C4    O10   A    
C39   H9    S    
O1    Zn1   S    
C51   C52   A    
C14   O19   A    
O6    Zn5   S    
C24   C25   A    
O5    Zn6   S    
C27   H5    S    
C39   C40   D    
C18   O24   A    
C19   O5    A    
C25   C26   A    
O9    Zn6   S    
O18   Zn3   S    
C35   H8    S    
C19   C23   S    
C17   O22   A    
C37   C38   D    
C14   C38   S    
C5    C28   S    
C11   C16   S    
C47   C48   A    
C45   C49   A    
C23   C34   A    
C50   C51   A    
C26   C27   A    
O22   Zn3   S    
C34   C45   A    
C42   C48   A    
C15   O21   A    
C46   H19   S    
C2    C52   A    
O8    Zn5   S    
C13   O12   A    
C22   C24   A    
C5    C50   A    
C42   C43   A    
C41   H11   S    
C15   C36   S    
C6    C11   A    
C20   C32   S    
O16   Zn2   S    
C46   C47   A    
O14   Zn2   S    
O20   Zn3   S    
C48   H21   S    
C31   C32   A    
C51   H12   S    
O10   Zn1   S    
C3    C5    A    
C8    C21   S    
C10   H27   S    
C6    H24   S    
C6    C7    A    
C12   H13   S    
C16   O14   A    
C30   C36   A    
C28   O16   A    
C32   C33   A    
C2    C3    A    
C17   O23   A    
C22   H28   S    
C37   C39   S    
C30   C31   A    
C50   H16   S    
C30   H6    S    
C1    C49   S    
C18   O2    A    
C9    H26   S    
C13   O17   A    
C47   H20   S    
C10   C11   A    
O17   Zn3   S    
C38   H4    S    
C43   H17   S    
C1    O1    A    
