data_mof_unit_6027.cif
_audit_creation_date              2012-12-11T16:53:50-0500
_audit_creation_method            fapswitch 2.2
_symmetry_space_group_name_H-M    P1
_symmetry_Int_Tables_number       1
_space_group_crystal_system       triclinic
_cell_length_a                    14.839124
_cell_length_b                    14.735252
_cell_length_c                    17.058824
_cell_angle_alpha                 108.542645
_cell_angle_beta                  105.56913
_cell_angle_gamma                 107.934118
_cell_volume                      3074.63246264

loop_
_atom_site_label
_atom_site_type_symbol
_atom_type_description
_atom_site_fract_x
_atom_site_fract_y
_atom_site_fract_z
_atom_type_partial_charge
C1    C     C_R   0.092102 0.276221 0.048790 -0.225697
C2    C     C_R   0.061929 0.545922 0.263697 -0.229548
C3    C     C_R   0.273419 0.788150 0.176019 -0.141085
C4    C     C_R   0.936168 0.518391 0.747007 -0.122725
C5    C     C_R   0.696714 0.404752 0.993674 -0.027623
C6    C     C_R   0.324046 0.785648 0.254226 0.054392
C7    C     C_R   0.639208 0.438651 0.941540 0.041211
C8    C     C_R   0.969465 0.529744 0.274817 -0.067383
C9    C     C_R   0.988805 0.824971 0.018087 0.021916
C10   C     C_R   0.394376 0.463334 0.871252 0.165505
C11   C     C_R   0.348309 0.416771 0.918950 0.035073
C12   C     C_R   0.026921 0.580014 0.745271 0.067190
C13   C     C_R   0.375579 0.340095 0.937062 -0.202867
C14   C     C_R   0.465753 0.333847 0.931265 -0.187893
C15   C     C_R   0.527562 0.404303 0.907046 0.057967
C16   C     C_R   0.732258 0.208285 0.819399 -0.076727
C17   C     C_R   0.483169 0.456983 0.865213 0.166955
C18   C     C_3   0.528230 0.567809 0.874393 -0.523100
C19   C     C_3   0.431317 0.574822 0.881077 -0.527926
C20   C     C_R   0.961587 0.572972 0.362368 0.158836
C21   C     C_R   0.035209 0.619965 0.677674 0.130756
C22   C     C_R   0.138800 0.682960 0.601645 -0.230926
C23   C     C_R   0.691518 0.206159 0.736717 0.137252
C24   C     C_R   0.132524 0.669218 0.677193 -0.178647
C25   C     C_R   0.945008 0.597823 0.606889 -0.287168
C26   C     C_R   0.950467 0.605872 0.529125 0.203379
C27   C     C_R   0.047864 0.644088 0.525135 0.187006
C28   C     C_R   0.253993 0.530762 0.944850 -0.147001
C29   C     C_R   0.052656 0.631300 0.442364 -0.282347
C30   C     C_R   0.865171 0.548622 0.368780 -0.159264
C31   C     C_R   0.859748 0.565651 0.452085 -0.264179
C32   C     C_R   0.617415 0.114523 0.656684 -0.097703
C33   C     C_R   0.405583 0.872872 0.332572 0.121573
C34   C     C_R   0.288030 0.459323 0.961369 0.066081
C35   C     C_R   0.585576 0.987736 0.419287 -0.187084
C36   C     C_R   0.504913 0.916204 0.336232 -0.198643
C37   C     C_R   0.383412 0.902882 0.407872 -0.214027
C38   C     C_R   0.462470 0.971829 0.490760 0.082760
C39   C     C_R   0.565672 0.014421 0.497945 0.136768
C40   C     C_R   0.741821 0.303848 0.740572 -0.137750
C41   C     C_R   0.645162 0.083089 0.583149 0.150379
C42   C     C_R   0.516897 0.066494 0.650829 0.518890
C43   C     C_R   0.438738 0.995872 0.566241 -0.406584
C44   C     C_R   0.111908 0.063519 0.001078 0.162300
C45   C     C_R   0.269248 0.691071 0.253035 -0.144228
C46   C     C_R   0.023212 0.074801 0.958971 0.045283
C47   C     C_R   0.948650 0.989135 0.874907 -0.200288
C48   C     C_R   0.969216 0.903802 0.831275 -0.208178
C49   C     C_R   0.064922 0.902897 0.869541 0.043848
C50   C     C_R   0.131459 0.979491 0.957233 0.162588
C51   C     C_3   0.245284 0.043890 0.997460 -0.510464
C52   C     C_R   0.258027 0.440900 0.027606 -0.105618
C53   C     C_3   0.225177 0.136838 0.045772 -0.515390
C54   C     C_R   0.107585 0.604693 0.823697 -0.153889
C55   C     C_R   0.921751 0.191087 0.970286 0.522391
C56   C     C_R   0.705634 0.501963 0.918392 -0.155784
C57   C     C_R   0.011838 0.175262 0.994880 -0.095023
C58   C     C_3   0.757903 0.301357 0.147359 0.125363
C59   C     C_3   0.649555 0.251351 0.144662 -0.238355
C60   C     C_3   0.611453 0.132259 0.114574 -1.053805
C61   C     C_3   0.757920 0.121791 0.595465 -0.982696
C62   C     C_3   0.455695 0.012197 0.745627 0.183325
C63   C     C_3   0.451173 0.052431 0.838174 -0.252011
C64   C     C_3   0.404387 0.960785 0.860251 -1.076125
C65   C     C_3   0.800340 0.059813 0.980390 0.132051
C66   C     C_3   0.692723 0.967196 0.925922 -0.263049
C67   C     C_R   0.889988 0.458975 0.189280 0.517885
C68   C     C_3   0.667039 0.900742 0.976431 -1.025896
C69   C     C_R   0.078269 0.808551 0.040346 -0.111834
C70   C     C_R   0.906905 0.724482 0.963503 -0.107362
H1    H     H_    0.169875 0.295139 0.090685 0.130737
H2    H     H_    0.598293 0.623485 0.938163 0.206615
H3    H     H_    0.857567 0.495740 0.703090 0.084663
H4    H     H_    0.535757 0.569769 0.811775 0.192767
H5    H     H_    0.447121 0.634268 0.948661 0.203982
H6    H     H_    0.383159 0.580992 0.822341 0.192761
H7    H     H_    0.128265 0.657724 0.440768 0.118005
H8    H     H_    0.793230 0.511987 0.310166 0.181842
H9    H     H_    0.214280 0.714632 0.600064 0.122592
H10   H     H_    0.784411 0.539354 0.454821 0.132403
H11   H     H_    0.203806 0.690276 0.731822 0.118543
H12   H     H_    0.684713 0.525719 0.865014 0.105601
H13   H     H_    0.869546 0.564458 0.607653 0.116290
H14   H     H_    0.699533 0.149131 0.840528 0.162836
H15   H     H_    0.662544 0.020040 0.421073 0.144099
H16   H     H_    0.359155 0.962743 0.558894 0.153608
H17   H     H_    0.520230 0.891398 0.276133 0.127766
H18   H     H_    0.304414 0.867910 0.402058 0.126797
H19   H     H_    0.878065 0.991426 0.838736 0.176219
H20   H     H_    0.914028 0.842626 0.764591 0.137436
H21   H     H_    0.287471 0.018302 0.044086 0.187683
H22   H     H_    0.275438 0.053410 0.946155 0.210155
H23   H     H_    0.156466 0.869761 0.080393 0.096089
H24   H     H_    0.256768 0.165575 0.120433 0.191675
H25   H     H_    0.260373 0.561007 0.895995 0.112768
H26   H     H_    0.244893 0.199190 0.022160 0.189158
H27   H     H_    0.724005 0.331114 0.689030 0.108200
H28   H     H_    0.278468 0.394359 0.060284 0.083766
H29   H     H_    0.186285 0.664142 0.850742 0.091615
H30   H     H_    0.293178 0.660783 0.301049 0.097946
H31   H     H_    0.812587 0.289682 0.198357 0.099019
H32   H     H_    0.756888 0.260929 0.079572 0.104049
H33   H     H_    0.651427 0.289096 0.213182 0.198601
H34   H     H_    0.826118 0.707265 0.932584 0.095961
H35   H     H_    0.593994 0.265444 0.097116 0.192917
H36   H     H_    0.605978 0.092860 0.045083 0.281178
H37   H     H_    0.533319 0.098896 0.114444 0.273674
H38   H     H_    0.665153 0.115843 0.161536 0.269110
H39   H     H_    0.773490 0.053107 0.563770 0.245715
H40   H     H_    0.774613 0.176627 0.563776 0.246501
H41   H     H_    0.813560 0.163025 0.667366 0.262846
H42   H     H_    0.506843 0.970303 0.747425 0.078246
H43   H     H_    0.375889 0.955322 0.694206 0.109221
H44   H     H_    0.530698 0.107125 0.891040 0.183918
H45   H     H_    0.139716 0.593829 0.314634 0.129374
H46   H     H_    0.402847 0.096965 0.838492 0.211590
H47   H     H_    0.321726 0.910813 0.812730 0.276747
H48   H     H_    0.408946 0.992637 0.930234 0.280443
H49   H     H_    0.447208 0.910751 0.855338 0.273855
H50   H     H_    0.802122 0.114176 0.043957 0.095838
H51   H     H_    0.857026 0.027152 0.998133 0.119134
H52   H     H_    0.634255 0.998552 0.911633 0.196894
H53   H     H_    0.689071 0.915644 0.860262 0.200171
H54   H     H_    0.722174 0.864704 0.987411 0.267130
H55   H     H_    0.587344 0.836050 0.935798 0.275512
H56   H     H_    0.300277 0.847465 0.152835 0.093670
H57   H     H_    0.671157 0.950460 0.042856 0.274883
H58   H     H_    0.665143 0.338801 0.007947 0.105740
H59   H     H_    0.336538 0.295722 0.966979 0.126222
H60   H     H_    0.493088 0.285257 0.957733 0.115370
N1    N     N_R   0.055640 0.348550 0.045600 -0.060776
N2    N     N_R   0.811290 0.303400 0.871650 -0.054570
N3    N     N_R   0.205180 0.552990 0.997660 -0.040536
N4    N     N_R   0.814810 0.361830 0.823710 -0.048731
N5    N     N_R   0.201660 0.494570 0.045600 -0.034914
N6    N     N_R   0.068420 0.560530 0.871650 -0.038137
N7    N     N_R   0.948050 0.295860 0.997660 -0.094444
N8    N     N_R   0.185190 0.638170 0.176290 -0.031732
N9    N     N_R   0.798340 0.505430 0.954400 -0.043629
N10   N     N_R   0.931580 0.439470 0.128350 -0.109106
N11   N     N_R   0.051950 0.704140 0.002340 -0.041732
N12   N     N_R   0.944360 0.651450 0.954400 -0.041512
N13   N     N_R   0.039170 0.492150 0.176290 -0.064017
N14   N     N_R   0.188710 0.696600 0.128350 -0.037276
N15   N     N_R   0.794820 0.447010 0.002340 -0.048263
N16   N     N_R   0.960830 0.507850 0.823710 -0.038273
Ni1   Ni    Ni4+2 0.119330 0.493420 0.109950 0.200342
Ni2   Ni    Ni4+2 0.880670 0.506580 0.890050 0.203721
Ni3   Ni    Ni4+2 0.872590 0.372590 0.000000 0.213209
Ni4   Ni    Ni4+2 0.127410 0.627410 0.000000 0.210597
O1    O     O_3   0.786303 0.410077 0.170596 -0.694035
O2    O     O_3   0.494589 0.099133 0.726192 -0.659756
O3    O     O_3   0.820957 0.113968 0.927572 -0.709610

loop_
_geom_bond_atom_site_label_1
_geom_bond_atom_site_label_2
_ccdc_geom_bond_type
C66   C68   S    
C2    N13   A    
C6    C45   A    
C27   C29   A    
C35   H15   S    
C37   H18   S    
C35   C36   A    
N10   N13   A    
C41   C61   S    
C3    C6    A    
C61   H39   S    
C68   H54   S    
C3    H56   S    
C31   H10   S    
C39   C41   A    
C20   C30   A    
N13   Ni1   S    
C26   C27   A    
C8    C20   S    
C64   H49   S    
C62   O2    S    
C28   H25   S    
C19   H6    S    
C9    C69   A    
C22   H9    S    
C69   H23   S    
C30   C31   A    
C70   H34   S    
C10   C17   A    
C69   N11   A    
C23   C40   A    
C16   H14   S    
C33   C36   A    
C64   H48   S    
C15   C17   A    
C18   C19   S    
N15   Ni3   S    
N14   Ni4   S    
C51   H21   S    
C63   H44   S    
C44   C53   S    
C65   O3    S    
C32   C41   A    
C66   H52   S    
N1    Ni1   S    
C58   H32   S    
C65   H51   S    
C4    C12   A    
C42   O2    S    
N8    Ni1   S    
C60   H38   S    
C7    C15   S    
C4    N16   A    
C59   C60   S    
C18   H4    S    
C48   H20   S    
C13   C14   A    
C53   H26   S    
N2    Ni3   S    
C47   H19   S    
N7    Ni3   S    
C7    C56   A    
C61   H40   S    
C44   C46   A    
N11   Ni4   S    
C50   C51   S    
N16   Ni2   S    
C20   C29   A    
C36   H17   S    
C18   H2    S    
N9    Ni2   S    
C70   N12   A    
C5    N15   A    
N3    Ni4   S    
C67   O1    S    
C28   N3    A    
N12   Ni2   S    
C9    C70   A    
C62   H43   S    
C40   H27   S    
C5    C7    A    
C56   N9    A    
C25   C26   A    
C40   N4    A    
C12   C21   S    
C33   C37   A    
C64   H47   S    
C51   C53   S    
C35   C39   A    
C24   H11   S    
C37   C38   A    
N1    N7    A    
C1    C57   A    
C51   H22   S    
C2    H45   S    
C47   C48   A    
C10   C19   S    
C54   N6    A    
C62   C63   S    
C17   C18   S    
C29   H7    S    
C58   H31   S    
C59   H35   S    
C67   N10   A    
C68   H57   S    
C4    H3    S    
C60   H37   S    
C63   H46   S    
C48   C49   A    
C49   C50   A    
C16   C23   A    
N5    Ni1   S    
C22   C27   A    
C55   C57   A    
C46   C57   S    
C22   C24   A    
C54   H29   S    
C42   C43   A    
C61   H41   S    
C60   H36   S    
C58   O1    S    
C25   H13   S    
C14   H60   S    
C44   C50   A    
C55   O3    S    
C21   C25   A    
C46   C47   A    
N9    N15   A    
C32   C42   A    
C53   H24   S    
C14   C15   A    
C43   H16   S    
C11   C34   S    
C2    C8    A    
C3    N14   A    
C1    N1    A    
C45   H30   S    
N6    Ni4   S    
C56   H12   S    
N4    Ni2   S    
C34   C52   A    
C55   N7    A    
C6    C33   S    
C59   H33   S    
C23   C32   S    
C19   H5    S    
C58   C59   S    
C38   C43   A    
N8    N14   A    
N11   N12   A    
C11   C13   A    
C38   C39   A    
C1    H1    S    
C68   H55   S    
C5    H58   S    
C52   H28   S    
C45   N8    A    
C65   H50   S    
C16   N2    A    
C12   C54   A    
C10   C11   A    
C28   C34   A    
C63   C64   S    
C30   H8    S    
C26   C31   A    
C62   H42   S    
C8    C67   A    
N2    N4    A    
C65   C66   S    
C21   C24   A    
N3    N5    A    
C52   N5    A    
C13   H59   S    
C66   H53   S    
N10   Ni3   S    
N6    N16   A    
