data_mof_unit_18613.cif
_audit_creation_date              2012-12-11T14:39:18-0500
_audit_creation_method            fapswitch 2.2
_symmetry_space_group_name_H-M    P1
_symmetry_Int_Tables_number       1
_space_group_crystal_system       triclinic
_cell_length_a                    7.22115
_cell_length_b                    14.082547
_cell_length_c                    16.257139
_cell_angle_alpha                 89.999642
_cell_angle_beta                  97.650416
_cell_angle_gamma                 89.995214
_cell_volume                      1638.50825993

loop_
_atom_site_label
_atom_site_type_symbol
_atom_type_description
_atom_site_fract_x
_atom_site_fract_y
_atom_site_fract_z
_atom_type_partial_charge
O1    O     O_R   0.525340 0.338340 0.164530 -0.549144
O2    O     O_R   0.474660 0.661660 0.835470 -0.556620
O3    O     O_R   0.974660 0.838340 0.835470 -0.549938
O4    O     O_R   0.025340 0.161660 0.164530 -0.554854
O5    O     O_R   0.253520 0.352000 0.336710 -0.548446
O6    O     O_R   0.746480 0.648000 0.663290 -0.538822
O7    O     O_R   0.246480 0.852000 0.663290 -0.548152
O8    O     O_R   0.753520 0.148000 0.336710 -0.538968
O9    O     O_R   0.083330 0.168380 0.337300 -0.547167
O10   O     O_R   0.916670 0.831620 0.662700 -0.544120
O11   O     O_R   0.416670 0.668380 0.662700 -0.547135
O12   O     O_R   0.583330 0.331620 0.337300 -0.544934
C1    C     C_R   0.432498 0.368613 0.363665 0.646495
C2    C     C_R   0.567515 0.631389 0.636342 0.663390
C3    C     C_R   0.067503 0.868638 0.636363 0.648321
C4    C     C_R   0.932500 0.131340 0.363625 0.660855
O13   O     O_R   0.195840 0.349670 0.165140 -0.492722
O14   O     O_R   0.804160 0.650330 0.834860 -0.482125
O15   O     O_R   0.304160 0.849670 0.834860 -0.492885
O16   O     O_R   0.695840 0.150330 0.165140 -0.485727
C5    C     C_R   0.357760 0.374871 0.139995 0.632697
C6    C     C_R   0.642343 0.625172 0.860245 0.652672
C7    C     C_R   0.142199 0.874910 0.859979 0.632289
C8    C     C_R   0.857721 0.125150 0.139809 0.654764
O17   O     O_3   0.387830 0.193120 0.250910 -0.366290
O18   O     O_3   0.612170 0.806880 0.749090 -0.368754
O19   O     O_3   0.112170 0.693120 0.749090 -0.366298
O20   O     O_3   0.887830 0.306880 0.250910 -0.369396
V1    V     V_3+5 0.113010 0.264540 0.250910 1.538566
V2    V     V_3+5 0.886990 0.735460 0.749090 1.557955
V3    V     V_3+5 0.386990 0.764540 0.749090 1.531042
V4    V     V_3+5 0.613010 0.235460 0.250910 1.568687
H1    H     H_    0.144563 0.826388 0.264255 0.189316
H2    H     H_    0.854168 0.173328 0.735614 0.190988
H3    H     H_    0.356650 0.326443 0.735980 0.175639
H4    H     H_    0.647654 0.672954 0.264494 0.171533
C9    C     C_R   0.875396 0.186549 0.528795 -0.156447
C10   C     C_R   0.124736 0.813414 0.471197 -0.154805
C11   C     C_R   0.625133 0.686461 0.471194 -0.155661
C12   C     C_R   0.375323 0.313463 0.528905 -0.156539
C13   C     C_R   0.845891 0.214645 0.608205 -0.133624
C14   C     C_R   0.153873 0.785249 0.391754 -0.136251
C15   C     C_R   0.655137 0.714444 0.391819 -0.130623
C16   C     C_R   0.346559 0.285300 0.608406 -0.128476
C17   C     C_R   0.877050 0.151142 0.674016 -0.060836
C18   C     C_R   0.122123 0.848656 0.325891 -0.068980
C19   C     C_R   0.624274 0.650873 0.326054 -0.061207
C20   C     C_R   0.378558 0.348710 0.674265 -0.072190
C21   C     C_R   0.938427 0.059205 0.660890 -0.140749
C22   C     C_R   0.060709 0.940596 0.339011 -0.103898
C23   C     C_R   0.562570 0.559002 0.339179 -0.137819
C24   C     C_R   0.439663 0.440672 0.661056 -0.111203
C25   C     C_R   0.968588 0.028636 0.580742 0.043069
C26   C     C_R   0.031151 0.971269 0.419212 0.041201
C27   C     C_R   0.531830 0.528554 0.419287 0.041615
C28   C     C_R   0.468949 0.471322 0.580811 0.044626
C29   C     C_R   0.936369 0.093303 0.513530 0.059212
C30   C     C_R   0.063640 0.906645 0.486450 0.058121
C31   C     C_R   0.563930 0.593265 0.486467 0.058088
C32   C     C_R   0.436375 0.406680 0.513594 0.057745
C33   C     C_R   0.032256 0.935673 0.566903 -0.158765
C34   C     C_R   0.967728 0.064279 0.433075 -0.158817
C35   C     C_R   0.467795 0.435659 0.433123 -0.159011
C36   C     C_R   0.532334 0.564316 0.566910 -0.160136
H5    H     H_    0.850887 0.238907 0.479850 0.116398
H6    H     H_    0.149550 0.761109 0.520173 0.118239
H7    H     H_    0.649499 0.738857 0.520110 0.116665
H8    H     H_    0.350384 0.261153 0.479941 0.117947
H9    H     H_    0.799301 0.286170 0.618751 0.149824
H10   H     H_    0.200522 0.713730 0.381209 0.144463
H11   H     H_    0.701940 0.785923 0.381268 0.148912
H12   H     H_    0.300079 0.213767 0.619002 0.143601
H13   H     H_    0.962451 0.012700 0.714221 0.115048
H14   H     H_    0.036138 0.987016 0.285635 0.123756
H15   H     H_    0.538816 0.512444 0.285880 0.114497
H16   H     H_    0.464360 0.487105 0.714417 0.117933
H17   H     H_    0.074187 0.102894 0.024901 0.192207
H18   H     H_    0.938943 0.894047 0.979897 0.189474
H19   H     H_    0.422174 0.601845 0.973644 0.196249
H20   H     H_    0.557965 0.393255 0.018933 0.195637
C37   C     C_2   0.143160 0.956957 0.917787 0.270114
C38   C     C_2   0.856366 0.043732 0.080998 0.295990
C39   C     C_2   0.356667 0.456935 0.082231 0.267322
C40   C     C_2   0.643963 0.543987 0.919325 0.294784
C41   C     C_2   0.019519 0.958010 0.974012 -0.106774
C42   C     C_2   0.986751 0.040815 0.027825 -0.124751
C43   C     C_2   0.478908 0.457595 0.025413 -0.125538
C44   C     C_2   0.511627 0.540386 0.971580 -0.153043
S1    S     S_3+6 0.706726 0.945557 0.092566 0.034074
O21   O     O_2   0.565696 0.969741 0.149476 -0.316289
O22   O     O_2   0.606349 0.916581 0.009395 -0.293943
O23   O     O_3   0.838168 0.854084 0.133106 -0.519718
H21   H     H_    0.748339 0.801993 0.138429 0.376434
S2    S     S_3+6 0.279235 0.058291 0.899688 0.051760
O24   O     O_2   0.150845 0.138820 0.869899 -0.356195
O25   O     O_2   0.396085 0.088122 0.978889 -0.266711
O26   O     O_3   0.421150 0.035720 0.827899 -0.464498
H22   H     H_    0.339621 0.038778 0.773890 0.317167
S3    S     S_3+6 0.798381 0.447268 0.909670 0.036468
O27   O     O_2   0.890653 0.417211 0.994008 -0.295193
O28   O     O_2   0.686969 0.365425 0.869675 -0.345075
O29   O     O_3   0.964069 0.476811 0.850668 -0.487058
H23   H     H_    0.044662 0.419851 0.850905 0.365810
S4    S     S_3+6 0.223068 0.558823 0.101342 0.043909
O30   O     O_2   0.353396 0.638926 0.130146 -0.357515
O31   O     O_2   0.103766 0.588962 0.022878 -0.270781
O32   O     O_3   0.084010 0.536863 0.174388 -0.468506
H24   H     H_    0.167550 0.539472 0.227871 0.316553

loop_
_geom_bond_atom_site_label_1
_geom_bond_atom_site_label_2
_ccdc_geom_bond_type
C39   C43   D    
C43   C44   S    
O1    C5    A    
C12   C32   A    
C27   C31   A    
O13   V1    S    
O3    C7    A    
O15   V3    S    
S4    O31   D    
O26   H22   S    
C29   C34   A    
C41   C42   S    
C31   C36   A    
C22   C26   A    
C38   S1    S    
C32   C35   A    
O20   V1    S    
O9    C4    A    
C23   H15   S    
C10   C14   A    
H20   C43   S    
O10   C3    A    
C22   H14   S    
O16   V4    S    
O4    C8    A    
O11   C2    A    
C14   H10   S    
H4    C19   S    
C14   C18   A    
C8    C38   S    
H19   C44   S    
C10   C30   A    
C25   C33   A    
C10   H6    S    
C9    H5    S    
O2    C6    A    
O32   H24   S    
C28   C36   A    
O14   V2    S    
S1    O22   D    
O5    C1    A    
O4    V1    S    
O9    V1    S    
C30   C33   A    
O7    C3    A    
O11   V3    S    
O18   V3    S    
O8    C4    A    
O12   V4    S    
O19   V2    S    
H1    C18   S    
O29   H23   S    
C4    C34   S    
H3    C20   S    
S4    O30   D    
O5    V1    S    
O7    V3    S    
C39   S4    S    
O8    V4    S    
C5    C39   S    
C25   C29   A    
C19   C23   A    
C26   C34   A    
S2    O26   S    
C38   C42   D    
O1    V4    S    
O13   C5    A    
C28   C32   A    
C27   C35   A    
O2    V3    S    
C6    C40   S    
O3    V2    S    
O15   C7    A    
O6    C2    A    
O10   V2    S    
S3    O27   D    
C1    C35   S    
C17   C21   A    
C11   C31   A    
C3    C33   S    
H2    C17   S    
S1    O23   S    
S2    O25   D    
C2    C36   S    
H18   C41   S    
O6    V2    S    
H17   C42   S    
C21   H13   S    
C13   H9    S    
C26   C30   A    
C15   H11   S    
C7    C37   S    
S3    O28   D    
O14   C6    A    
C40   S3    S    
C11   H7    S    
C40   C44   D    
C24   H16   S    
C11   C15   A    
C18   C22   A    
C37   S2    S    
O17   V4    S    
C21   C25   A    
O23   H21   S    
C16   H12   S    
C23   C27   A    
C9    C13   A    
S2    O24   D    
C37   C41   D    
C16   C20   A    
C12   C16   A    
S3    O29   S    
O12   C1    A    
C12   H8    S    
C13   C17   A    
S1    O21   D    
C20   C24   A    
C15   C19   A    
O16   C8    A    
S4    O32   S    
C9    C29   A    
C24   C28   A    
