data_mof_unit_34095.cif
_audit_creation_date              2013-03-05T16:06:19-0500
_audit_creation_method            fapswitch 2.2
_symmetry_space_group_name_H-M    P1
_symmetry_Int_Tables_number       1
_space_group_crystal_system       triclinic
_cell_length_a                    10.848521
_cell_length_b                    9.482523
_cell_length_c                    27.732515
_cell_angle_alpha                 90.948368
_cell_angle_beta                  92.039118
_cell_angle_gamma                 90.01134
_cell_volume                      2850.68328092

loop_
_atom_site_label
_atom_site_type_symbol
_atom_site_description
_atom_site_fract_x
_atom_site_fract_y
_atom_site_fract_z
_atom_type_partial_charge
O1    O     O_R   0.319640 0.618740 0.500000 -0.584373
O2    O     O_R   0.680360 0.381260 0.500000 -0.587048
O3    O     O_R   0.680360 0.618740 0.500000 -0.592593
O4    O     O_R   0.319640 0.381260 0.500000 -0.590865
C1    C     C_R   0.261922 0.499987 0.499894 0.810594
C2    C     C_R   0.738080 0.500013 0.500098 0.803167
O5    O     O_R   0.500020 0.618770 0.430260 -0.581828
O6    O     O_R   0.499980 0.381230 0.569740 -0.583962
O7    O     O_R   0.499980 0.618770 0.569740 -0.564448
O8    O     O_R   0.500020 0.381230 0.430260 -0.563860
C3    C     C_R   0.495934 0.498547 0.407054 0.832511
C4    C     C_R   0.502050 0.501432 0.592971 0.837194
Cu1   Cu    Cu3+1 0.500000 0.640660 0.500000 0.977915
Cu2   Cu    Cu3+1 0.500000 0.359340 0.500000 0.981251
C5    C     C_R   0.377820 0.531027 0.172078 0.669870
C6    C     C_R   0.639955 0.494092 0.826523 0.673362
O9    O     O_2   0.270795 0.553920 0.193992 -0.412868
O10   O     O_2   0.744928 0.515757 0.803323 -0.414319
N1    N     N_R   0.482043 0.508497 0.200191 -0.462984
N2    N     N_R   0.532906 0.474424 0.799586 -0.458424
C7    C     C_R   0.593454 0.482356 0.180646 0.646852
C8    C     C_R   0.425113 0.439115 0.820133 0.640821
C9    C     C_R   0.497378 0.625436 0.278842 -0.121933
C10   C     C_R   0.533468 0.366515 0.719700 -0.126963
C11   C     C_R   0.503535 0.622245 0.328925 -0.179336
C12   C     C_R   0.521770 0.373161 0.669893 -0.180988
C13   C     C_R   0.459422 0.370228 0.325931 -0.133446
C14   C     C_R   0.511158 0.629853 0.675307 -0.145876
C15   C     C_R   0.454056 0.373155 0.274811 0.385914
C16   C     C_R   0.520057 0.622607 0.726463 0.391638
C17   C     C_R   0.474233 0.502513 0.251625 0.207017
C18   C     C_R   0.532265 0.489087 0.748161 0.207761
C19   C     C_R   0.495802 0.483391 0.100782 -0.081759
C20   C     C_R   0.527392 0.452210 0.899136 -0.086787
C21   C     C_R   0.382030 0.522339 0.120967 -0.138909
C22   C     C_R   0.639727 0.489084 0.877747 -0.141141
C23   C     C_R   0.278626 0.547290 0.089041 0.423604
C24   C     C_R   0.744244 0.521498 0.908731 0.417610
C25   C     C_R   0.602203 0.467179 0.130735 -0.070415
C26   C     C_R   0.420419 0.426537 0.870056 -0.070173
C27   C     C_R   0.486642 0.495577 0.353337 -0.176920
C28   C     C_R   0.510043 0.503234 0.646721 -0.177448
C29   C     C_R   0.404631 0.425201 0.971041 -0.032849
C30   C     C_R   0.620349 0.438166 0.029931 -0.036853
C31   C     C_R   0.628247 0.456014 0.979406 0.024149
C32   C     C_R   0.396152 0.460870 0.020665 0.026431
C33   C     C_R   0.520371 0.443593 0.949834 0.044384
C34   C     C_R   0.504055 0.460856 0.050472 0.042680
C35   C     C_R   0.303497 0.378486 0.941073 0.355519
C36   C     C_R   0.722269 0.404457 0.061166 0.354131
C37   C     C_R   0.311311 0.385160 0.891146 -0.149742
C38   C     C_R   0.713312 0.425625 0.110776 -0.145601
O11   O     O_2   0.322266 0.417654 0.792083 -0.484815
O12   O     O_2   0.694750 0.466460 0.209775 -0.478350
C39   C     C_R   0.286550 0.511933 0.039954 -0.122028
C40   C     C_R   0.737072 0.501284 0.958537 -0.126351
H1    H     H_    0.522471 0.274857 0.649450 0.187106
H2    H     H_    0.523493 0.719703 0.348595 0.183678
H3    H     H_    0.541233 0.264530 0.736583 0.174217
H4    H     H_    0.513675 0.723886 0.260865 0.167734
H5    H     H_    0.231896 0.353826 0.868654 0.241623
H6    H     H_    0.792765 0.402417 0.134098 0.245652
H7    H     H_    0.207878 0.531208 0.016010 0.232211
H8    H     H_    0.815498 0.529396 0.981714 0.233079
C41   C     C_R   0.063726 0.371838 0.499360 -0.148519
C42   C     C_R   0.936287 0.628160 0.500609 -0.155405
C43   C     C_R   0.936133 0.371851 0.499467 -0.152418
C44   C     C_R   0.063881 0.628147 0.500511 -0.148891
H9    H     H_    0.111655 0.271641 0.498846 0.155506
H10   H     H_    0.888361 0.728357 0.501116 0.154522
H11   H     H_    0.888083 0.271657 0.499043 0.155864
H12   H     H_    0.111935 0.728340 0.500942 0.156640
C45   C     C_R   0.871870 0.500012 0.500077 -0.025054
C46   C     C_R   0.128141 0.499986 0.499902 -0.023669
C47   C     C_R   0.413039 0.073208 0.473517 -0.021892
C48   C     C_R   0.586095 0.926757 0.526968 -0.005401
C49   C     C_R   0.586183 0.075843 0.526928 -0.006214
C50   C     C_R   0.413411 0.924156 0.473298 -0.024018
H13   H     H_    0.343254 0.128533 0.452481 0.160038
H14   H     H_    0.654799 0.871371 0.548597 0.144609
H15   H     H_    0.654995 0.133297 0.548524 0.130384
H16   H     H_    0.344349 0.866742 0.451818 0.134626
N3    N     N_R   0.500000 0.852070 0.500000 -0.164716
N4    N     N_R   0.500000 0.147930 0.500000 -0.163863
C51   C     C_2   0.434672 0.235858 0.350020 0.967541
O13   O     O_2   0.329167 0.205618 0.359989 -0.583196
O14   O     O_R   0.532091 0.144070 0.360952 -0.701063
H17   H     H_    0.503481 0.053810 0.376127 0.320080
C52   C     C_2   0.503421 0.769499 0.652384 0.973801
O15   O     O_2   0.593504 0.847145 0.653602 -0.575274
O16   O     O_R   0.392639 0.812531 0.629907 -0.709564
H18   H     H_    0.398818 0.909777 0.615518 0.328844
S1    S     S_3+6 0.423138 0.213620 0.241089 0.072341
O17   O     O_2   0.297852 0.160294 0.253464 -0.218848
O18   O     O_2   0.425808 0.231612 0.187450 -0.263694
O19   O     O_3   0.529478 0.092657 0.257243 -0.490957
H19   H     H_    0.498036 0.002442 0.243102 0.374646
S2    S     S_3+6 0.515967 0.779965 0.762886 0.072055
O20   O     O_2   0.476493 0.751583 0.813189 -0.265985
O21   O     O_2   0.643266 0.842872 0.765480 -0.214215
O22   O     O_3   0.417026 0.897328 0.738215 -0.497923
H20   H     H_    0.439593 0.989094 0.753749 0.378104
S3    S     S_3+6 0.140983 0.632392 0.106685 0.107718
O23   O     O_2   0.064592 0.530963 0.134146 -0.185800
O24   O     O_2   0.172298 0.758995 0.138113 -0.208024
O25   O     O_3   0.058340 0.686513 0.057921 -0.493631
H21   H     H_    0.977937 0.716773 0.070405 0.389916
S4    S     S_3+6 0.882712 0.598748 0.888972 0.115541
O26   O     O_2   0.953639 0.490543 0.861052 -0.195935
O27   O     O_2   0.852467 0.722126 0.857322 -0.178740
O28   O     O_3   0.971244 0.656505 0.936329 -0.493177
H22   H     H_    0.051486 0.680817 0.922640 0.392782
S5    S     S_3+6 0.176737 0.282591 0.962101 0.044753
O29   O     O_2   0.063645 0.372672 0.956700 -0.214635
O30   O     O_2   0.158644 0.152233 0.931045 -0.244722
O31   O     O_3   0.198698 0.233708 0.019811 -0.485555
H23   H     H_    0.128695 0.170280 0.026032 0.411662
S6    S     S_3+6 0.851003 0.305040 0.042777 0.046386
O32   O     O_2   0.960924 0.400905 0.042681 -0.213396
O33   O     O_2   0.876404 0.190567 0.078670 -0.242045
O34   O     O_3   0.826017 0.230145 0.987872 -0.494123
H24   H     H_    0.894779 0.162627 0.984096 0.408784

loop_
_geom_bond_atom_site_label_1
_geom_bond_atom_site_label_2
_geom_bond_distance
_ccdc_geom_bond_type
C42   C44   1.384299 A    
O14   H17   1.013466 S    
S1    O17   1.503161 D    
C13   C15   1.417541 A    
C35   S5    1.769787 S    
O28   H22   0.990636 S    
C37   H5    1.084024 S    
Cu2   N4    2.004701 S    
O3    C2    1.288361 A    
N1    C17   1.433959 S    
C51   O13   1.222176 D    
S4    O26   1.503602 D    
O5    C3    1.299782 A    
C19   C25   1.407879 A    
O1    C1    1.288260 A    
N1    C7    1.363224 A    
C10   C12   1.385072 A    
C7    O12   1.350496 S    
C47   N4    1.365517 A    
O25   H21   0.990623 S    
C44   C46   1.401319 A    
O31   H23   0.990372 S    
C14   C28   1.427606 A    
C1    C46   1.451342 S    
C13   C51   1.477397 S    
C13   C27   1.425367 A    
S6    O32   1.499417 D    
O7    Cu1   1.948593 S    
C50   N3    1.365836 A    
C31   C40   1.403449 A    
C41   C43   1.384300 A    
C39   H7    1.080057 S    
C32   C39   1.404027 A    
C36   C38   1.393898 A    
C40   H8    1.078604 S    
C14   C52   1.479457 S    
C43   C45   1.401340 A    
C52   O16   1.398117 S    
C20   C22   1.420348 A    
O3    Cu1   1.967690 S    
C6    N2    1.369328 A    
S5    O31   1.682416 S    
C31   C33   1.408713 A    
C25   C38   1.398224 A    
S1    O18   1.501410 D    
Cu1   Cu2   2.667623 S    
C24   S4    1.778987 S    
O2    C2    1.288274 A    
C48   N3    1.365937 A    
C5    C21   1.420811 A    
C47   C50   1.413313 A    
C8    O11   1.350676 S    
C51   O14   1.397392 S    
C9    H4    1.083021 S    
C32   C34   1.408795 A    
C4    C28   1.489860 S    
C16   C18   1.415014 A    
O22   H20   0.991317 S    
C48   C49   1.413735 A    
O8    Cu2   1.948593 S    
C11   C27   1.403669 A    
O16   H18   1.013960 S    
C23   S3    1.777572 S    
C29   C35   1.418959 A    
C49   N4    1.366212 A    
C35   C37   1.392682 A    
C42   C45   1.401269 A    
C41   C46   1.401251 A    
C44   H12   1.083306 S    
S6    O34   1.682598 S    
C9    C17   1.395974 A    
C12   H1    1.083161 S    
C5    N1    1.369225 A    
C10   C18   1.394434 A    
O7    C4    1.294721 A    
C50   H16   1.081641 S    
C7    C25   1.395830 A    
C49   H15   1.081668 S    
O6    C4    1.299771 A    
C8    C26   1.394306 A    
O19   H19   0.990563 S    
S3    O24   1.503466 D    
O34   H24   0.990395 S    
N2    C8    1.363036 A    
S1    O19   1.681668 S    
S2    O21   1.503124 D    
C20   C26   1.408263 A    
O1    Cu1   1.967608 S    
C11   H2    1.083206 S    
C26   C37   1.397766 A    
C30   C31   1.419776 A    
C12   C28   1.403911 A    
C2    C45   1.451437 S    
S5    O29   1.499634 D    
N2    C18   1.434956 S    
C30   C36   1.419923 A    
C5    O9    1.345535 S    
C16   S2    1.789448 S    
O6    Cu2   1.941761 S    
C21   C23   1.426413 A    
C36   S6    1.770444 S    
C48   H14   1.081622 S    
O4    C1    1.288340 A    
S2    O22   1.682903 S    
Cu1   N3    2.004700 S    
S4    O28   1.683281 S    
C22   C24   1.428370 A    
C15   C17   1.414935 A    
C38   H6    1.083897 S    
C6    C22   1.422245 A    
C15   S1    1.790596 S    
C42   H10   1.083298 S    
C47   H13   1.080536 S    
C10   H3    1.083398 S    
C41   H9    1.083309 S    
C14   C16   1.421328 A    
C19   C21   1.419745 A    
S4    O27   1.503494 D    
C3    C27   1.489334 S    
S3    O25   1.683140 S    
C43   H11   1.083294 S    
C9    C11   1.388977 A    
O4    Cu2   1.967690 S    
O2    Cu2   1.967608 S    
C29   C32   1.417869 A    
S6    O33   1.503804 D    
O8    C3    1.294376 A    
C23   C39   1.402224 A    
O5    Cu1   1.941761 S    
C24   C40   1.402502 A    
C6    O10   1.345163 S    
S2    O20   1.502273 D    
S3    O23   1.503555 D    
C19   C34   1.413983 A    
C20   C33   1.414457 A    
C52   O15   1.222643 D    
C29   C33   1.417296 A    
C30   C34   1.417615 A    
S5    O30   1.503635 D    
