data_mof_unit_6840.cif
_audit_creation_date              2012-12-11T17:47:23-0500
_audit_creation_method            fapswitch 2.2
_symmetry_space_group_name_H-M    P1
_symmetry_Int_Tables_number       1
_space_group_crystal_system       triclinic
_cell_length_a                    14.844729
_cell_length_b                    14.897275
_cell_length_c                    15.133908
_cell_angle_alpha                 110.238185
_cell_angle_beta                  109.266528
_cell_angle_gamma                 108.723826
_cell_volume                      2581.8916742

loop_
_atom_site_label
_atom_site_type_symbol
_atom_type_description
_atom_site_fract_x
_atom_site_fract_y
_atom_site_fract_z
_atom_type_partial_charge
C1    C     C_R   0.908270 0.194468 0.993071 -0.148293
C2    C     C_R   0.828949 0.958388 0.913509 -0.228637
C3    C     C_R   0.096138 0.064978 0.706959 -0.172722
C4    C     C_R   0.797854 0.943029 0.175604 -0.182197
C5    C     C_R   0.013862 0.005573 0.721796 -0.207880
C6    C     C_R   0.849657 0.939398 0.113610 -0.200269
C7    C     C_R   0.678821 0.312417 0.195516 -0.123148
C8    C     C_R   0.376372 0.756795 0.908280 -0.124189
C9    C     C_R   0.784101 0.381140 0.285846 -0.116196
C10   C     C_R   0.305082 0.663782 0.804787 -0.159696
C11   C     C_R   0.853032 0.337969 0.314514 0.119136
C12   C     C_R   0.024964 0.750739 0.937574 -0.123111
C13   C     C_R   0.251508 0.674527 0.716207 0.116778
C14   C     C_R   0.815038 0.225231 0.251994 -0.194617
C15   C     C_R   0.280616 0.780785 0.731430 -0.159217
C16   C     C_R   0.294873 0.805647 0.204810 -0.135967
C17   C     C_R   0.684150 0.241288 0.774694 -0.130083
C18   C     C_R   0.709913 0.156921 0.161295 -0.115447
C19   C     C_R   0.357724 0.873658 0.833818 -0.112930
C20   C     C_R   0.641791 0.200487 0.133128 -0.110706
C21   C     C_R   0.404217 0.861598 0.922586 -0.091571
C22   C     C_R   0.975484 0.412796 0.504771 -0.252918
C23   C     C_R   0.295635 0.871058 0.296463 0.067130
C24   C     C_R   0.149075 0.570175 0.514873 -0.252617
C25   C     C_R   0.067783 0.496122 0.604465 0.070669
C26   C     C_R   0.053185 0.490092 0.416218 0.075153
C27   C     C_R   0.156869 0.577051 0.611474 0.024697
C28   C     C_R   0.964550 0.411141 0.410995 0.011342
C29   C     C_R   0.040142 0.011003 0.821823 0.124276
C30   C     C_R   0.791567 0.858552 0.003295 0.119159
C31   C     C_R   0.233040 0.121021 0.885787 -0.160214
C32   C     C_R   0.631261 0.783252 0.019217 -0.129632
C33   C     C_R   0.083068 0.982879 0.381643 -0.126350
C34   C     C_R   0.675468 0.213231 0.672621 0.049075
C35   C     C_R   0.777377 0.986246 0.491833 -0.129903
C36   C     C_R   0.187642 0.026654 0.393377 -0.146941
C37   C     C_R   0.690053 0.001538 0.494120 -0.127047
C38   C     C_R   0.273618 0.028367 0.470866 0.123493
C39   C     C_R   0.668319 0.075886 0.466298 0.110970
C40   C     C_R   0.224575 0.407491 0.974382 -0.145084
C41   C     C_R   0.787107 0.589904 0.093963 -0.150117
C42   C     C_R   0.254804 0.990092 0.539374 -0.206370
C43   C     C_R   0.732516 0.131826 0.432472 -0.200250
C44   C     C_R   0.149308 0.943107 0.524752 -0.135681
C45   C     C_R   0.326024 0.499348 0.049399 0.031080
C46   C     C_R   0.823416 0.120455 0.436118 -0.145459
C47   C     C_R   0.063432 0.939121 0.445718 -0.123386
C48   C     C_R   0.845741 0.047688 0.465525 -0.115593
C49   C     C_R   0.475693 0.134420 0.562270 -0.247159
C50   C     C_R   0.477615 0.021604 0.374003 -0.233534
C51   C     C_R   0.575365 0.147927 0.566647 0.071161
C52   C     C_R   0.379547 0.986944 0.376252 0.055108
C53   C     C_R   0.575663 0.091160 0.469675 0.018728
C54   C     C_R   0.376715 0.051926 0.468068 0.029026
C55   C     C_R   0.206634 0.121670 0.788244 0.110486
C56   C     C_R   0.695435 0.497211 0.062132 0.030048
C57   C     C_R   0.687165 0.866849 0.127619 0.098896
C58   C     C_R   0.835389 0.875754 0.933294 0.032239
C59   C     C_R   0.953253 0.959593 0.843181 0.025635
C60   C     C_R   0.150240 0.067155 0.903100 -0.173419
C61   C     C_R   0.682797 0.778976 0.956892 -0.186836
C62   C     C_R   0.898222 0.831069 0.902326 0.055622
C63   C     C_R   0.903156 0.013672 0.888551 0.053068
C64   C     C_R   0.058371 0.591005 0.314040 -0.141144
C65   C     C_R   0.003016 0.409238 0.700711 -0.170052
C66   C     C_3   0.493746 0.391165 0.024581 -0.162579
C67   C     C_R   0.040745 0.497085 0.321248 0.042943
C68   C     C_3   0.537539 0.600618 0.121255 -0.155914
C69   C     C_3   0.436137 0.441499 0.969689 -0.135243
C70   C     C_3   0.596186 0.550546 0.176778 -0.157596
C71   C     C_3   0.427912 0.497939 0.070549 0.185118
C72   C     C_3   0.602845 0.494453 0.075076 0.178346
C73   C     C_3   0.483963 0.447130 0.125811 -0.162169
C74   C     C_3   0.545445 0.543988 0.020050 -0.149547
C75   C     C_R   0.315695 0.591838 0.065776 -0.137608
C76   C     C_R   0.697530 0.406989 0.000841 -0.127824
C77   C     C_R   0.976313 0.407068 0.218550 -0.103041
C78   C     C_R   0.055874 0.500635 0.696068 0.059764
C79   C     C_R   0.085204 0.592000 0.787898 -0.137828
C80   C     C_R   0.206538 0.804344 0.297925 -0.144231
C81   C     C_R   0.780259 0.251893 0.687896 -0.118794
C82   C     C_R   0.999086 0.197200 0.902399 -0.139241
C83   C     C_R   0.930074 0.747565 0.025923 -0.139487
C84   C     C_R   0.938709 0.131194 0.929122 0.067164
C85   C     C_R   0.945337 0.775279 0.951033 0.057835
C86   C     C_R   0.937105 0.860697 0.838317 -0.236826
H1    H     H_    0.849377 0.166380 0.017655 0.098940
H2    H     H_    0.407598 0.747565 0.978060 0.107155
H3    H     H_    0.812043 0.467818 0.333333 0.105885
H4    H     H_    0.284706 0.583267 0.795581 0.117354
H5    H     H_    0.868147 0.191284 0.271373 0.109727
H6    H     H_    0.240496 0.791991 0.665180 0.105854
H7    H     H_    0.681554 0.070432 0.112437 0.121777
H8    H     H_    0.378454 0.954890 0.845028 0.100799
H9    H     H_    0.904841 0.355677 0.500712 0.134108
H10   H     H_    0.215266 0.630783 0.516701 0.130762
H11   H     H_    0.929411 0.961271 0.658680 0.119475
H12   H     H_    0.060769 0.764463 0.889170 0.093561
H13   H     H_    0.933089 0.003181 0.149717 0.121626
H14   H     H_    0.455900 0.407513 0.168797 0.113598
H15   H     H_    0.571834 0.577574 0.972735 0.121051
H16   H     H_    0.341299 0.831939 0.168145 0.087415
H17   H     H_    0.618496 0.224442 0.793377 0.091731
H18   H     H_    0.171633 0.070197 0.980185 0.121475
H19   H     H_    0.636257 0.717737 0.871365 0.124378
H20   H     H_    0.981677 0.901971 0.434138 0.100831
H21   H     H_    0.914813 0.037630 0.465975 0.101151
H22   H     H_    0.016569 0.979763 0.320656 0.113608
H23   H     H_    0.073537 0.067434 0.632651 0.126670
H24   H     H_    0.791283 0.926175 0.509619 0.100511
H25   H     H_    0.200557 0.054712 0.339199 0.110946
H26   H     H_    0.638870 0.955100 0.516833 0.112804
H27   H     H_    0.319567 0.988838 0.598091 0.115580
H28   H     H_    0.715278 0.187715 0.408618 0.131320
H29   H     H_    0.133854 0.908291 0.573678 0.126775
H30   H     H_    0.876852 0.167751 0.416200 0.114452
H31   H     H_    0.474285 0.181438 0.634234 0.124984
H32   H     H_    0.481696 0.978424 0.302842 0.122853
H33   H     H_    0.973846 0.819771 0.801051 0.127521
H34   H     H_    0.842536 0.007659 0.259352 0.116348
H35   H     H_    0.779934 0.991087 0.936881 0.130619
H36   H     H_    0.369571 0.398649 0.884457 0.120735
H37   H     H_    0.664782 0.594813 0.261222 0.108559
H38   H     H_    0.479402 0.306012 0.985587 0.100486
H39   H     H_    0.553472 0.685704 0.162555 0.115351
H40   H     H_    0.205529 0.322644 0.939739 0.123439
H41   H     H_    0.814062 0.673715 0.151130 0.106529
H42   H     H_    0.102791 0.675236 0.379561 0.103613
H43   H     H_    0.980872 0.325678 0.648067 0.115076
H44   H     H_    0.379660 0.676776 0.115773 0.096923
H45   H     H_    0.317525 0.163857 0.949175 0.109736
H46   H     H_    0.643566 0.322209 0.972463 0.089218
H47   H     H_    0.949540 0.322092 0.195148 0.110320
H48   H     H_    0.134140 0.676967 0.813841 0.116711
H49   H     H_    0.173981 0.825990 0.350257 0.135182
H50   H     H_    0.806651 0.255597 0.631076 0.125225
H51   H     H_    0.018399 0.173665 0.838965 0.126848
H52   H     H_    0.874721 0.753031 0.055849 0.122942
H53   H     H_    0.259746 0.177487 0.699033 0.116962
H54   H     H_    0.339716 0.142189 0.771538 0.089942
H55   H     H_    0.671327 0.876683 0.257227 0.120743
H56   H     H_    0.546875 0.722722 0.981882 0.114356
H57   H     H_    0.632702 0.952856 0.209384 0.115320
H58   H     H_    0.560445 0.147649 0.062870 0.091894
H59   H     H_    0.460466 0.933271 0.002714 0.097068
H60   H     H_    0.625977 0.345967 0.173968 0.113628
N1    N     N_R   0.947560 0.293820 0.002910 -0.040904
N2    N     N_R   0.789450 0.443190 0.997090 -0.037237
N3    N     N_R   0.945970 0.443180 0.152110 -0.040603
N4    N     N_R   0.054030 0.556820 0.847890 -0.039061
N5    N     N_R   0.151530 0.706170 0.208880 -0.041703
N6    N     N_R   0.848470 0.293830 0.791120 -0.043436
N7    N     N_R   0.004980 0.293810 0.946140 -0.042097
N8    N     N_R   0.995020 0.706190 0.053860 -0.040940
N9    N     N_3   0.292513 0.181175 0.773675 -0.231274
N10   N     N_3   0.629641 0.876757 0.186604 -0.243851
N11   N     N_R   0.052440 0.706180 0.997090 -0.041718
N12   N     N_R   0.208960 0.706170 0.152110 -0.038725
N13   N     N_R   0.791040 0.293830 0.847890 -0.040318
N14   N     N_R   0.154330 0.443160 0.946140 -0.040096
N15   N     N_R   0.845670 0.556840 0.053860 -0.039580
N16   N     N_R   0.002190 0.556820 0.208880 -0.040335
N17   N     N_R   0.997810 0.443180 0.791120 -0.038918
N18   N     N_R   0.210550 0.556810 0.002910 -0.038979
Ni1   Ni    Ni4+2 0.869690 0.369690 0.000000 0.217968
Ni2   Ni    Ni4+2 0.130310 0.630310 0.000000 0.211128
Ni3   Ni    Ni4+2 0.001390 0.369680 0.869810 0.214606
Ni4   Ni    Ni4+2 0.998610 0.630320 0.130190 0.215996

loop_
_geom_bond_atom_site_label_1
_geom_bond_atom_site_label_2
_ccdc_geom_bond_type
C1    H1    S    
C73   H14   S    
C58   C62   A    
C56   C76   A    
C41   N15   A    
C80   N5    A    
C22   H9    S    
C14   C18   A    
N17   Ni3   S    
C67   C77   A    
C24   C27   A    
H57   N10   S    
C83   N8    A    
C1    C84   A    
C15   C19   A    
N4    N17   A    
C62   C86   A    
C34   C51   S    
C80   H49   S    
C77   H47   S    
C12   C85   A    
C26   C67   S    
N14   N18   A    
C19   C21   A    
C24   C26   A    
C32   C61   A    
C38   C42   A    
C82   H51   S    
C24   H10   S    
C43   H28   S    
C11   C14   A    
C48   H21   S    
C45   C71   S    
C68   C74   S    
N5    Ni4   S    
N4    Ni2   S    
C33   C36   A    
C18   C20   A    
N14   Ni3   S    
C69   C71   S    
C41   H41   S    
C37   H26   S    
C31   H45   S    
N1    Ni1   S    
C15   H6    S    
C82   N7    A    
C3    C55   A    
C70   H37   S    
C66   C72   S    
C29   C59   S    
C44   H29   S    
C64   H42   S    
C22   C25   A    
C4    C57   A    
C50   C52   A    
C86   H33   S    
C34   C81   A    
C12   N11   A    
C44   C47   A    
C61   H19   S    
C32   H56   S    
C75   H44   S    
C7    H60   S    
N6    N13   A    
C22   C28   A    
N7    Ni3   S    
N2    Ni1   S    
N8    Ni4   S    
C33   H22   S    
C42   C44   A    
C32   C57   A    
C36   H25   S    
C17   N13   A    
C35   C48   A    
C26   C28   A    
C62   C85   S    
C52   C54   A    
C5    C29   A    
C40   C45   A    
C57   N10   S    
C46   C48   A    
C50   C53   A    
C16   N12   A    
C25   C78   S    
N5    N12   A    
N3    Ni1   S    
N8    N11   A    
C72   C74   S    
C9    H3    S    
C71   C73   S    
C78   C79   A    
C39   C43   A    
C49   C51   A    
C66   C73   S    
C6    C30   A    
N13   Ni1   S    
C75   N18   A    
C51   C53   A    
C21   H59   S    
C31   C60   A    
C55   N9    S    
C64   C67   A    
C41   C56   A    
C19   H8    S    
C42   H27   S    
C38   C54   S    
C29   C60   A    
H53   N9    S    
C47   H20   S    
C40   H40   S    
C65   N17   A    
C70   C73   S    
C8    C21   A    
C69   C74   S    
C9    C11   A    
C10   H4    S    
C35   H24   S    
C79   N4    A    
N16   Ni4   S    
C64   N16   A    
C83   C85   A    
C5    H11   S    
C16   C23   A    
C82   C84   A    
C74   H15   S    
C23   C80   A    
C49   H31   S    
C1    N1    A    
C4    C6    A    
C17   C34   A    
N2    N15   A    
C77   N3    A    
C36   C38   A    
C11   C28   S    
N6    Ni3   S    
C2    C63   A    
N12   Ni2   S    
C81   H50   S    
C2    H35   S    
C16   H16   S    
C7    C9    A    
C79   H48   S    
C65   C78   A    
C56   C72   S    
C50   H32   S    
C12   H12   S    
C40   N14   A    
C8    C10   A    
C13   C27   S    
C3    C5    A    
C10   C13   A    
N11   Ni2   S    
C65   H43   S    
C20   H58   S    
C2    C58   A    
H55   N10   S    
C25   C27   A    
C81   N6    A    
C59   C63   A    
C46   H30   S    
C63   C84   S    
C45   C75   A    
C31   C55   A    
C6    H13   S    
C13   C15   A    
C17   H17   S    
C59   C86   A    
C35   C37   A    
C37   C39   A    
C76   H46   S    
C23   C52   S    
C39   C53   S    
C69   H36   S    
C3    H23   S    
C68   C71   S    
C33   C47   A    
C30   C58   S    
N18   Ni2   S    
C66   H38   S    
N1    N7    A    
C43   C46   A    
C14   H5    S    
N15   Ni4   S    
H54   N9    S    
C66   C69   S    
C76   N2    A    
C68   C70   S    
C7    C20   A    
C30   C61   A    
C18   H7    S    
C4    H34   S    
C70   C72   S    
N3    N16   A    
C8    H2    S    
C60   H18   S    
C68   H39   S    
C83   H52   S    
C49   C54   A    
