data_mof_unit_24949.cif
_audit_creation_date              2012-12-10T20:04:46-0500
_audit_creation_method            fapswitch 2.2
_symmetry_space_group_name_H-M    P1
_symmetry_Int_Tables_number       1
_space_group_crystal_system       triclinic
_cell_length_a                    10.765811
_cell_length_b                    19.095538
_cell_length_c                    18.476979
_cell_angle_alpha                 90.403936
_cell_angle_beta                  103.987329
_cell_angle_gamma                 90.620965
_cell_volume                      3685.45061493

loop_
_atom_site_label
_atom_site_type_symbol
_atom_type_description
_atom_site_fract_x
_atom_site_fract_y
_atom_site_fract_z
_atom_type_partial_charge
C1    C     C_R   0.500614 0.365527 0.499748 0.889205
C2    C     C_R   0.502333 0.634343 0.500565 0.885647
C3    C     C_R   0.523237 0.708948 0.503853 -0.080070
C4    C     C_R   0.517952 0.290714 0.500602 -0.086933
C5    C     C_R   0.605357 0.964152 0.574894 0.321134
C6    C     C_R   0.578425 0.035891 0.440077 0.291213
C7    C     C_R   0.613346 0.037061 0.575582 0.415317
C8    C     C_R   0.599530 0.963861 0.442024 0.404217
C9    C     C_R   0.587025 0.072706 0.507210 -0.261012
C10   C     C_R   0.599059 0.927246 0.507708 -0.275826
C11   C     C_R   0.580715 0.544353 0.737477 0.644576
C12   C     C_R   0.414473 0.458112 0.262300 0.643848
C13   C     C_R   0.578960 0.545899 0.813778 -0.383393
C14   C     C_R   0.411436 0.458746 0.185309 -0.388192
C15   C     C_R   0.498040 0.500151 0.841187 0.068302
C16   C     C_R   0.499281 0.500196 0.158677 0.068211
C17   C     C_R   0.418147 0.454369 0.789853 -0.282719
C18   C     C_R   0.587211 0.541689 0.210565 -0.281075
C19   C     C_R   0.420451 0.455246 0.714275 -0.081218
C20   C     C_R   0.585806 0.540906 0.286269 -0.078845
C21   C     C_R   0.477401 0.437918 0.958710 -0.188176
C22   C     C_R   0.518120 0.562732 0.041329 -0.186470
C23   C     C_R   0.258651 0.502256 0.469046 0.942739
C24   C     C_R   0.741424 0.502444 0.530999 0.936477
C25   C     C_R   0.477633 0.437971 0.034759 -0.189858
C26   C     C_R   0.516975 0.562796 0.965154 -0.186253
C27   C     C_R   0.498400 0.500334 0.077317 0.151925
C28   C     C_R   0.497105 0.500331 0.922527 0.151190
C29   C     C_2   0.122277 0.511722 0.451505 -0.376841
C30   C     C_2   0.878234 0.511858 0.548734 -0.387058
C31   C     C_2   0.068793 0.528764 0.506912 -0.165886
C32   C     C_2   0.932544 0.528954 0.493723 -0.149394
C33   C     C_R   0.443114 0.751544 0.452448 -0.340475
C34   C     C_R   0.445151 0.247104 0.535108 -0.348521
C35   C     C_R   0.465301 0.823809 0.454293 0.553138
C36   C     C_R   0.462917 0.174594 0.534982 0.540481
C37   C     C_R   0.575905 0.851536 0.503953 0.114756
C38   C     C_R   0.561956 0.147723 0.505413 0.133365
C39   C     C_R   0.657415 0.807928 0.554275 -0.225563
C40   C     C_R   0.635144 0.192069 0.471726 -0.206406
C41   C     C_R   0.629661 0.736932 0.555196 -0.215886
C42   C     C_R   0.611479 0.263138 0.468028 -0.240630
H1    H     H_    0.876827 0.536702 0.436858 0.180981
H2    H     H_    0.124869 0.536259 0.563983 0.189573
H3    H     H_    0.641468 0.582173 0.851210 0.144244
H4    H     H_    0.339304 0.428292 0.146491 0.146772
H5    H     H_    0.357801 0.420305 0.675152 0.149113
H6    H     H_    0.653490 0.573145 0.325811 0.144769
H7    H     H_    0.464080 0.388497 0.928628 0.132761
H8    H     H_    0.532312 0.611952 0.071832 0.134802
H9    H     H_    0.463886 0.388731 0.060653 0.131502
H10   H     H_    0.529848 0.612248 0.939489 0.134140
H11   H     H_    0.934381 0.503792 0.605374 0.140208
H12   H     H_    0.065817 0.503927 0.394630 0.158257
H13   H     H_    0.693274 0.703427 0.594164 0.172945
H14   H     H_    0.668944 0.296990 0.441862 0.160407
N1    N     N_R   0.500020 0.499980 0.689440 -0.123249
N2    N     N_R   0.499980 0.500020 0.310560 -0.122046
O1    O     O_R   0.500000 0.398180 0.560840 -0.619711
O2    O     O_R   0.500000 0.601820 0.439160 -0.624395
O3    O     O_R   0.499950 0.398180 0.439200 -0.605518
O4    O     O_R   0.500050 0.601820 0.560800 -0.574074
O5    O     O_R   0.317830 0.500010 0.538110 -0.631997
O6    O     O_R   0.682170 0.499990 0.461890 -0.628362
O7    O     O_R   0.317770 0.500000 0.416470 -0.566647
O8    O     O_R   0.682230 0.500000 0.583530 -0.602675
Zn1   Zn    Zn3+2 0.500040 0.500000 0.581220 0.969385
Zn2   Zn    Zn3+2 0.499960 0.500000 0.418780 0.971208
H15   H     H_    0.352332 0.418929 0.807520 0.146694
H16   H     H_    0.657423 0.574083 0.192931 0.147638
H17   H     H_    0.362866 0.728691 0.411939 0.149106
H18   H     H_    0.374119 0.269291 0.560961 0.147093
O9    O     O_3   0.385645 0.867576 0.404588 -0.606266
C43   C     C_3   0.257724 0.863705 0.411786 0.057002
H19   H     H_    0.228710 0.917214 0.424440 0.143057
H20   H     H_    0.243076 0.829985 0.458232 0.072528
C44   C     C_3   0.169248 0.837987 0.338395 -0.339209
H21   H     H_    0.195865 0.784205 0.325250 0.209992
H22   H     H_    0.069352 0.835698 0.344815 0.171053
C45   C     C_3   0.175694 0.886015 0.273581 -0.797682
H23   H     H_    0.155228 0.940865 0.286771 0.248428
H24   H     H_    0.103701 0.868571 0.222729 0.228912
H25   H     H_    0.272089 0.884105 0.261912 0.288051
O10   O     O_3   0.389666 0.129689 0.566918 -0.635038
C46   C     C_3   0.259765 0.132591 0.527557 0.051063
H26   H     H_    0.249288 0.130987 0.465956 0.119075
H27   H     H_    0.215776 0.181180 0.542989 0.147124
C47   C     C_3   0.188040 0.069447 0.548735 -0.312636
H28   H     H_    0.229470 0.020504 0.532193 0.208862
H29   H     H_    0.199660 0.069224 0.610147 0.238635
C48   C     C_3   0.045525 0.071252 0.510584 -1.016901
H30   H     H_    0.000940 0.118121 0.529179 0.263700
H31   H     H_    0.997011 0.023684 0.525304 0.264605
H32   H     H_    0.031525 0.072658 0.449085 0.276014
H33   H     H_    0.741656 0.829062 0.593111 0.179952
H34   H     H_    0.710876 0.171523 0.448587 0.174872
O11   O     O_3   0.606975 0.929461 0.640664 -0.625473
C49   C     C_3   0.480409 0.910814 0.643509 0.122126
H35   H     H_    0.483454 0.857575 0.667707 0.164118
H36   H     H_    0.410875 0.907645 0.587788 0.099730
C50   C     C_3   0.431406 0.961980 0.694031 -0.303405
H37   H     H_    0.500629 0.965153 0.749405 0.236710
H38   H     H_    0.422857 0.014880 0.668955 0.272698
C51   C     C_3   0.300741 0.938925 0.704483 -1.022142
H39   H     H_    0.229775 0.935576 0.649782 0.264009
H40   H     H_    0.267062 0.977659 0.740328 0.274036
H41   H     H_    0.307449 0.887016 0.731816 0.273470
O12   O     O_3   0.552744 0.070713 0.372753 -0.636930
C52   C     C_3   0.423267 0.058441 0.335667 0.141260
H42   H     H_    0.358792 0.080998 0.368511 0.110725
H43   H     H_    0.401983 0.001362 0.326846 0.205296
C53   C     C_3   0.396153 0.093467 0.259529 -0.344572
H44   H     H_    0.404903 0.151234 0.267380 0.221628
H45   H     H_    0.467850 0.076290 0.228957 0.234133
C54   C     C_3   0.262421 0.074399 0.212999 -0.993459
H46   H     H_    0.255187 0.017311 0.200624 0.272536
H47   H     H_    0.243533 0.102808 0.159316 0.275221
H48   H     H_    0.188761 0.088931 0.243206 0.265353
O13   O     O_3   0.632832 0.072806 0.642940 -0.595514
C55   C     C_3   0.758613 0.101369 0.662244 0.088205
H49   H     H_    0.759792 0.144668 0.702880 0.169175
H50   H     H_    0.788173 0.125085 0.613907 0.118093
C56   C     C_3   0.855658 0.046261 0.699209 -0.330390
H51   H     H_    0.825382 0.023287 0.747433 0.246445
H52   H     H_    0.859357 0.003594 0.658610 0.217098
C57   C     C_3   0.989494 0.078281 0.726150 -0.981956
H53   H     H_    0.022018 0.100901 0.678558 0.271005
H54   H     H_    0.057547 0.037092 0.752004 0.269805
H55   H     H_    0.989789 0.119989 0.768400 0.266435
O14   O     O_3   0.603364 0.928465 0.376996 -0.594995
C58   C     C_3   0.732373 0.918309 0.374862 0.090448
H56   H     H_    0.734226 0.872644 0.337566 0.167378
H57   H     H_    0.795076 0.904747 0.430375 0.106968
C59   C     C_3   0.785671 0.982738 0.342708 -0.314488
H58   H     H_    0.718005 0.998066 0.289819 0.248960
H59   H     H_    0.796562 0.027223 0.382879 0.228858
C60   C     C_3   0.915770 0.968166 0.327372 -1.029839
H60   H     H_    0.984731 0.952273 0.379468 0.268038
H61   H     H_    0.953142 0.016258 0.306106 0.270104
H62   H     H_    0.906709 0.926007 0.284644 0.278451
O15   O     O_3   0.654368 0.591586 0.708752 -0.630524
C61   C     C_3   0.786173 0.586457 0.744322 0.053147
H63   H     H_    0.837936 0.573307 0.700916 0.169225
H64   H     H_    0.809735 0.544605 0.787237 0.115042
C62   C     C_3   0.836143 0.657339 0.779085 -0.349608
H65   H     H_    0.817338 0.698148 0.735300 0.228672
H66   H     H_    0.784995 0.671835 0.822407 0.217133
C63   C     C_3   0.979636 0.655461 0.814503 -0.954427
H67   H     H_    0.000504 0.615962 0.859543 0.266143
H68   H     H_    0.012906 0.707638 0.838963 0.267400
H69   H     H_    0.032990 0.642308 0.771820 0.262930
O16   O     O_3   0.323768 0.421506 0.289354 -0.627094
C64   C     C_3   0.319419 0.349483 0.269992 0.063155
H70   H     H_    0.340252 0.319182 0.322602 0.176307
H71   H     H_    0.391524 0.333096 0.238957 0.108259
C65   C     C_3   0.184515 0.330050 0.225028 -0.348950
H72   H     H_    0.113930 0.344721 0.257417 0.233241
H73   H     H_    0.162179 0.359514 0.171920 0.216572
C66   C     C_3   0.171716 0.251816 0.207569 -0.976339
H74   H     H_    0.240315 0.236190 0.174315 0.268967
H75   H     H_    0.073060 0.239367 0.174814 0.270224
H76   H     H_    0.190614 0.221545 0.260130 0.268015

loop_
_geom_bond_atom_site_label_1
_geom_bond_atom_site_label_2
_ccdc_geom_bond_type
C18   H16   S    
C38   C40   A    
C23   C29   S    
C17   H15   S    
C50   H37   S    
O9    C43   S    
C12   O16   S    
C63   H69   S    
C58   C59   S    
C6    C9    A    
C51   H40   S    
O11   C49   S    
C56   H51   S    
C14   H4    S    
C44   H21   S    
C19   N1    A    
C60   H61   S    
C57   H53   S    
C43   H20   S    
O4    Zn1   S    
C10   C37   S    
O6    Zn2   S    
C65   H72   S    
C35   C37   A    
N1    Zn1   S    
C1    O1    A    
C2    O2    A    
C23   O5    A    
C56   H52   S    
C29   H12   S    
C3    C33   A    
C54   H46   S    
O12   C52   S    
C15   C17   A    
C59   C60   S    
C53   H44   S    
O1    Zn1   S    
C65   H73   S    
C3    C41   A    
C31   C32   S    
C54   H47   S    
C43   C44   S    
C66   H75   S    
C13   H3    S    
C64   H71   S    
C18   C20   A    
C55   C56   S    
C24   O8    A    
C22   H8    S    
C12   N2    A    
O7    Zn2   S    
C16   C27   S    
C46   H27   S    
O8    Zn1   S    
C24   O6    A    
C61   C62   S    
C40   H34   S    
C45   H25   S    
C53   H45   S    
C51   H39   S    
C62   H66   S    
C55   H50   S    
C62   H65   S    
C4    C34   A    
C44   H22   S    
C60   H62   S    
O5    Zn1   S    
C31   H2    S    
C7    O13   S    
O10   C46   S    
C45   H24   S    
C43   H19   S    
C52   C53   S    
C48   H30   S    
C5    C7    A    
C17   C19   A    
C56   C57   S    
C59   H59   S    
C57   H55   S    
C46   H26   S    
C25   H9    S    
C26   H10   S    
C48   H31   S    
O14   C58   S    
C66   H74   S    
C47   C48   S    
C29   C31   D    
C54   H48   S    
C66   H76   S    
C30   H11   S    
C63   H67   S    
C64   C65   S    
C42   H14   S    
C11   O15   S    
C39   H33   S    
C20   H6    S    
C21   H7    S    
C16   C18   A    
C21   C28   A    
C5    O11   S    
C50   C51   S    
C49   H36   S    
C22   C27   A    
C13   C15   A    
C8    O14   S    
C14   C16   A    
C20   N2    A    
C36   C38   A    
C34   H18   S    
C62   C63   S    
C55   H49   S    
C46   C47   S    
C50   H38   S    
C44   C45   S    
N2    Zn2   S    
C7    C9    A    
C21   C25   A    
C35   O9    S    
C57   H54   S    
C65   C66   S    
C63   H68   S    
C45   H23   S    
C58   H57   S    
C1    O3    A    
C6    C8    A    
O13   C55   S    
C59   H58   S    
C25   C27   A    
C49   C50   S    
C60   H60   S    
C26   C28   A    
C1    C4    S    
C23   O7    A    
C52   H43   S    
C47   H29   S    
C12   C14   A    
C5    C10   A    
C37   C39   A    
O15   C61   S    
C48   H32   S    
C30   C32   D    
C11   C13   A    
O3    Zn2   S    
C15   C28   S    
C4    C42   A    
C36   O10   S    
C41   H13   S    
C40   C42   A    
C9    C38   S    
C33   C35   A    
C32   H1    S    
C2    C3    S    
C34   C36   A    
C53   C54   S    
C58   H56   S    
C24   C30   S    
O2    Zn2   S    
C33   H17   S    
C47   H28   S    
C39   C41   A    
C8    C10   A    
C49   H35   S    
C22   C26   A    
C19   H5    S    
C52   H42   S    
C6    O12   S    
C61   H63   S    
O16   C64   S    
C64   H70   S    
C11   N1    A    
C51   H41   S    
C61   H64   S    
C2    O4    A    
