data_mof_unit_64177.cif
_audit_creation_date              2012-12-10T18:20:31-0500
_audit_creation_method            fapswitch 2.2
_symmetry_space_group_name_H-M    P1
_symmetry_Int_Tables_number       1
_space_group_crystal_system       triclinic
_cell_length_a                    21.477422
_cell_length_b                    21.483005
_cell_length_c                    22.059106
_cell_angle_alpha                 119.32494
_cell_angle_beta                  119.245764
_cell_angle_gamma                 89.908757
_cell_volume                      7355.04987103

loop_
_atom_site_label
_atom_site_type_symbol
_atom_type_description
_atom_site_fract_x
_atom_site_fract_y
_atom_site_fract_z
_atom_type_partial_charge
C1    C     C_R   0.500552 0.122021 0.501307 0.845179
C2    C     C_R   0.499099 0.877661 0.498032 0.845529
C3    C     C_3   0.707964 0.208389 0.917527 0.200482
C4    C     C_3   0.290778 0.792344 0.082612 0.168377
C5    C     C_3   0.743204 0.336280 0.047014 0.060804
C6    C     C_3   0.288960 0.700487 0.952073 0.101136
C7    C     C_3   0.790267 0.292223 0.082745 0.184768
C8    C     C_3   0.208275 0.708479 0.917581 0.133804
C9    C     C_3   0.736357 0.216761 0.048306 -0.060330
C10   C     C_3   0.215520 0.793248 0.950518 -0.038689
C11   C     C_3   0.679302 0.174048 0.951205 0.024693
C12   C     C_3   0.265893 0.843539 0.049407 0.046221
C13   C     C_1   0.836549 0.337339 0.174288 0.020992
C14   C     C_1   0.162505 0.662988 0.825803 -0.067098
C15   C     C_1   0.662764 0.162986 0.825951 -0.019443
C16   C     C_1   0.336857 0.837529 0.174131 -0.037333
C17   C     C_1   0.625517 0.125562 0.750939 -0.198754
C18   C     C_1   0.374452 0.874734 0.249120 -0.193994
C19   C     C_3   0.440738 0.223605 0.514438 -0.372571
C20   C     C_3   0.554774 0.772923 0.478313 -0.374502
C21   C     C_3   0.442717 0.295333 0.515059 -0.488565
C22   C     C_3   0.552772 0.701138 0.477581 -0.488056
C23   C     C_R   0.581051 0.081072 0.662036 0.904504
C24   C     C_R   0.418958 0.918978 0.337984 0.902911
C25   C     C_3   0.579556 0.250038 0.573262 -0.449232
C26   C     C_3   0.418594 0.751634 0.430654 -0.446302
C27   C     C_3   0.484450 0.170896 0.416650 -0.420411
C28   C     C_3   0.521299 0.830194 0.585173 -0.419490
C29   C     C_3   0.501040 0.190321 0.501570 0.149426
C30   C     C_3   0.498652 0.809391 0.497820 0.148341
C31   C     C_3   0.502701 0.310424 0.500175 0.119984
C32   C     C_3   0.497629 0.689597 0.499829 0.120950
C33   C     C_3   0.581088 0.321728 0.572858 0.082376
C34   C     C_3   0.417350 0.680338 0.431858 0.079122
C35   C     C_3   0.482228 0.241079 0.414267 -0.392802
C36   C     C_3   0.524303 0.760176 0.587830 -0.391289
C37   C     C_3   0.685249 0.527220 0.443776 -0.457904
C38   C     C_3   0.308968 0.461350 0.543332 -0.463811
C39   C     C_3   0.831611 0.554470 0.587303 -0.484907
C40   C     C_3   0.167854 0.458522 0.411873 -0.480169
C41   C     C_3   0.761404 0.554399 0.589717 -0.377678
C42   C     C_3   0.238169 0.457518 0.409645 -0.378630
C43   C     C_3   0.689568 0.501084 0.499562 0.152148
C44   C     C_3   0.310389 0.500090 0.500344 0.149922
C45   C     C_3   0.766976 0.419261 0.465001 -0.391916
C46   C     C_3   0.240455 0.583289 0.550968 -0.400504
C47   C     C_3   0.694399 0.420152 0.462552 -0.430994
C48   C     C_3   0.311810 0.582261 0.550806 -0.422176
C49   C     C_R   0.877303 0.498470 0.496898 0.862891
C50   C     C_R   0.122867 0.501655 0.503458 0.861694
C51   C     C_R   0.919216 0.418933 0.338020 0.915740
C52   C     C_R   0.080815 0.581076 0.662001 0.913216
C53   C     C_R   0.378228 0.500121 0.499804 0.871758
C54   C     C_R   0.621751 0.501136 0.500168 0.866886
C55   C     C_R   0.502258 0.378397 0.499891 0.877328
C56   C     C_R   0.498205 0.621638 0.500139 0.875176
C57   C     C_3   0.808784 0.498497 0.496300 0.124358
C58   C     C_3   0.191299 0.501587 0.503860 0.120279
C59   C     C_3   0.755500 0.524765 0.440414 0.083130
C60   C     C_3   0.237702 0.460901 0.544590 0.090688
C61   C     C_3   0.701971 0.288894 0.949836 -0.549901
C62   C     C_3   0.337228 0.750136 0.049683 -0.520184
C63   C     C_3   0.792086 0.214857 0.951534 -0.489934
C64   C     C_3   0.221725 0.732643 0.049338 -0.420940
C65   C     C_3   0.841798 0.267714 0.049192 0.027828
C66   C     C_3   0.169229 0.686450 0.952009 0.014792
C67   C     C_1   0.874504 0.374432 0.249240 -0.187427
C68   C     C_1   0.125138 0.625631 0.750827 -0.188229
H1    H     H_    0.633174 0.491092 0.379485 0.190644
H2    H     H_    0.360496 0.490873 0.608177 0.186750
H3    H     H_    0.872138 0.234556 0.073323 0.129098
H4    H     H_    0.116697 0.702491 0.934416 0.125397
H5    H     H_    0.623894 0.182651 0.936666 0.158409
H6    H     H_    0.318814 0.882630 0.075026 0.168361
H7    H     H_    0.641877 0.286713 0.920565 0.162742
H8    H     H_    0.387878 0.791170 0.072909 0.156667
H9    H     H_    0.698002 0.342186 0.057958 0.159889
H10   H     H_    0.314978 0.721936 0.930226 0.171586
H11   H     H_    0.772714 0.181290 0.059223 0.113182
H12   H     H_    0.157794 0.797589 0.930219 0.109004
H13   H     H_    0.451165 0.236910 0.574772 0.169085
H14   H     H_    0.540171 0.758995 0.416297 0.166931
H15   H     H_    0.383706 0.181925 0.463038 0.186557
H16   H     H_    0.612937 0.812890 0.526587 0.187090
H17   H     H_    0.386337 0.288777 0.465331 0.172434
H18   H     H_    0.610229 0.705716 0.523552 0.168713
H19   H     H_    0.753953 0.375763 0.401879 0.162661
H20   H     H_    0.255497 0.617887 0.616429 0.156426
H21   H     H_    0.455596 0.343588 0.576303 0.167665
H22   H     H_    0.535175 0.652158 0.414480 0.170698
H23   H     H_    0.592406 0.264232 0.634786 0.136888
H24   H     H_    0.401546 0.736252 0.367397 0.137873
H25   H     H_    0.528557 0.149656 0.407600 0.177100
H26   H     H_    0.480014 0.853509 0.598836 0.177489
H27   H     H_    0.429646 0.125708 0.363984 0.163667
H28   H     H_    0.577224 0.874212 0.634830 0.164128
H29   H     H_    0.424683 0.230767 0.363289 0.187850
H30   H     H_    0.583124 0.768943 0.635107 0.185443
H31   H     H_    0.521198 0.251060 0.398220 0.156472
H32   H     H_    0.489248 0.752679 0.609193 0.159598
H33   H     H_    0.860715 0.612204 0.611620 0.169049
H34   H     H_    0.131845 0.399804 0.375697 0.163163
H35   H     H_    0.758090 0.612668 0.618066 0.166392
H36   H     H_    0.236062 0.398179 0.372459 0.173123
H37   H     H_    0.766320 0.535670 0.630418 0.189153
H38   H     H_    0.238482 0.484281 0.377462 0.187844
H39   H     H_    0.725557 0.314674 0.929338 0.181961
H40   H     H_    0.358212 0.715485 0.075342 0.194001
H41   H     H_    0.799727 0.158464 0.931228 0.155287
H42   H     H_    0.189648 0.759479 0.076726 0.151537
H43   H     H_    0.810353 0.235888 0.923767 0.189001
H44   H     H_    0.242061 0.694865 0.070592 0.198550
O1    O     O_R   0.447710 0.092600 0.500010 -0.632777
O2    O     O_R   0.552290 0.907400 0.499990 -0.633208
O3    O     O_R   0.441990 0.534630 0.569310 -0.635023
O4    O     O_R   0.558010 0.465370 0.430690 -0.634899
O5    O     O_R   0.465370 0.372730 0.430660 -0.635241
O6    O     O_R   0.534630 0.627270 0.569340 -0.636238
O7    O     O_R   0.534650 0.442080 0.569370 -0.628332
O8    O     O_R   0.465350 0.557920 0.430630 -0.631055
O9    O     O_R   0.552280 0.092600 0.499960 -0.631609
O10   O     O_R   0.447720 0.907400 0.500040 -0.630867
O11   O     O_R   0.509140 0.061430 0.622880 -0.615805
O12   O     O_R   0.490860 0.938570 0.377120 -0.620242
O13   O     O_R   0.613710 0.061430 0.622840 -0.618847
O14   O     O_R   0.386290 0.938570 0.377160 -0.614837
O15   O     O_R   0.907580 0.552300 0.500030 -0.630686
O16   O     O_R   0.092420 0.447700 0.499970 -0.622317
O17   O     O_R   0.907560 0.447760 0.500050 -0.634764
O18   O     O_R   0.092440 0.552240 0.499950 -0.634062
O19   O     O_R   0.938770 0.490850 0.377130 -0.608615
O20   O     O_R   0.061230 0.509150 0.622870 -0.608617
O21   O     O_R   0.938740 0.386300 0.377150 -0.622728
O22   O     O_R   0.061260 0.613700 0.622850 -0.624506
O23   O     O_R   0.372700 0.465280 0.430600 -0.628240
O24   O     O_R   0.627300 0.534720 0.569400 -0.627655
Zn1   Zn    Zn3+2 0.430180 0.000000 0.500030 0.932989
Zn2   Zn    Zn3+2 0.569820 0.000000 0.499970 0.927757
Zn3   Zn    Zn3+2 0.000200 0.569810 0.499990 0.935819
Zn4   Zn    Zn3+2 0.999800 0.430190 0.500010 0.941099
Zn5   Zn    Zn3+2 0.453740 0.453690 0.407380 0.918866
Zn6   Zn    Zn3+2 0.546260 0.546310 0.592620 0.918408
N1    N     N_2   0.669341 0.093522 0.908896 -0.299026
H45   H     H_    0.717579 0.078594 0.920287 0.220688
C69   C     C_3   0.616027 0.047873 0.904705 -0.816833
H46   H     H_    0.601610 0.987911 0.855827 0.240632
H47   H     H_    0.563381 0.063249 0.887483 0.245522
H48   H     H_    0.640981 0.054136 0.965592 0.227418
N2    N     N_2   0.225943 0.888574 0.082724 -0.300160
H49   H     H_    0.174576 0.858610 0.062085 0.221392
C70   C     C_3   0.224706 0.956114 0.083106 -0.824127
H50   H     H_    0.196912 0.987996 0.114136 0.239614
H51   H     H_    0.193023 0.941559 0.017888 0.242201
H52   H     H_    0.282859 0.992690 0.118731 0.242408
N3    N     N_2   0.701027 0.223084 0.092733 -0.291611
H53   H     H_    0.679711 0.172704 0.081091 0.235115
C71   C     C_3   0.656524 0.273018 0.104072 -0.818372
H54   H     H_    0.628853 0.262240 0.130869 0.232197
H55   H     H_    0.611813 0.263418 0.043428 0.224089
H56   H     H_    0.693214 0.332297 0.150228 0.245670
N4    N     N_2   0.238202 0.816160 0.909612 -0.294569
H57   H     H_    0.195622 0.821242 0.864148 0.231030
C72   C     C_3   0.312040 0.865675 0.952286 -0.829634
H58   H     H_    0.319745 0.863716 0.905213 0.240535
H59   H     H_    0.356933 0.847779 0.986943 0.229807
H60   H     H_    0.317220 0.924439 0.995528 0.240533
H61   H     H_    0.591110 0.368512 0.633406 0.153472
H62   H     H_    0.402529 0.632237 0.369403 0.154285
H63   H     H_    0.623797 0.227078 0.566141 0.192768
H64   H     H_    0.377089 0.776885 0.442217 0.194172
N5    N     N_2   0.641007 0.341153 0.565499 -0.312299
H65   H     H_    0.641603 0.298230 0.516231 0.226732
C73   C     C_3   0.714813 0.383655 0.642848 -0.841237
H66   H     H_    0.754943 0.397940 0.630244 0.235402
H67   H     H_    0.734921 0.350085 0.669977 0.241955
H68   H     H_    0.713258 0.436968 0.688691 0.250631
N6    N     N_2   0.361708 0.664757 0.446507 -0.313942
H69   H     H_    0.365559 0.709228 0.498296 0.228009
C74   C     C_3   0.285340 0.624294 0.373386 -0.847025
H70   H     H_    0.248556 0.613671 0.391463 0.236420
H71   H     H_    0.282552 0.569185 0.325529 0.250857
H72   H     H_    0.264282 0.657704 0.346233 0.244482
H73   H     H_    0.682005 0.585586 0.469882 0.134110
H74   H     H_    0.309285 0.402521 0.508651 0.135216
H75   H     H_    0.645231 0.381766 0.396540 0.175232
H76   H     H_    0.361853 0.613251 0.616709 0.178456
H77   H     H_    0.871507 0.538660 0.629337 0.175872
H78   H     H_    0.134312 0.485780 0.380816 0.188313
H79   H     H_    0.803290 0.402847 0.508119 0.189088
H80   H     H_    0.208734 0.611006 0.519579 0.191675
N7    N     N_2   0.734879 0.476151 0.354333 -0.304897
H81   H     H_    0.699450 0.422682 0.320493 0.232561
C75   C     C_3   0.714272 0.509875 0.307119 -0.829158
H82   H     H_    0.701774 0.468613 0.243765 0.235186
H83   H     H_    0.761423 0.559667 0.339091 0.252870
H84   H     H_    0.663541 0.526870 0.300128 0.237812
N8    N     N_2   0.256600 0.495331 0.629636 -0.296891
H85   H     H_    0.294955 0.548580 0.673209 0.227235
C76   C     C_3   0.270552 0.447420 0.660375 -0.803073
H86   H     H_    0.279225 0.477787 0.722920 0.249408
H87   H     H_    0.321582 0.431726 0.666298 0.229717
H88   H     H_    0.221531 0.395850 0.617333 0.246892
H89   H     H_    0.693409 0.398630 0.498892 0.176466
H90   H     H_    0.315753 0.612069 0.522813 0.174420
H91   H     H_    0.785953 0.583237 0.467727 0.153983
H92   H     H_    0.202466 0.401069 0.504985 0.151550
N9    N     N_2   0.789467 0.411765 0.086929 -0.283997
H93   H     H_    0.791599 0.424094 0.048183 0.224056
C77   C     C_3   0.783274 0.473476 0.150381 -0.812878
H94   H     H_    0.827729 0.525943 0.183389 0.246272
H95   H     H_    0.790496 0.462774 0.197421 0.256046
H96   H     H_    0.727480 0.481320 0.120651 0.226871
N10   N     N_2   0.287028 0.622335 0.920004 -0.285145
H97   H     H_    0.275786 0.600471 0.947331 0.259244
C78   C     C_3   0.348242 0.603276 0.911543 -0.852708
H98   H     H_    0.339950 0.542355 0.884548 0.242920
H99   H     H_    0.402607 0.635732 0.973854 0.241700
H100  H     H_    0.349685 0.615293 0.868575 0.248794
N11   N     N_2   0.897311 0.332174 0.078532 -0.259467
H101  H     H_    0.877525 0.356696 0.045508 0.244093
C79   C     C_3   0.969530 0.322902 0.095246 -0.831062
H102  H     H_    0.007720 0.375944 0.119572 0.241382
H103  H     H_    0.962951 0.276990 0.036715 0.236754
H104  H     H_    0.995442 0.309935 0.143573 0.243667
N12   N     N_2   0.148427 0.606015 0.916800 -0.292169
H105  H     H_    0.132496 0.571051 0.855563 0.251359
C80   C     C_3   0.097021 0.579897 0.930090 -0.836913
H106  H     H_    0.089866 0.519686 0.906762 0.243062
H107  H     H_    0.041299 0.585794 0.895275 0.234634
H108  H     H_    0.119066 0.611936 0.997799 0.249652

loop_
_geom_bond_atom_site_label_1
_geom_bond_atom_site_label_2
_ccdc_geom_bond_type
C7    C13   S    
O17   Zn4   S    
N5    H65   S    
C63   C65   S    
O14   Zn1   S    
C8    C66   S    
C71   H54   S    
C9    N3    S    
C20   H14   S    
N3    C71   S    
C41   C43   S    
C27   H27   S    
C72   H58   S    
C53   O23   A    
N12   C80   S    
C38   H2    S    
N4    H57   S    
C38   H74   S    
C39   C41   S    
C55   O7    A    
C73   H66   S    
C61   H7    S    
C48   H76   S    
C21   C31   S    
C45   C57   S    
C17   C23   S    
C22   C32   S    
C18   C24   S    
C32   C36   S    
O12   Zn2   S    
C72   H59   S    
C79   H104  S    
C12   H6    S    
N2    C70   S    
C55   O5    A    
C19   H15   S    
C6    H10   S    
C27   C29   S    
C3    C61   S    
C26   H24   S    
N1    H45   S    
C37   H73   S    
C4    C62   S    
C24   O12   A    
C77   H96   S    
C49   C57   S    
C28   H26   S    
C48   H90   S    
C9    H11   S    
C70   H52   S    
N8    C76   S    
O7    Zn6   S    
O24   Zn6   S    
C50   O18   A    
C45   H19   S    
C69   H47   S    
C59   N7    S    
C44   C53   S    
C26   C34   S    
C2    O10   A    
C66   H4    S    
C75   H83   S    
C54   O4    A    
C76   H88   S    
C70   H50   S    
C31   C33   S    
C39   H33   S    
C4    C12   S    
N10   C78   S    
C52   C68   S    
C23   O13   A    
C74   H72   S    
C39   H77   S    
C59   H91   S    
C22   H18   S    
O3    Zn6   S    
C76   H86   S    
C71   H55   S    
C46   C58   S    
C24   O14   A    
C56   O8    A    
C62   H8    S    
C33   H61   S    
C1    O1    A    
C46   H80   S    
C34   H62   S    
O18   Zn3   S    
N4    C72   S    
C69   H46   S    
C53   O3    A    
C46   H20   S    
C45   C47   S    
C25   C29   S    
C49   O15   A    
C62   H40   S    
C46   C48   S    
C25   H23   S    
C40   C58   S    
C47   H89   S    
N9    H93   S    
C52   O20   A    
C72   H60   S    
O19   Zn3   S    
C77   H94   S    
C11   H5    S    
C78   H100  S    
N11   H101  S    
C5    C7    S    
C10   H12   S    
C23   O11   A    
C27   C35   S    
C65   H3    S    
C49   O17   A    
C21   H17   S    
C41   H35   S    
C32   C56   S    
C32   C34   S    
O9    Zn2   S    
C4    C16   S    
O5    Zn5   S    
C78   H98   S    
N7    C75   S    
C38   C44   S    
C79   H102  S    
C5    N9    S    
N5    C73   S    
C37   H1    S    
C43   C54   S    
C64   H42   S    
C80   H106  S    
N10   H97   S    
C75   H84   S    
C54   O24   A    
C1    C29   S    
N12   H105  S    
C22   H22   S    
C50   C58   S    
C5    C61   S    
C36   H32   S    
C16   C18   T    
C51   C67   S    
C35   H31   S    
C39   C57   S    
C26   H64   S    
C37   C59   S    
C73   H67   S    
C10   C12   S    
C60   N8    S    
N6    H69   S    
C38   C60   S    
O2    Zn2   S    
C45   H79   S    
C80   H107  S    
C20   C22   S    
C26   C30   S    
C71   H56   S    
C20   H16   S    
C51   O21   A    
O1    Zn1   S    
C37   C43   S    
C27   H25   S    
C57   C59   S    
C47   H75   S    
C5    H9    S    
C19   C29   S    
O22   Zn3   S    
C69   H48   S    
C3    C15   S    
C65   N11   S    
C13   C67   T    
C73   H68   S    
C25   H63   S    
N7    H81   S    
N1    C69   S    
O11   Zn1   S    
C8    C14   S    
C19   C21   S    
C56   O6    A    
C12   N2    S    
C64   H44   S    
O8    Zn5   S    
C21   H21   S    
O10   Zn1   S    
N9    C77   S    
C43   C47   S    
O6    Zn6   S    
C42   H36   S    
C6    C8    S    
C15   C17   T    
C40   H78   S    
C3    C63   S    
O13   Zn2   S    
O20   Zn4   S    
C4    C64   S    
C7    C65   S    
C28   H28   S    
C2    C30   S    
C6    C62   S    
C28   C30   S    
O16   Zn4   S    
C42   C44   S    
C79   H103  S    
C64   C66   S    
C35   H29   S    
N2    H49   S    
C20   C30   S    
C2    O2    A    
C60   H92   S    
C6    N10   S    
C11   N1    S    
C9    C11   S    
C66   N12   S    
C40   C42   S    
C77   H95   S    
N6    C74   S    
C31   C35   S    
N11   C79   S    
C70   H51   S    
C63   H43   S    
N8    H85   S    
C61   H39   S    
C1    O9    A    
C78   H99   S    
C3    C11   S    
C40   H34   S    
O4    Zn5   S    
C42   H38   S    
C7    C9    S    
C52   O22   A    
O23   Zn5   S    
C80   H108  S    
C50   O16   A    
C41   H37   S    
C28   C36   S    
O21   Zn4   S    
C8    C10   S    
C75   H82   S    
C51   O19   A    
N3    H53   S    
C76   H87   S    
C74   H70   S    
C14   C68   T    
C34   N6    S    
C36   H30   S    
C10   N4    S    
C31   C55   S    
C19   H13   S    
C58   C60   S    
O15   Zn3   S    
C44   C48   S    
C25   C33   S    
C63   H41   S    
C74   H71   S    
C33   N5    S    
