data_mof_unit_40194.cif
_audit_creation_date              2013-03-05T16:12:33-0500
_audit_creation_method            fapswitch 2.2
_symmetry_space_group_name_H-M    P1
_symmetry_Int_Tables_number       1
_space_group_crystal_system       triclinic
_cell_length_a                    8.295325
_cell_length_b                    16.378791
_cell_length_c                    19.117923
_cell_angle_alpha                 112.56695
_cell_angle_beta                  91.657844
_cell_angle_gamma                 83.29146
_cell_volume                      2381.83537615

loop_
_atom_site_label
_atom_site_type_symbol
_atom_site_description
_atom_site_fract_x
_atom_site_fract_y
_atom_site_fract_z
_atom_type_partial_charge
P1    P     P_3+3 0.586140 0.411610 0.321630 0.469236
O1    O     O_2   0.405910 0.437000 0.315050 -0.354088
O2    O     O_3   0.650250 0.445090 0.405140 -0.411001
O3    O     O_3   0.110870 0.602570 0.387980 -0.387492
O4    O     O_2   0.235547 0.543437 0.254221 -0.413141
O5    O     O_3   0.602625 0.295182 0.284070 -0.567369
O6    O     O_3   0.092673 0.706335 0.297363 -0.522753
H1    H     H_    0.088739 0.769071 0.414435 0.150116
C1    C     C_3   0.011683 0.861784 0.362485 -0.975638
H2    H     H_    0.136464 0.877429 0.357374 0.285970
H3    H     H_    0.939536 0.864915 0.313546 0.255320
P2    P     P_3+3 0.070040 0.709050 0.593050 0.456940
P3    P     P_3+3 0.493039 0.765662 0.456617 0.435345
O7    O     O_2   0.240060 0.720390 0.573650 -0.386552
O8    O     O_3   0.508300 0.651290 0.432440 -0.388431
O9    O     O_2   0.340604 0.807300 0.507562 -0.399224
O10   O     O_3   0.065850 0.730706 0.691284 -0.546992
O11   O     O_3   0.447192 0.790096 0.376332 -0.524671
C2    C     C_3   0.514908 0.718986 0.312150 0.490922
H4    H     H_    0.456720 0.657960 0.302750 0.151369
H5    H     H_    0.647793 0.705828 0.318242 0.010543
C3    C     C_3   0.484921 0.742885 0.243081 -0.964412
H6    H     H_    0.352776 0.759111 0.237106 0.288960
H7    H     H_    0.548147 0.801338 0.249156 0.253234
C4    C     C_3   0.642079 0.738570 0.668502 0.243316
H8    H     H_    0.771133 0.712307 0.656464 0.136695
H9    H     H_    0.574095 0.719959 0.614678 0.075022
C5    C     C_3   0.627185 0.840612 0.706769 -0.111826
H10   H     H_    0.687870 0.867383 0.670832 0.061647
H11   H     H_    0.497546 0.868135 0.711605 0.091736
Ba1   Ba    Ba6+2 0.334020 0.539200 0.472300 1.532938
C6    C     C_3   0.568658 0.264264 0.340026 0.436277
H12   H     H_    0.445943 0.292980 0.364065 0.108704
H13   H     H_    0.659570 0.281943 0.385495 0.129467
C7    C     C_3   0.575556 0.163288 0.303794 -1.023515
H14   H     H_    0.473221 0.144241 0.264498 0.277226
H15   H     H_    0.568587 0.135039 0.347533 0.231068
H16   H     H_    0.691147 0.134137 0.271665 0.250086
C8    C     C_3   0.190205 0.779598 0.733055 0.349780
H17   H     H_    0.284598 0.789802 0.699116 0.091276
H18   H     H_    0.254077 0.741997 0.765185 0.100688
C9    C     C_3   0.117787 0.869073 0.790616 -0.853767
H19   H     H_    0.027008 0.902338 0.763647 0.271517
H20   H     H_    0.215409 0.912450 0.814600 0.217222
H21   H     H_    0.057936 0.859517 0.837635 0.287454
P4    P     P_3+3 0.603540 0.588460 0.678390 0.498621
O12   O     O_2   0.783780 0.563030 0.685000 -0.329199
O13   O     O_3   0.539430 0.554980 0.594880 -0.403295
O14   O     O_3   0.078810 0.397510 0.612040 -0.379179
O15   O     O_3   0.576848 0.704883 0.716990 -0.554887
P5    P     P_3+3 0.697631 0.234259 0.546060 0.432791
O16   O     O_3   0.165590 0.389880 0.444220 -0.382756
O17   O     O_3   0.681380 0.348790 0.567580 -0.386920
O18   O     O_2   0.838392 0.189725 0.487851 -0.391545
O19   O     O_3   0.763798 0.212074 0.625343 -0.518826
Ba2   Ba    Ba6+2 0.855780 0.460880 0.527720 1.544634
P6    P     P_3+3 0.081749 0.600150 0.297069 0.423101
C10   C     C_3   0.017842 0.769486 0.364359 0.480546
H22   H     H_    0.891605 0.756316 0.370212 0.013335
H23   H     H_    0.953996 0.912244 0.415508 0.221648
O20   O     O_3   0.024090 0.610190 0.555810 -0.384337
C11   C     C_3   0.023032 0.185731 0.266121 0.351509
H24   H     H_    0.985763 0.150418 0.301361 0.084207
H25   H     H_    0.911725 0.218743 0.249797 0.115488
C12   C     C_3   0.105845 0.115955 0.194354 -0.962658
H26   H     H_    0.216230 0.080941 0.209637 0.253769
H27   H     H_    0.021449 0.066435 0.163967 0.234283
H28   H     H_    0.141231 0.148074 0.156115 0.272121
P7    P     P_3+3 0.128519 0.277877 0.400351 0.427547
O21   O     O_2   0.949630 0.279650 0.426400 -0.378674
O22   O     O_3   0.128739 0.250438 0.302153 -0.556144
H29   H     H_    0.531078 0.685950 0.191116 0.225527
C13   C     C_3   0.673474 0.271808 0.688945 0.480914
H30   H     H_    0.706273 0.340367 0.703867 0.126303
H31   H     H_    0.541467 0.270707 0.678407 0.011467
C14   C     C_3   0.711555 0.244188 0.755681 -0.960845
H32   H     H_    0.842402 0.246012 0.769115 0.287555
H33   H     H_    0.640199 0.290231 0.806506 0.223315
H34   H     H_    0.680219 0.175650 0.741836 0.266721
P8    P     P_3+3 0.100563 0.406236 0.704473 0.415617
C15   C     C_3   0.153273 0.236670 0.651594 0.514802
H35   H     H_    0.279884 0.250172 0.647106 -0.004769
O23   O     O_2   0.959712 0.476167 0.746354 -0.409867
O24   O     O_3   0.065640 0.306320 0.711013 -0.534338
H36   H     H_    0.091859 0.226389 0.596875 0.145959
H37   H     H_    0.236168 0.097259 0.620658 0.221103
C16   C     C_3   0.161703 0.151330 0.666011 -1.008514
H38   H     H_    0.038039 0.131833 0.666137 0.292895
H39   H     H_    0.218692 0.160852 0.721486 0.263832
C17   C     C_R   0.552001 0.540829 0.808222 -0.306842
H40   H     H_    0.640473 0.585187 0.837123 0.171183
C18   C     C_R   0.495803 0.542329 0.737528 0.281101
C19   C     C_R   0.385400 0.424747 0.791565 -0.436265
H41   H     H_    0.365338 0.363319 0.796690 0.161928
C20   C     C_R   0.293732 0.449719 0.738703 0.256866
C21   C     C_R   0.808226 0.562429 0.199131 -0.417517
H42   H     H_    0.830535 0.619266 0.186750 0.168985
C22   C     C_R   0.897897 0.545958 0.257347 0.257133
C23   C     C_R   0.654501 0.442201 0.186915 -0.319323
H43   H     H_    0.582303 0.388937 0.157265 0.157642
C24   C     C_R   0.699897 0.452223 0.261109 0.287962
C25   C     C_R   0.494513 0.481304 0.839030 0.099280
C26   C     C_R   0.347632 0.510740 0.712506 -0.169271
C27   C     C_R   0.702946 0.500493 0.153430 0.101209
C28   C     C_R   0.844925 0.487178 0.286751 -0.170062
C29   C     C_R   0.297622 0.419719 0.941495 -0.279907
C30   C     C_R   0.215480 0.381096 0.981492 0.313705
C31   C     C_R   0.254590 0.399713 0.057053 0.287027
C32   C     C_R   0.379234 0.452492 0.087764 -0.262726
C33   C     C_R   0.493708 0.467403 0.042339 0.032115
C34   C     C_R   0.446871 0.455264 0.965996 0.062493
C35   C     C_R   0.647737 0.495895 0.072960 -0.034781
C36   C     C_R   0.752675 0.512668 0.022560 0.088842
C37   C     C_R   0.705677 0.498489 0.945978 0.050133
C38   C     C_R   0.548594 0.477352 0.917405 -0.030788
C39   C     C_R   0.910320 0.539171 0.043561 -0.168717
C40   C     C_R   0.004108 0.563007 0.997016 -0.118834
C41   C     C_R   0.964588 0.539579 0.921834 -0.068805
C42   C     C_R   0.825488 0.498485 0.896019 -0.150000
H44   H     H_    0.234138 0.424343 0.894042 0.165096
H45   H     H_    0.388333 0.480305 0.147465 0.206498
H46   H     H_    0.973119 0.536244 0.092173 0.150815
H47   H     H_    0.118986 0.588389 0.016530 0.135394
H48   H     H_    0.048540 0.546802 0.882930 0.149269
H49   H     H_    0.809614 0.464769 0.836636 0.186158
C43   C     C_2   0.400119 0.241167 0.481772 -0.489948
C44   C     C_R   0.797373 0.754061 0.520534 -0.607670
C45   C     C_2   0.243449 0.117844 0.410281 -0.309334
C46   C     C_2   0.262037 0.204601 0.434132 0.292646
C47   C     C_2   0.507868 0.189188 0.504253 0.187988
C48   C     C_3   0.461977 0.100104 0.498652 -0.067089
C49   C     C_3   0.369052 0.054048 0.426372 0.087973
C50   C     C_2   0.598340 0.037081 0.507145 -0.138924
C51   C     C_2   0.564177 0.967197 0.521421 -0.117712
C52   C     C_R   0.832646 0.933968 0.568412 0.027510
C53   C     C_R   0.692688 0.902701 0.530714 -0.078370
C54   C     C_R   0.953326 0.878004 0.584982 0.108641
C55   C     C_R   0.933611 0.786371 0.562531 0.272216
C56   C     C_R   0.674501 0.811938 0.506532 0.208406
H50   H     H_    0.144907 0.090827 0.373460 0.144702
H51   H     H_    0.421783 0.308846 0.492075 0.161550
H52   H     H_    0.782440 0.684191 0.502309 0.193898
H53   H     H_    0.723069 0.044763 0.497586 0.174631
H54   H     H_    0.438183 0.957644 0.525988 0.166829
N1    N     N_R   0.698180 0.872749 0.782198 0.280462
O25   O     O_R   0.762736 0.818378 0.812869 -0.343525
O26   O     O_R   0.694436 0.958030 0.820081 -0.393624
C57   C     C_3   0.246892 0.543610 0.659592 -0.575152
H55   H     H_    0.283306 0.605974 0.659981 0.205987
H56   H     H_    0.261473 0.493798 0.600691 0.248062
H57   H     H_    0.117722 0.560444 0.678061 0.263777
C58   C     C_3   0.949035 0.452843 0.337805 -0.575207
H58   H     H_    0.078280 0.439616 0.319451 0.252819
H59   H     H_    0.933051 0.500336 0.397487 0.251301
H60   H     H_    0.916972 0.387638 0.333919 0.210702
C59   C     C_3   0.081146 0.325174 0.944108 -0.948796
H61   H     H_    0.060582 0.321399 0.885305 0.259106
H62   H     H_    0.114150 0.256379 0.941425 0.255289
H63   H     H_    0.965658 0.352972 0.976646 0.256226
C60   C     C_3   0.162711 0.366221 0.105659 -0.936026
H64   H     H_    0.215092 0.383241 0.162892 0.274220
H65   H     H_    0.033769 0.395185 0.111887 0.245833
H66   H     H_    0.168827 0.292595 0.079108 0.248782
C61   C     C_3   0.094559 0.922650 0.627212 -0.873316
H67   H     H_    0.154060 0.951430 0.592176 0.253272
H68   H     H_    0.050851 0.977710 0.680888 0.234071
H69   H     H_    0.187293 0.878186 0.641117 0.258736

loop_
_geom_bond_atom_site_label_1
_geom_bond_atom_site_label_2
_geom_bond_distance
_ccdc_geom_bond_type
O5    C6    1.395289 S    
C16   H38   1.109770 S    
C19   H41   1.079489 S    
C13   H30   1.112369 S    
Ba1   O20   2.936844 S    
C2    H4    1.110937 S    
C57   H57   1.107687 S    
Ba1   O16   2.822927 S    
P8    O24   1.745746 S    
C45   C46   1.341909 D    
C37   C38   1.426632 A    
C52   C53   1.391696 A    
C8    H18   1.110226 S    
C39   C40   1.388235 A    
C4    C5    1.536995 S    
C5    N1    1.464270 S    
C22   C28   1.401596 A    
C44   C56   1.400869 A    
P3    O11   1.750079 S    
P3    C56   1.838287 S    
C5    H10   1.104766 S    
C7    H15   1.105723 S    
C57   H56   1.108132 S    
O11   C2    1.402787 S    
P8    O23   1.534840 D    
N1    O25   1.301864 A    
P4    C18   1.876107 S    
C29   C30   1.396905 A    
C43   C47   1.337640 D    
P1    Ba1   3.427199 S    
C31   C32   1.394717 A    
C52   C54   1.390271 A    
P1    O1    1.519209 D    
O10   C8    1.413372 S    
P7    O22   1.754668 S    
C41   C42   1.386210 A    
C17   C25   1.445838 A    
C11   H25   1.112865 S    
O16   P7    1.760470 S    
C18   C26   1.389914 A    
H1    C10   1.110814 S    
C4    O15   1.395659 S    
C7    H14   1.107897 S    
C12   H27   1.110380 S    
C21   C22   1.414371 A    
P2    O10   1.773034 S    
C30   C31   1.393888 A    
C14   H34   1.110833 S    
C25   C38   1.574592 S    
C44   C55   1.401077 A    
Ba1   Ba2   4.580592 S    
C1    H2    1.110716 S    
O7    Ba1   2.881396 S    
O6    C10   1.405301 S    
P5    O19   1.748924 S    
C37   C42   1.398181 A    
C36   C39   1.424167 A    
C23   C27   1.434040 A    
C40   H47   1.083085 S    
C19   C20   1.402484 A    
C61   H68   1.110229 S    
C13   H31   1.108649 S    
C61   H67   1.109189 S    
C9    H20   1.110716 S    
C53   C56   1.402613 A    
C45   C49   1.498601 S    
C3    H29   1.109377 S    
C35   C36   1.438477 A    
N1    O26   1.300490 A    
P5    C47   1.845959 S    
C20   C26   1.396860 A    
C26   C57   1.508490 S    
C15   H35   1.110580 S    
C8    C9    1.521284 S    
C29   C34   1.420104 A    
C61   H69   1.094848 S    
C24   C28   1.388099 A    
P4    O13   1.574647 S    
C50   H53   1.085712 S    
C14   H33   1.108964 S    
P1    O5    1.750582 S    
C60   H66   1.109862 S    
C7    H16   1.107556 S    
C57   H55   1.095796 S    
C8    H17   1.097844 S    
C27   C35   1.568603 S    
H37   C16   1.109718 S    
C51   C53   1.467612 S    
C43   C46   1.476976 S    
C10   H22   1.110725 S    
C33   C34   1.443341 A    
O1    Ba1   2.864182 S    
P1    O2    1.574647 S    
C44   H52   1.082102 S    
C6    H13   1.108198 S    
O3    P6    1.733710 S    
C6    C7    1.522907 S    
C11   H24   1.112175 S    
O2    Ba2   2.805750 S    
C17   C18   1.425088 A    
C23   H43   1.078858 S    
C58   H60   1.105055 S    
C12   H28   1.114020 S    
C21   H42   1.081114 S    
C2    C3    1.521052 S    
C41   H48   1.081163 S    
C14   H32   1.109303 S    
P8    C20   1.830683 S    
O2    Ba1   2.938876 S    
C1    H3    1.110597 S    
C15   C16   1.518667 S    
C39   H46   1.066648 S    
C42   H49   1.066910 S    
C23   C24   1.409098 A    
P2    O7    1.518401 D    
Ba2   O21   2.881565 S    
Ba1   O13   2.805184 S    
C21   C27   1.427492 A    
P3    O8    1.738459 S    
C50   C51   1.336018 D    
C13   C14   1.522668 S    
C3    H7    1.110679 S    
C9    H19   1.107728 S    
C48   C49   1.531960 S    
P1    C24   1.863399 S    
C15   O24   1.406994 S    
C36   C37   1.441051 A    
O17   Ba2   2.793259 S    
O13   Ba2   2.939676 S    
C28   C58   1.507919 S    
P4    O12   1.519504 D    
C1    C10   1.520739 S    
C11   C12   1.525814 S    
C29   H44   1.059170 S    
Ba2   O20   2.822172 S    
C59   H63   1.107802 S    
C30   C59   1.510447 S    
C58   H59   1.108150 S    
C48   C50   1.488851 S    
C19   C25   1.415617 A    
C54   C61   1.500465 S    
O8    Ba1   2.792660 S    
C31   C60   1.508370 S    
C4    H9    1.111598 S    
O14   Ba2   2.785997 S    
C54   C55   1.422096 A    
P4    O15   1.749428 S    
C43   H51   1.084792 S    
O14   P8    1.723207 S    
O4    P6    1.536590 D    
C1    H23   1.110072 S    
C60   H64   1.109248 S    
P5    O18   1.545017 D    
C59   H62   1.109766 S    
C47   C48   1.514199 S    
C4    H8    1.102153 S    
P2    Ba1   3.435640 S    
C32   C33   1.407212 A    
C6    H12   1.103620 S    
P2    O20   1.586724 S    
C32   H45   1.058259 S    
C17   H40   1.079240 S    
P6    C22   1.849982 S    
C5    H11   1.108490 S    
O6    P6    1.749937 S    
C11   O22   1.410132 S    
P2    C55   1.849090 S    
C45   H50   1.082437 S    
P7    O21   1.572429 D    
C33   C35   1.442013 A    
O3    Ba1   2.786599 S    
C51   H54   1.085562 S    
O19   C13   1.401951 S    
C59   H61   1.111197 S    
C58   H58   1.108450 S    
P7    C46   1.824045 S    
C12   H26   1.114967 S    
P3    O9    1.540333 D    
P4    Ba2   3.427725 S    
C16   H39   1.110799 S    
C3    H6    1.110546 S    
C34   C38   1.442390 A    
P5    O17   1.748749 S    
C40   C41   1.378200 A    
C9    H21   1.109500 S    
C15   H36   1.111867 S    
O16   Ba2   2.935937 S    
C60   H65   1.108505 S    
O12   Ba2   2.864682 S    
C2    H5    1.109719 S    
