data_mof_unit_40737.cif
_audit_creation_date              2012-12-10T17:06:41-0500
_audit_creation_method            fapswitch 2.2
_symmetry_space_group_name_H-M    P1
_symmetry_Int_Tables_number       1
_space_group_crystal_system       triclinic
_cell_length_a                    15.859824
_cell_length_b                    11.041331
_cell_length_c                    9.821249
_cell_angle_alpha                 111.098472
_cell_angle_beta                  97.95071
_cell_angle_gamma                 90.962005
_cell_volume                      1584.98690759

loop_
_atom_site_label
_atom_site_type_symbol
_atom_type_description
_atom_site_fract_x
_atom_site_fract_y
_atom_site_fract_z
_atom_type_partial_charge
C1    C     C_R   0.493819 0.254134 0.440696 0.863886
C2    C     C_R   0.505998 0.745860 0.559302 0.863546
C3    C     C_2   0.500949 0.069526 0.516620 -0.151456
C4    C     C_2   0.497771 0.930422 0.483361 -0.152249
C5    C     C_2   0.507115 0.511062 0.081256 -0.065069
C6    C     C_2   0.492354 0.489716 0.918928 -0.072524
C7    C     C_R   0.339970 0.500113 0.501386 0.826412
C8    C     C_R   0.660079 0.499877 0.498619 0.824840
C9    C     C_3   0.968194 0.377341 0.470521 -0.228848
C10   C     C_3   0.032366 0.623722 0.534691 -0.308682
C11   C     C_3   0.016956 0.422104 0.368000 -0.301963
C12   C     C_3   0.983077 0.578123 0.636686 -0.321302
C13   C     C_1   0.250630 0.500614 0.504111 -0.181838
C14   C     C_1   0.749544 0.499262 0.496122 -0.168620
C15   C     C_3   0.035396 0.456938 0.604007 0.535974
C16   C     C_3   0.965574 0.543888 0.400885 0.551516
C17   C     C_3   0.083526 0.500789 0.503300 0.039000
C18   C     C_3   0.917107 0.499472 0.500718 0.078662
C19   C     C_1   0.175170 0.500760 0.504345 -0.031461
C20   C     C_1   0.825170 0.499154 0.497077 0.010854
C21   C     C_2   0.490271 0.114851 0.407283 -0.352655
C22   C     C_2   0.509117 0.885127 0.592696 -0.351838
Cu1   Cu    Cu3+1 0.514700 0.521810 0.644910 0.946668
Cu2   Cu    Cu3+1 0.485300 0.478190 0.355090 0.941677
H1    H     H_    0.031367 0.360208 0.257756 0.153137
H2    H     H_    0.967721 0.640593 0.745984 0.145758
H3    H     H_    0.941254 0.277179 0.447125 0.156350
H4    H     H_    0.059614 0.723831 0.558829 0.153156
H5    H     H_    0.486163 0.864708 0.368356 0.180769
H6    H     H_    0.512278 0.135229 0.631635 0.181865
H7    H     H_    0.520738 0.951137 0.707500 0.151295
H8    H     H_    0.478927 0.048856 0.292465 0.150330
H9    H     H_    0.442823 0.417360 0.846343 0.159613
H10   H     H_    0.556325 0.583908 0.153974 0.163105
H11   H     H_    0.583422 0.622617 0.934137 0.195883
H12   H     H_    0.416804 0.377010 0.065770 0.191742
N1    N     N_2   0.463210 0.445420 0.137360 -0.287873
N2    N     N_2   0.536790 0.554580 0.862640 -0.283305
O1    O     O_R   0.507840 0.332340 0.577400 -0.578809
O2    O     O_R   0.492160 0.667660 0.422600 -0.579535
O3    O     O_R   0.483020 0.295500 0.332650 -0.574398
O4    O     O_R   0.516980 0.704500 0.667350 -0.575239
O5    O     O_R   0.391490 0.518400 0.622350 -0.575400
O6    O     O_R   0.608510 0.481600 0.377650 -0.568422
O7    O     O_R   0.366660 0.481570 0.377600 -0.576892
O8    O     O_R   0.633340 0.518430 0.622400 -0.567417
O9    O     O_3   0.923004 0.588262 0.293658 -0.608486
C23   C     C_3   0.982048 0.628961 0.220311 0.042941
H13   H     H_    0.962708 0.576498 0.099571 0.166869
H14   H     H_    0.049324 0.606803 0.247509 0.128318
C24   C     C_3   0.978436 0.775202 0.255142 -0.326388
H15   H     H_    0.911889 0.796729 0.223919 0.231474
H16   H     H_    0.997781 0.828554 0.375716 0.215883
C25   C     C_3   0.037215 0.823186 0.171692 -0.933659
H17   H     H_    0.104438 0.805158 0.203339 0.256025
H18   H     H_    0.032869 0.929451 0.199595 0.263699
H19   H     H_    0.017977 0.772998 0.050633 0.246075
O10   O     O_3   0.072988 0.402006 0.705226 -0.609828
C26   C     C_3   0.117797 0.500280 0.832140 0.055254
H20   H     H_    0.071798 0.559463 0.899675 0.134758
H21   H     H_    0.160482 0.565092 0.802614 0.149530
C27   C     C_3   0.172538 0.436321 0.924353 -0.329130
H22   H     H_    0.130576 0.374845 0.959233 0.220402
H23   H     H_    0.216561 0.372830 0.856041 0.223725
C28   C     C_3   0.225102 0.537474 0.061318 -0.921442
H24   H     H_    0.269203 0.597989 0.029025 0.259699
H25   H     H_    0.263499 0.487405 0.125633 0.274830
H26   H     H_    0.182580 0.601197 0.132564 0.249208

loop_
_geom_bond_atom_site_label_1
_geom_bond_atom_site_label_2
_ccdc_geom_bond_type
C2    C22   S    
C3    H6    S    
C27   H23   S    
Cu1   Cu2   S    
C6    N2    D    
C25   H18   S    
C1    C21   S    
C27   H22   S    
C7    O5    A    
Cu1   N2    S    
C4    C22   D    
C11   C16   S    
C4    H5    S    
C28   H25   S    
C12   C15   S    
C28   H26   S    
C5    H10   S    
C24   C25   S    
C23   H14   S    
Cu2   N1    S    
C9    C15   S    
C26   H20   S    
C6    H9    S    
C10   C16   S    
C21   H8    S    
Cu2   O3    S    
C9    C11   S    
C8    O6    A    
Cu1   O4    S    
C10   C12   S    
C2    O4    A    
Cu1   O1    S    
Cu2   O7    S    
C7    O7    A    
C16   O9    S    
C1    O3    A    
H12   N1    S    
Cu2   O2    S    
C18   C20   S    
C5    C6    S    
Cu2   O6    S    
C15   O10   S    
C8    O8    A    
C3    C21   D    
C26   H21   S    
C5    N1    D    
C1    O1    A    
C10   C17   S    
C12   C18   S    
C24   H15   S    
O9    C23   S    
C2    O2    A    
C9    C18   S    
C7    C13   S    
H11   N2    S    
Cu1   O5    S    
C24   H16   S    
C9    H3    S    
C14   C20   T    
C16   C18   S    
C28   H24   S    
C22   H7    S    
C10   H4    S    
Cu1   O8    S    
C11   H1    S    
C25   H17   S    
C23   H13   S    
C13   C19   T    
C8    C14   S    
C27   C28   S    
C17   C19   S    
O10   C26   S    
C15   C17   S    
C23   C24   S    
C11   C17   S    
C3    C4    S    
C12   H2    S    
C26   C27   S    
C25   H19   S    
