data_mof_unit_47881.cif
_audit_creation_date              2012-12-11T15:50:36-0500
_audit_creation_method            fapswitch 2.2
_symmetry_space_group_name_H-M    P1
_symmetry_Int_Tables_number       1
_space_group_crystal_system       triclinic
_cell_length_a                    18.967022
_cell_length_b                    11.004378
_cell_length_c                    18.752206
_cell_angle_alpha                 90.005385
_cell_angle_beta                  91.377243
_cell_angle_gamma                 90.004912
_cell_volume                      3912.83496149

loop_
_atom_site_label
_atom_site_type_symbol
_atom_type_description
_atom_site_fract_x
_atom_site_fract_y
_atom_site_fract_z
_atom_type_partial_charge
C1    C     C_R   0.273920 0.039266 0.854855 0.548294
C2    C     C_R   0.759782 0.573774 0.927958 0.017611
C3    C     C_R   0.209744 0.498075 0.361345 0.561184
C4    C     C_R   0.467043 0.822818 0.645735 0.593623
C5    C     C_R   0.530801 0.823073 0.353168 0.557776
C6    C     C_R   0.969198 0.323071 0.646832 0.557652
C7    C     C_R   0.032958 0.322822 0.354266 0.593755
C8    C     C_R   0.258801 0.633805 0.645217 0.538089
C9    C     C_R   0.742261 0.631579 0.353654 0.532663
C10   C     C_R   0.757735 0.131576 0.646347 0.532591
C11   C     C_R   0.241193 0.133814 0.354786 0.538166
C12   C     C_3   0.476677 0.923973 0.034525 -0.113609
C13   C     C_R   0.740145 0.073655 0.071996 0.017154
C14   C     C_3   0.521380 0.927246 0.966553 -0.113894
C15   C     C_3   0.976656 0.423950 0.034532 -0.113081
C16   C     C_3   0.021357 0.427269 0.966561 -0.114431
C17   C     C_3   0.429686 0.822729 0.001323 -0.136233
C18   C     C_3   0.571238 0.828873 0.998516 -0.136579
C19   C     C_3   0.929686 0.322687 0.001321 -0.135148
C20   C     C_3   0.071235 0.328918 0.998517 -0.137618
C21   C     C_3   0.474945 0.825636 0.934839 0.055701
C22   C     C_3   0.525945 0.825294 0.064977 0.055004
C23   C     C_3   0.974944 0.325639 0.934838 0.055102
C24   C     C_R   0.259788 0.073759 0.927963 0.017373
C25   C     C_3   0.025943 0.325294 0.064976 0.055594
C26   C     C_R   0.304504 0.551427 0.039607 0.004776
C27   C     C_R   0.695470 0.551228 0.960388 0.005083
C28   C     C_R   0.804507 0.051436 0.039609 0.006265
C29   C     C_R   0.195474 0.051224 0.960391 0.003628
C30   C     C_R   0.310579 0.562287 0.966114 0.016248
C31   C     C_R   0.689409 0.562160 0.033880 0.016466
C32   C     C_R   0.810581 0.062293 0.966116 0.015695
C33   C     C_R   0.726066 0.039241 0.145133 0.551672
C34   C     C_R   0.189411 0.062158 0.033881 0.017017
C35   C     C_R   0.187062 0.613016 0.955311 -0.175386
C36   C     C_R   0.812825 0.613664 0.044574 -0.175169
C37   C     C_R   0.687066 0.113029 0.955316 -0.175144
C38   C     C_R   0.312830 0.113643 0.044580 -0.175411
C39   C     C_R   0.182099 0.609419 0.028678 -0.174603
C40   C     C_R   0.817766 0.609984 0.971220 -0.174241
C41   C     C_R   0.682104 0.109435 0.028682 -0.175238
C42   C     C_R   0.317774 0.109958 0.971226 -0.173611
C43   C     C_3   0.349795 0.440884 0.042984 -0.267234
C44   C     C_R   0.773917 0.539274 0.854851 0.551730
C45   C     C_3   0.650342 0.440445 0.957090 -0.268178
C46   C     C_3   0.849798 0.940892 0.042986 -0.267795
C47   C     C_3   0.150340 0.940448 0.957090 -0.267610
C48   C     C_3   0.356998 0.452741 0.963010 -0.276802
C49   C     C_3   0.643174 0.452380 0.037064 -0.275967
C50   C     C_3   0.856999 0.952746 0.963011 -0.276166
C51   C     C_3   0.143171 0.952384 0.037064 -0.276606
C52   C     C_R   0.251314 0.588949 0.922805 0.018106
C53   C     C_R   0.748656 0.589161 0.077138 0.019377
C54   C     C_R   0.751316 0.088956 0.922808 0.019026
C55   C     C_R   0.226063 0.539234 0.145130 0.548231
C56   C     C_R   0.248658 0.089152 0.077142 0.018452
C57   C     C_R   0.500048 0.830152 0.423071 0.006298
C58   C     C_R   0.483175 0.827127 0.571054 0.042889
C59   C     C_R   0.016828 0.327143 0.428948 0.042880
C60   C     C_R   0.999952 0.330146 0.576931 0.006247
C61   C     C_R   0.444245 0.817895 0.862898 0.551942
C62   C     C_R   0.556187 0.817790 0.137133 0.548859
C63   C     C_R   0.944244 0.317895 0.862897 0.548666
C64   C     C_R   0.056184 0.317790 0.137133 0.552125
C65   C     C_R   0.480767 0.723432 0.457890 0.023864
C66   C     C_3   0.524436 0.727630 0.965719 -0.107222
C67   C     C_R   0.470168 0.722823 0.530301 -0.016477
C68   C     C_R   0.029785 0.222817 0.469680 -0.016490
C69   C     C_R   0.019189 0.223417 0.542090 0.023874
C70   C     C_R   0.500430 0.934928 0.536999 -0.152552
C71   C     C_R   0.506932 0.936831 0.463116 -0.130636
C72   C     C_R   0.993116 0.436845 0.536909 -0.130649
C73   C     C_R   0.999622 0.434956 0.463025 -0.152492
C74   C     C_3   0.519661 0.605043 0.461894 0.133543
C75   C     C_3   0.504122 0.601340 0.540462 0.135208
C76   C     C_3   0.995771 0.101377 0.459489 0.135163
C77   C     C_3   0.479318 0.724352 0.032776 -0.107655
C78   C     C_3   0.980241 0.105071 0.538060 0.133505
C79   C     C_R   0.220291 0.515280 0.436988 -0.003615
C80   C     C_R   0.781277 0.514962 0.562318 0.004993
C81   C     C_R   0.718718 0.014966 0.437676 0.005043
C82   C     C_R   0.279689 0.015296 0.563011 -0.003618
C83   C     C_R   0.164121 0.555042 0.477359 -0.037845
C84   C     C_R   0.836261 0.564469 0.524261 -0.048805
C85   C     C_R   0.663743 0.064496 0.475730 -0.048860
C86   C     C_R   0.335869 0.054990 0.522627 -0.037851
C87   C     C_R   0.175141 0.580975 0.548806 0.066900
C88   C     C_3   0.024454 0.227657 0.965710 -0.108400
C89   C     C_R   0.827208 0.587006 0.451699 0.067155
C90   C     C_R   0.672789 0.087023 0.548295 0.067097
C91   C     C_R   0.324846 0.080927 0.451183 0.066879
C92   C     C_R   0.295314 0.510542 0.543308 -0.170108
C93   C     C_R   0.710581 0.499176 0.453203 -0.170404
C94   C     C_R   0.789396 0.999142 0.546797 -0.170445
C95   C     C_R   0.204637 0.010651 0.456710 -0.170092
C96   C     C_R   0.285710 0.491491 0.470572 -0.167277
C97   C     C_R   0.718411 0.484511 0.526418 -0.144758
C98   C     C_R   0.781572 0.984484 0.473580 -0.144738
C99   C     C_3   0.979337 0.224332 0.032766 -0.106449
C100  C     C_R   0.214248 0.991587 0.529441 -0.167280
C101  C     C_3   0.121925 0.668844 0.465421 -0.207926
C102  C     C_3   0.867108 0.687412 0.538915 -0.210559
C103  C     C_3   0.632926 0.187448 0.461083 -0.210604
C104  C     C_3   0.378123 0.168745 0.534563 -0.207894
C105  C     C_3   0.135291 0.697130 0.542657 0.141695
C106  C     C_3   0.856175 0.711879 0.461517 0.119781
C107  C     C_3   0.643848 0.211907 0.538486 0.119770
C108  C     C_3   0.364753 0.197037 0.457331 0.141724
C109  C     C_R   0.260784 0.635456 0.851223 0.537230
C110  C     C_R   0.240141 0.573643 0.071992 0.016927
C111  C     C_R   0.739204 0.635497 0.148758 0.535953
C112  C     C_R   0.760785 0.135459 0.851225 0.536078
C113  C     C_R   0.239205 0.135494 0.148760 0.537103
C114  C     C_R   0.241460 0.565197 0.581558 0.004853
C115  C     C_R   0.762476 0.561112 0.416494 0.008688
C116  C     C_R   0.737512 0.061104 0.583503 0.008682
C117  C     C_R   0.258513 0.065221 0.418447 0.004837
C118  C     C_R   0.290251 0.998074 0.638649 0.561143
C119  C     C_R   0.709654 0.998210 0.361474 0.567940
C120  C     C_R   0.790343 0.498205 0.638521 0.567879
Cl1   Cl    Cl    0.475922 0.490192 0.411070 -0.558080
Cl2   Cl    Cl    0.580837 0.609113 0.597538 -0.598294
Cl3   Cl    Cl    0.919053 0.109273 0.402421 -0.598219
Cl4   Cl    Cl    0.023940 0.990167 0.588851 -0.558101
Cl5   Cl    Cl    0.060789 0.697942 0.598109 -0.561704
Cl6   Cl    Cl    0.934220 0.742690 0.413669 -0.601022
Cl7   Cl    Cl    0.565795 0.242734 0.586317 -0.600979
Cl8   Cl    Cl    0.439242 0.197778 0.401859 -0.561702
Cr1   Cr    Cr6+3 0.229640 0.835880 0.747370 1.080450
Cr2   Cr    Cr6+3 0.614230 0.677220 0.250660 1.056565
Cr3   Cr    Cr6+3 0.885770 0.177220 0.749340 1.056647
Cr4   Cr    Cr6+3 0.114230 0.177220 0.250660 1.045776
Cr5   Cr    Cr6+3 0.770360 0.835880 0.252630 1.084522
Cr6   Cr    Cr6+3 0.729640 0.335880 0.747370 1.084510
Cr7   Cr    Cr6+3 0.270360 0.335880 0.252630 1.080500
Cr8   Cr    Cr6+3 0.387390 0.989720 0.750850 1.040200
Cr9   Cr    Cr6+3 0.612610 0.989720 0.249150 1.054309
Cr10  Cr    Cr6+3 0.887390 0.489720 0.750850 1.054288
Cr11  Cr    Cr6+3 0.112610 0.489720 0.249150 1.040183
Cr12  Cr    Cr6+3 0.385770 0.677220 0.749340 1.045875
H1    H     H_    0.371130 0.820539 0.000896 0.114576
H2    H     H_    0.923550 0.115733 0.549627 0.160623
H3    H     H_    0.576359 0.615650 0.450337 0.160642
H4    H     H_    0.466315 0.529657 0.555875 0.181632
H5    H     H_    0.347232 0.497490 0.567039 0.147198
H6    H     H_    0.660523 0.476942 0.427627 0.165700
H7    H     H_    0.839447 0.976894 0.572376 0.165723
H8    H     H_    0.152703 0.997671 0.432995 0.147260
H9    H     H_    0.331037 0.468278 0.439753 0.207683
H10   H     H_    0.673400 0.456927 0.555805 0.226884
H11   H     H_    0.826585 0.956904 0.444193 0.226826
H12   H     H_    0.629793 0.831383 0.998992 0.115103
H13   H     H_    0.168918 0.968400 0.560267 0.207709
H14   H     H_    0.066142 0.652632 0.451755 0.212001
H15   H     H_    0.922852 0.688090 0.556373 0.229153
H16   H     H_    0.577184 0.188146 0.443610 0.229156
H17   H     H_    0.433900 0.152469 0.548212 0.211972
H18   H     H_    0.147877 0.735123 0.429738 0.141836
H19   H     H_    0.833066 0.745209 0.572489 0.146918
H20   H     H_    0.666988 0.245232 0.427524 0.146929
H21   H     H_    0.352213 0.235059 0.570258 0.141836
H22   H     H_    0.170038 0.775796 0.550021 0.141678
H23   H     H_    0.871130 0.320465 0.000894 0.114663
H24   H     H_    0.812888 0.774676 0.451911 0.131700
H25   H     H_    0.687145 0.274695 0.548109 0.131733
H26   H     H_    0.330041 0.275736 0.449983 0.141692
H27   H     H_    0.458467 0.004317 0.064623 0.121877
H28   H     H_    0.537281 0.010355 0.937626 0.119812
H29   H     H_    0.958429 0.504273 0.064637 0.121191
H30   H     H_    0.037242 0.510394 0.937643 0.120546
H31   H     H_    0.543642 0.647192 0.936431 0.135363
H32   H     H_    0.462517 0.640981 0.060800 0.132566
H33   H     H_    0.043680 0.147246 0.936413 0.134589
H34   H     H_    0.129789 0.331460 0.998993 0.115045
H35   H     H_    0.962553 0.140945 0.060783 0.133146
H36   H     H_    0.140805 0.639664 0.924118 0.137547
H37   H     H_    0.859033 0.640757 0.075711 0.135967
H38   H     H_    0.640809 0.139681 0.924123 0.136638
H39   H     H_    0.359038 0.140729 0.075718 0.136885
H40   H     H_    0.130803 0.627224 0.050635 0.145304
H41   H     H_    0.869014 0.628118 0.949237 0.145083
H42   H     H_    0.630809 0.127245 0.050640 0.145526
H43   H     H_    0.369023 0.128080 0.949245 0.144867
H44   H     H_    0.819850 0.859119 0.058752 0.169787
H45   H     H_    0.512575 0.014495 0.568191 0.186719
H46   H     H_    0.180385 0.858767 0.941344 0.170672
H47   H     H_    0.319848 0.359110 0.058748 0.170316
H48   H     H_    0.680391 0.358769 0.941344 0.170153
H49   H     H_    0.399956 0.455973 0.073432 0.135150
H50   H     H_    0.600109 0.455238 0.926706 0.134641
H51   H     H_    0.899959 0.955981 0.073433 0.134892
H52   H     H_    0.100108 0.955249 0.926706 0.134926
H53   H     H_    0.411402 0.476417 0.947098 0.140965
H54   H     H_    0.588744 0.475796 0.053003 0.141110
H55   H     H_    0.911403 0.976421 0.947097 0.141741
H56   H     H_    0.524577 0.017800 0.437995 0.193658
H57   H     H_    0.088741 0.975807 0.053001 0.140328
H58   H     H_    0.332289 0.376597 0.932450 0.148136
H59   H     H_    0.668027 0.376403 0.067637 0.149655
H60   H     H_    0.832289 0.876603 0.932452 0.149445
H61   H     H_    0.168019 0.876403 0.067637 0.148342
H62   H     H_    0.975504 0.517823 0.562049 0.193667
H63   H     H_    0.987515 0.514542 0.431851 0.186734
H64   H     H_    0.033545 0.029658 0.444052 0.181715
O1    O     O_R   0.214300 0.709080 0.827500 -0.521104
O2    O     O_R   0.543340 0.717710 0.330180 -0.476230
O3    O     O_R   0.956660 0.217710 0.669820 -0.476248
O4    O     O_R   0.043340 0.217710 0.330180 -0.466248
O5    O     O_R   0.320590 0.625770 0.672930 -0.518062
O6    O     O_R   0.679410 0.625770 0.327070 -0.509868
O7    O     O_R   0.820590 0.125770 0.672930 -0.509852
O8    O     O_R   0.179410 0.125770 0.327070 -0.518078
O9    O     O_3   0.334270 0.834280 0.749190 -0.313137
O10   O     O_3   0.665730 0.834280 0.250810 -0.316310
O11   O     O_3   0.834270 0.334280 0.749190 -0.315901
O12   O     O_R   0.785700 0.709080 0.172500 -0.525529
O13   O     O_3   0.165730 0.334280 0.250810 -0.313548
O14   O     O_R   0.236190 0.958390 0.823150 -0.493821
O15   O     O_R   0.763810 0.958390 0.176850 -0.492160
O16   O     O_R   0.736190 0.458390 0.823150 -0.492232
O17   O     O_R   0.263810 0.458390 0.176850 -0.493747
O18   O     O_R   0.332090 0.075280 0.831290 -0.528440
O19   O     O_R   0.667910 0.075280 0.168710 -0.526513
O20   O     O_R   0.832090 0.575280 0.831290 -0.526571
O21   O     O_R   0.167910 0.575280 0.168710 -0.528391
O22   O     O_R   0.446280 0.918040 0.826620 -0.499002
O23   O     O_R   0.714300 0.209080 0.827500 -0.525451
O24   O     O_R   0.553720 0.918040 0.173380 -0.498835
O25   O     O_R   0.946280 0.418040 0.826620 -0.498773
O26   O     O_R   0.053720 0.418040 0.173380 -0.499065
O27   O     O_R   0.457080 0.716270 0.831760 -0.506981
O28   O     O_R   0.542920 0.716270 0.168240 -0.508766
O29   O     O_R   0.957080 0.216270 0.831760 -0.509054
O30   O     O_R   0.042920 0.216270 0.168240 -0.506670
O31   O     O_R   0.320980 0.624440 0.823040 -0.510601
O32   O     O_R   0.679020 0.624440 0.176960 -0.508789
O33   O     O_R   0.820980 0.124440 0.823040 -0.508482
O34   O     O_R   0.285700 0.209080 0.172500 -0.521175
O35   O     O_R   0.179020 0.124440 0.176960 -0.510911
O36   O     O_R   0.213880 0.710510 0.665560 -0.481980
O37   O     O_R   0.786120 0.710510 0.334440 -0.486789
O38   O     O_R   0.713880 0.210510 0.665560 -0.486823
O39   O     O_R   0.286120 0.210510 0.334440 -0.481945
O40   O     O_R   0.235800 0.959720 0.673040 -0.477832
O41   O     O_R   0.764200 0.959720 0.326960 -0.454553
O42   O     O_R   0.735800 0.459720 0.673040 -0.454659
O43   O     O_R   0.264200 0.459720 0.326960 -0.477702
O44   O     O_R   0.331670 0.076720 0.669350 -0.507870
O45   O     O_R   0.445900 0.919370 0.676500 -0.516110
O46   O     O_R   0.668330 0.076720 0.330650 -0.502188
O47   O     O_R   0.831670 0.576720 0.669350 -0.502247
O48   O     O_R   0.168330 0.576720 0.330650 -0.507833
O49   O     O_R   0.554100 0.919370 0.323500 -0.504429
O50   O     O_R   0.945900 0.419370 0.676500 -0.504496
O51   O     O_R   0.054100 0.419370 0.323500 -0.516071
O52   O     O_R   0.456660 0.717710 0.669820 -0.466235

loop_
_geom_bond_atom_site_label_1
_geom_bond_atom_site_label_2
_ccdc_geom_bond_type
C100  H13   S    
C83   C87   A    
C74   H3    S    
C107  H25   S    
C34   C56   A    
Cr12  O52   S    
C48   H53   S    
C109  O31   A    
C75   Cl2   S    
C84   C102  S    
C14   C18   S    
C35   C39   A    
Cr11  O48   S    
C44   O16   A    
C120  O47   A    
C104  H17   S    
C80   C84   A    
C9    O37   A    
C12   H27   S    
C89   C115  A    
Cr9   O46   S    
C88   H33   S    
C95   C117  A    
C15   C19   S    
C37   H38   S    
C73   H63   S    
C28   C46   S    
C34   C51   S    
Cr5   O15   S    
C3    O43   A    
C29   C47   S    
Cr9   O49   S    
Cr5   O10   S    
C52   C109  S    
C14   C21   S    
C30   C48   S    
C16   C20   S    
Cr4   O35   S    
C76   C78   S    
C90   C107  S    
Cr8   O9    S    
Cr9   O24   S    
C86   C91   A    
C78   H2    S    
C81   C98   A    
C21   C66   S    
C62   O24   A    
C103  H20   S    
C15   C25   S    
C82   C118  S    
C22   C62   S    
C20   C25   S    
C94   C98   A    
C103  H16   S    
C46   H44   S    
C15   C16   S    
Cr7   O13   S    
C12   C22   S    
C92   C96   A    
C24   C42   A    
C6    O50   A    
C15   H29   S    
C17   H1    S    
Cr4   O13   S    
C93   C115  A    
C5    O49   A    
C47   H52   S    
C24   C29   A    
Cr6   O38   S    
C87   C114  A    
Cr8   O22   S    
C36   C53   A    
C51   H57   S    
C70   H45   S    
Cr5   O37   S    
C5    O2    A    
C63   O25   A    
C106  H24   S    
C25   C99   S    
C39   C110  A    
C20   H34   S    
C2    C44   S    
C68   C69   A    
C65   C67   A    
Cr4   O8    S    
C12   C17   S    
C26   C43   S    
Cr12  O31   S    
C97   H10   S    
C91   C117  A    
C13   C28   A    
C58   C67   A    
C2    C27   A    
C44   O20   A    
C45   C49   S    
C78   Cl4   S    
C43   C48   S    
C26   C110  A    
C21   C61   S    
C85   C103  S    
C8    C114  S    
C55   O17   A    
C53   C111  S    
C23   C63   S    
Cr3   O3    S    
C112  O23   A    
C13   C33   S    
Cr1   O9    S    
Cr5   O12   S    
C69   C78   S    
C120  O42   A    
C31   C49   S    
C18   H12   S    
C28   C32   A    
C7    C59   S    
C118  O40   A    
Cr12  O5    S    
C39   H40   S    
C98   H11   S    
C8    O36   A    
C11   O8    A    
C101  C105  S    
Cr7   O17   S    
Cr10  O11   S    
C74   C75   S    
C36   H37   S    
C27   C31   A    
C9    C115  S    
Cr7   O43   S    
C66   H31   S    
C36   C40   A    
C111  O12   A    
C4    O52   A    
Cr10  O47   S    
C119  O46   A    
C104  H21   S    
C94   C116  A    
C95   C100  A    
C58   C70   A    
C47   C51   S    
C64   O26   A    
C82   C86   A    
C106  Cl6   S    
Cr3   O11   S    
C29   C34   A    
Cr3   O29   S    
C65   C74   S    
C102  H19   S    
C48   H58   S    
C1    O18   A    
C25   C64   S    
C89   C106  S    
Cr11  O51   S    
Cr4   O30   S    
C64   O30   A    
Cr1   O14   S    
Cr2   O2    S    
C6    C60   S    
C59   C68   A    
C63   O29   A    
Cr9   O10   S    
Cr1   O1    S    
C50   H55   S    
Cr11  O13   S    
C87   C105  S    
Cr2   O28   S    
C9    O6    A    
C56   C113  S    
C55   O21   A    
C17   C77   S    
C111  O32   A    
C6    O3    A    
Cr8   O18   S    
C93   H6    S    
C46   H51   S    
C19   H23   S    
C3    O48   A    
C47   H46   S    
C109  O1    A    
C32   C50   S    
C3    C79   S    
C1    O14   A    
Cr12  O9    S    
Cr12  O27   S    
C20   C88   S    
C43   H47   S    
C37   C54   A    
C33   O19   A    
C60   C69   A    
C113  O34   A    
C33   O15   A    
C77   H32   S    
C12   C14   S    
C101  H18   S    
Cr4   O4    S    
C16   C23   S    
C90   C116  A    
C23   C88   S    
C55   C110  S    
Cr3   O7    S    
C80   C120  S    
C31   C53   A    
Cr8   O44   S    
C67   C75   S    
C84   C89   A    
C35   H36   S    
C14   H28   S    
C8    O5    A    
C11   C117  S    
C93   C97   A    
C104  C108  S    
C70   C71   A    
C10   C116  S    
C19   C23   S    
C72   H62   S    
C40   H41   S    
C49   H59   S    
C94   H7    S    
C66   C77   S    
C30   C52   A    
C18   C66   S    
C19   C99   S    
C10   O38   A    
C83   C101  S    
C7    O51   A    
C92   H5    S    
C18   C22   S    
C76   Cl3   S    
C82   C100  A    
C91   C108  S    
Cr10  O25   S    
C95   H8    S    
C2    C40   A    
C22   C77   S    
C57   C65   A    
C7    O4    A    
C86   C104  S    
C4    O45   A    
C85   C90   A    
C76   H64   S    
C45   H48   S    
C26   C30   A    
C13   C41   A    
Cr1   O40   S    
C105  Cl5   S    
C42   H43   S    
C68   C76   S    
C46   C50   S    
C62   O28   A    
C61   O22   A    
C32   C54   A    
Cr7   O34   S    
C5    C57   S    
C11   O39   A    
Cr11  O21   S    
Cr6   O23   S    
C80   C97   A    
C119  O41   A    
C107  Cl7   S    
C79   C96   A    
Cr1   O36   S    
C81   C119  S    
C79   C83   A    
C27   C45   S    
C71   H56   S    
C99   H35   S    
C92   C114  A    
C101  H14   S    
Cr3   O33   S    
C72   C73   A    
Cr6   O16   S    
C96   H9    S    
C38   H39   S    
C108  H26   S    
Cr2   O32   S    
C61   O27   A    
Cr10  O20   S    
Cr2   O10   S    
Cr11  O26   S    
C118  O44   A    
C57   C71   A    
C37   C41   A    
C59   C73   A    
Cr8   O45   S    
C81   C85   A    
C88   C99   S    
Cr2   O6    S    
C75   H4    S    
Cr6   O11   S    
C38   C42   A    
C16   H30   S    
C10   O7    A    
C113  O35   A    
C74   Cl1   S    
C38   C56   A    
C43   H49   S    
C1    C24   S    
C112  O33   A    
C49   H54   S    
C102  C106  S    
C4    C58   S    
C35   C52   A    
C60   C72   A    
C105  H22   S    
C54   C112  S    
C103  C107  S    
C108  Cl8   S    
C41   H42   S    
Cr9   O19   S    
Cr10  O50   S    
C50   H60   S    
C102  H15   S    
Cr6   O42   S    
C45   H50   S    
C51   H61   S    
Cr5   O41   S    
Cr7   O39   S    
C17   C21   S    
