data_mof_unit_55140.cif
_audit_creation_date              2012-12-10T17:15:42-0500
_audit_creation_method            fapswitch 2.2
_symmetry_space_group_name_H-M    P1
_symmetry_Int_Tables_number       1
_space_group_crystal_system       triclinic
_cell_length_a                    17.27694
_cell_length_b                    12.975542
_cell_length_c                    11.678588
_cell_angle_alpha                 100.028005
_cell_angle_beta                  89.164742
_cell_angle_gamma                 91.014726
_cell_volume                      2577.50156942

loop_
_atom_site_label
_atom_site_type_symbol
_atom_type_description
_atom_site_fract_x
_atom_site_fract_y
_atom_site_fract_z
_atom_type_partial_charge
C1    C     C_R   0.497973 0.299244 0.478841 0.901524
C2    C     C_R   0.501994 0.700755 0.521270 0.817839
C3    C     C_R   0.506344 0.813941 0.533092 -0.121469
C4    C     C_R   0.493066 0.186130 0.467793 -0.129225
C5    C     C_R   0.438635 0.020058 0.374353 0.400776
C6    C     C_R   0.558069 0.980561 0.630006 0.392074
C7    C     C_R   0.449068 0.127494 0.379706 -0.232923
C8    C     C_R   0.548785 0.872765 0.622937 -0.235149
C9    C     C_R   0.528666 0.138146 0.550499 -0.122712
C10   C     C_R   0.470818 0.862068 0.450633 -0.140707
C11   C     C_R   0.521507 0.030269 0.546530 -0.000543
C12   C     C_R   0.476345 0.970284 0.456603 0.002672
C13   C     C_R   0.438858 0.385996 0.028466 0.347217
C14   C     C_R   0.567426 0.606541 0.970635 0.346448
C15   C     C_R   0.442466 0.401574 0.150611 0.037420
C16   C     C_R   0.561164 0.594484 0.848959 0.023549
C17   C     C_R   0.526831 0.547431 0.154621 0.150697
C18   C     C_R   0.473523 0.451873 0.845127 0.151374
C19   C     C_R   0.524602 0.538300 0.031634 -0.115891
C20   C     C_R   0.478350 0.457564 0.967507 -0.120833
C21   C     C_R   0.350829 0.503819 0.516049 0.880930
C22   C     C_R   0.649277 0.496921 0.483719 0.872863
C23   C     C_R   0.267663 0.522227 0.525542 -0.156277
C24   C     C_R   0.733768 0.495740 0.474871 -0.152621
C25   C     C_R   0.237621 0.592466 0.459212 -0.228377
C26   C     C_R   0.774729 0.558773 0.564445 -0.197814
C27   C     C_R   0.158767 0.610899 0.459678 -0.051293
C28   C     C_R   0.854755 0.556585 0.566859 -0.075865
C29   C     C_R   0.108800 0.557685 0.524640 0.031944
C30   C     C_R   0.895506 0.491802 0.479019 0.018975
C31   C     C_R   0.138252 0.490302 0.594496 -0.155520
C32   C     C_R   0.855476 0.428896 0.388809 -0.123481
C33   C     C_R   0.217651 0.471779 0.595669 0.410351
C34   C     C_R   0.774539 0.429989 0.385119 0.390854
C35   C     C_2   0.025283 0.568942 0.514931 0.450771
C36   C     C_2   0.979764 0.483852 0.485033 0.463636
Cu1   Cu    Cu3+1 0.505800 0.507690 0.615350 1.020438
Cu2   Cu    Cu3+1 0.494200 0.492310 0.384650 1.023703
H1    H     H_    0.275462 0.632933 0.406226 0.193196
H2    H     H_    0.744515 0.609075 0.634116 0.188792
H3    H     H_    0.593375 0.645910 0.801516 0.177905
H4    H     H_    0.411735 0.348708 0.197986 0.180564
H5    H     H_    0.098830 0.451410 0.646707 0.201930
H6    H     H_    0.887742 0.378278 0.321999 0.223806
H7    H     H_    0.884618 0.603348 0.639294 0.199687
H8    H     H_    0.136479 0.663680 0.406125 0.203167
H9    H     H_    0.439343 0.813420 0.381679 0.217888
H10   H     H_    0.562075 0.186476 0.617396 0.222696
H11   H     H_    0.577047 0.833445 0.685005 0.190924
H12   H     H_    0.420697 0.166621 0.317553 0.200673
H13   H     H_    0.436320 0.395110 0.793615 0.210552
H14   H     H_    0.561619 0.607363 0.206526 0.198035
N1    N     N_R   0.514530 0.519260 0.788680 -0.239143
N2    N     N_R   0.485470 0.480740 0.211320 -0.237639
O1    O     O_R   0.504120 0.354440 0.581590 -0.580441
O2    O     O_R   0.495880 0.645560 0.418410 -0.595079
O3    O     O_R   0.494320 0.341440 0.386760 -0.580499
O4    O     O_R   0.505680 0.658560 0.613240 -0.593528
O5    O     O_R   0.391870 0.507230 0.608700 -0.534282
O6    O     O_R   0.608130 0.492770 0.391300 -0.525403
O7    O     O_R   0.382070 0.494240 0.413880 -0.596136
O8    O     O_R   0.617930 0.505760 0.586120 -0.594042
S1    S     S_3+6 0.386947 0.273705 0.959015 0.038911
O9    O     O_2   0.306065 0.304265 0.935598 -0.197945
O10   O     O_2   0.425547 0.225645 0.846750 -0.293319
O11   O     O_3   0.382416 0.183999 0.046905 -0.497781
H15   H     H_    0.356468 0.122241 0.000362 0.419826
S2    S     S_3+6 0.630116 0.706177 0.041888 0.020634
O12   O     O_2   0.583831 0.783289 0.125486 -0.258409
O13   O     O_2   0.689725 0.657986 0.107908 -0.245917
O14   O     O_3   0.675253 0.769020 0.944915 -0.528172
H16   H     H_    0.708189 0.823125 0.992133 0.412209
S3    S     S_3+6 0.727251 0.343592 0.272291 0.068297
O15   O     O_2   0.690508 0.406171 0.191314 -0.243037
O16   O     O_2   0.784047 0.269333 0.204706 -0.217844
O17   O     O_3   0.658548 0.274162 0.330062 -0.534932
H17   H     H_    0.630295 0.234982 0.262587 0.390526
S4    S     S_3+6 0.251768 0.385014 0.683717 0.064522
O18   O     O_2   0.289467 0.449223 0.788136 -0.260980
O19   O     O_2   0.185960 0.321761 0.723050 -0.202839
O20   O     O_3   0.316818 0.303672 0.609071 -0.556643
H18   H     H_    0.334821 0.260322 0.665045 0.402174
F1    F     F_    0.011646 0.387355 0.455779 -0.634570
F2    F     F_    0.995986 0.667007 0.526468 -0.640142
S5    S     S_3+6 0.375564 0.952409 0.266926 0.048339
O21   O     O_2   0.421912 0.878995 0.179405 -0.206719
O22   O     O_2   0.316292 0.889986 0.322564 -0.289912
O23   O     O_3   0.329453 0.036227 0.197723 -0.470754
H19   H     H_    0.291618 0.071634 0.255325 0.370653
S6    S     S_3+6 0.618537 0.048378 0.741007 0.066013
O24   O     O_2   0.685137 0.098542 0.685976 -0.206332
O25   O     O_2   0.573670 0.132393 0.817467 -0.237403
O26   O     O_3   0.654008 0.966390 0.823409 -0.464272
H20   H     H_    0.610808 0.953940 0.876293 0.376840

loop_
_geom_bond_atom_site_label_1
_geom_bond_atom_site_label_2
_ccdc_geom_bond_type
S1    O10   D    
O26   H20   S    
C27   C29   A    
S3    O15   D    
C19   C20   A    
Cu1   O8    S    
S5    O21   D    
C31   H5    S    
C24   C26   A    
C21   O5    A    
C22   O6    A    
S4    O19   D    
C33   S4    S    
C36   F1    S    
C18   C20   A    
C16   N1    A    
C18   N1    A    
C35   C36   D    
S2    O12   D    
C23   C33   A    
Cu2   N2    S    
C31   C33   A    
C21   O7    A    
Cu1   O4    S    
Cu2   O7    S    
C5    S5    S    
O11   H15   S    
S1    O11   S    
S3    O16   D    
C4    C7    A    
C17   H14   S    
C18   H13   S    
O20   H18   S    
S5    O22   D    
C21   C23   S    
C28   H7    S    
C15   N2    A    
O17   H17   S    
C7    H12   S    
C5    C12   A    
C3    C8    A    
C6    C11   A    
C5    C7    A    
S4    O18   D    
C6    C8    A    
C6    S6    S    
C24   C34   A    
C32   C34   A    
Cu1   Cu2   S    
C1    O3    A    
C22   O8    A    
Cu2   O3    S    
S6    O25   D    
C13   S1    S    
C11   C12   A    
C32   H6    S    
C9    C11   A    
Cu1   O5    S    
C10   C12   A    
Cu2   O6    S    
C27   H8    S    
C13   C15   A    
S3    O17   S    
C14   C16   A    
S6    O26   S    
S5    O23   S    
C13   C20   A    
C14   C19   A    
C15   H4    S    
C35   F2    S    
C2    O4    A    
C25   C27   A    
C29   C35   S    
C26   C28   A    
C30   C36   S    
C1    C4    S    
C28   C30   A    
C2    C3    S    
C1    O1    A    
Cu1   N1    S    
O14   H16   S    
C29   C31   A    
C3    C10   A    
C2    O2    A    
C25   H1    S    
C30   C32   A    
S4    O20   S    
C26   H2    S    
S6    O24   D    
S2    O14   S    
C8    H11   S    
C17   C19   A    
C22   C24   S    
C23   C25   A    
C34   S3    S    
S1    O9    D    
Cu1   O1    S    
Cu2   O2    S    
O23   H19   S    
C9    H10   S    
S2    O13   D    
C10   H9    S    
C14   S2    S    
C4    C9    A    
C17   N2    A    
C16   H3    S    
