data_mof_unit_26676.cif
_audit_creation_date              2012-12-11T18:13:23-0500
_audit_creation_method            fapswitch 2.2
_symmetry_space_group_name_H-M    P1
_symmetry_Int_Tables_number       1
_space_group_crystal_system       triclinic
_cell_length_a                    8.179253
_cell_length_b                    12.648218
_cell_length_c                    18.779962
_cell_angle_alpha                 99.664968
_cell_angle_beta                  91.483898
_cell_angle_gamma                 98.523726
_cell_volume                      1891.54076707

loop_
_atom_site_label
_atom_site_type_symbol
_atom_type_description
_atom_site_fract_x
_atom_site_fract_y
_atom_site_fract_z
_atom_type_partial_charge
Ba1   Ba    Ba6+2 0.852780 0.548340 0.465070 1.666834
Ba2   Ba    Ba6+2 0.337060 0.451750 0.534940 1.645302
C1    C     C_3   0.571260 0.895554 0.249184 -0.390873
C2    C     C_3   0.628086 0.820659 0.296957 0.318852
C3    C     C_3   0.416077 0.251155 0.314818 0.313500
C4    C     C_3   0.319469 0.181691 0.248672 -0.239359
C5    C     C_3   0.065491 0.237832 0.735434 0.363379
C6    C     C_3   0.085771 0.212778 0.811321 -0.351541
C7    C     C_3   0.561050 0.177909 0.702592 0.345269
C8    C     C_3   0.616541 0.102954 0.750643 -0.414816
C9    C     C_R   0.997152 0.441836 0.045686 -0.033689
C10   C     C_R   0.896343 0.385277 0.091666 -0.050158
C11   C     C_R   0.736581 0.330944 0.064707 0.398225
C12   C     C_3   0.126985 0.761912 0.265931 0.368148
C13   C     C_R   0.678095 0.338433 0.995358 -0.130983
C14   C     C_R   0.776799 0.394691 0.950252 -0.034815
C15   C     C_R   0.937613 0.445380 0.974514 0.015615
C16   C     C_R   0.716175 0.398719 0.880623 -0.094352
C17   C     C_R   0.816712 0.448101 0.832007 -0.040833
C18   C     C_R   0.979166 0.500188 0.855656 -0.005699
C19   C     C_R   0.038146 0.499577 0.927561 0.009288
C20   C     C_R   0.760891 0.444228 0.759810 -0.010815
C21   C     C_R   0.868441 0.486511 0.711307 -0.294837
C22   C     C_R   0.026113 0.543305 0.733706 0.045513
C23   C     C_3   0.107647 0.787080 0.190029 -0.359729
C24   C     C_R   0.082403 0.552427 0.807695 -0.046607
C25   C     C_R   0.157602 0.494279 0.070423 0.020499
C26   C     C_R   0.215895 0.495283 0.142622 0.030555
C27   C     C_R   0.111783 0.444313 0.190888 -0.058249
C28   C     C_R   0.956390 0.386241 0.163247 -0.004037
C29   C     C_R   0.238945 0.609526 0.835282 -0.039256
C30   C     C_R   0.299459 0.605655 0.905597 0.031993
C31   C     C_R   0.198870 0.550572 0.951978 0.007213
C32   C     C_R   0.259044 0.547340 0.023067 0.017746
C33   C     C_R   0.460936 0.654760 0.929984 -0.076231
C34   C     C_3   0.236323 0.787425 0.620173 0.280289
C35   C     C_R   0.521619 0.649859 0.999497 -0.083167
C36   C     C_R   0.421138 0.597385 0.046636 0.026655
C37   C     C_R   0.378252 0.547826 0.166309 -0.004910
C38   C     C_R   0.480313 0.595589 0.117070 -0.102240
C39   C     C_R   0.433146 0.552017 0.238852 0.048828
C40   C     C_R   0.325927 0.508277 0.287153 -0.274824
C41   C     C_R   0.166667 0.453867 0.265214 0.008547
C42   C     C_R   0.763510 0.183323 0.531806 -0.277076
C43   C     C_R   0.427678 0.807344 0.470194 -0.287006
C44   C     C_R   0.400859 0.984891 0.446076 -0.104619
C45   C     C_3   0.255500 0.910353 0.636768 -0.350476
C46   C     C_R   0.336560 0.876167 0.441374 -0.012441
C47   C     C_R   0.577331 0.848193 0.509721 0.069460
C48   C     C_R   0.641850 0.960515 0.518210 -0.059776
C49   C     C_R   0.552685 0.028908 0.484663 -0.062902
C50   C     C_R   0.616223 0.140131 0.491693 0.048215
C51   C     C_R   0.856483 0.116642 0.561533 -0.013630
C52   C     C_R   0.793710 0.006588 0.557394 -0.095050
C53   C     C_3   0.954724 0.214339 0.382089 0.297261
C54   C     C_3   0.904328 0.092026 0.363728 -0.381831
C55   C     C_3   0.728965 0.707117 0.682385 0.313071
C56   C     C_3   0.749683 0.744999 0.763839 -0.401998
H1    H     H_    0.716549 0.868977 0.340337 0.078516
H2    H     H_    0.347275 0.941526 0.682642 0.113862
H3    H     H_    0.298568 0.945331 0.589142 0.080635
H4    H     H_    0.134814 0.935907 0.651344 0.143524
H5    H     H_    0.850643 0.251821 0.405807 0.015661
H6    H     H_    0.061337 0.232569 0.421893 0.070655
H7    H     H_    0.787871 0.073093 0.329514 0.133798
H8    H     H_    0.884791 0.056992 0.413500 0.081851
H9    H     H_    0.002522 0.054104 0.334236 0.148422
H10   H     H_    0.845747 0.682476 0.662338 0.010434
H11   H     H_    0.627487 0.636944 0.670917 0.067835
H12   H     H_    0.506291 0.956760 0.281646 0.102549
H13   H     H_    0.856566 0.811481 0.777055 0.129240
H14   H     H_    0.771573 0.677099 0.791426 0.057466
H15   H     H_    0.635818 0.775163 0.784180 0.119624
H16   H     H_    0.518309 0.785178 0.323381 -0.054817
H17   H     H_    0.485283 0.847487 0.204794 0.111912
H18   H     H_    0.325755 0.288735 0.349709 -0.000149
H19   H     H_    0.503897 0.317680 0.299219 0.095807
H20   H     H_    0.224248 0.120384 0.265799 0.079463
H21   H     H_    0.257545 0.233213 0.217597 0.110472
H22   H     H_    0.403262 0.137794 0.213479 0.208557
H23   H     H_    0.679313 0.937723 0.225054 0.150882
H24   H     H_    0.145850 0.721491 0.149983 0.062383
H25   H     H_    0.143713 0.316584 0.732934 0.092375
H26   H     H_    0.933891 0.244870 0.725078 -0.078394
H27   H     H_    0.217910 0.210355 0.824897 0.155084
H28   H     H_    0.042363 0.276293 0.851229 0.072901
H29   H     H_    0.011766 0.132972 0.814867 0.113876
H30   H     H_    0.671515 0.212914 0.676376 -0.054902
H31   H     H_    0.472865 0.129654 0.659090 0.076487
H32   H     H_    0.707523 0.150212 0.793407 0.114769
H33   H     H_    0.675081 0.038618 0.717805 0.094055
H34   H     H_    0.044068 0.685133 0.268854 0.089985
H35   H     H_    0.508917 0.064663 0.777048 0.135557
H36   H     H_    0.554305 0.299417 0.975936 0.132125
H37   H     H_    0.825587 0.479470 0.655481 0.067607
H38   H     H_    0.590689 0.360502 0.864659 0.109138
H39   H     H_    0.880505 0.343453 0.198280 0.186614
H40   H     H_    0.317520 0.655172 0.802078 0.096350
H41   H     H_    0.541051 0.696398 0.895082 0.063678
H42   H     H_    0.647014 0.688243 0.016687 0.073130
H43   H     H_    0.606009 0.633487 0.133016 0.100903
H44   H     H_    0.256999 0.750788 0.275645 -0.089186
H45   H     H_    0.369115 0.514048 0.342817 0.063253
H46   H     H_    0.327205 0.034028 0.421109 0.104086
H47   H     H_    0.867140 0.958634 0.583454 0.103886
H48   H     H_    0.811851 0.268621 0.535673 0.062076
H49   H     H_    0.376782 0.722350 0.465595 0.070237
H50   H     H_    0.976568 0.793356 0.177194 0.151053
H51   H     H_    0.186224 0.865106 0.185922 0.119005
H52   H     H_    0.356391 0.762787 0.605348 0.006656
H53   H     H_    0.143451 0.758292 0.574328 0.074936
O1    O     O_2   0.873090 0.425890 0.325140 -0.439938
O2    O     O_3   0.691850 0.793304 0.650279 -0.643279
O3    O     O_3   0.084642 0.847820 0.316134 -0.599720
O4    O     O_2   0.316610 0.574140 0.674900 -0.469613
O5    O     O_3   0.067290 0.565720 0.585630 -0.497401
O6    O     O_3   0.530210 0.372990 0.631200 -0.466182
O7    O     O_3   0.186798 0.747200 0.682375 -0.637878
O8    O     O_3   0.611340 0.366290 0.463630 -0.472196
O9    O     O_3   0.108550 0.314140 0.595200 -0.484422
O10   O     O_2   0.195968 0.121043 0.551458 -0.482201
O11   O     O_3   0.114790 0.154242 0.685498 -0.595727
O12   O     O_3   0.122420 0.434370 0.414380 -0.501200
O13   O     O_3   0.578370 0.633800 0.536380 -0.491685
O14   O     O_2   0.341510 0.231850 0.465510 -0.475795
O15   O     O_3   0.506383 0.185141 0.348102 -0.649874
O16   O     O_2   0.420410 0.454318 0.756559 -0.496768
O17   O     O_3   0.479886 0.255395 0.744583 -0.593243
O18   O     O_3   0.659500 0.627100 0.368810 -0.475813
O19   O     O_2   0.775169 0.546587 0.244039 -0.469194
O20   O     O_3   0.996377 0.253007 0.318499 -0.626849
O21   O     O_3   0.709225 0.743616 0.254554 -0.605751
O22   O     O_2   0.848200 0.768190 0.534530 -0.473274
O23   O     O_3   0.081160 0.685950 0.404810 -0.491069
O24   O     O_2   0.998512 0.879493 0.449925 -0.482822
P1    P     P_3+3 0.041040 0.394770 0.336330 0.983203
P2    P     P_3+3 0.672880 0.754030 0.556100 0.967708
P3    P     P_3+3 0.125610 0.824152 0.403584 0.951378
P4    P     P_3+3 0.148670 0.605320 0.663680 0.970658
P5    P     P_3+3 0.067980 0.175155 0.597961 0.954486
P6    P     P_3+3 0.643737 0.614746 0.275286 0.985610
P7    P     P_3+3 0.522880 0.229724 0.441570 0.938346
P8    P     P_3+3 0.548546 0.384192 0.724406 0.951481
S1    S     S_3+6 0.600802 0.257887 0.116897 -0.139916
O25   O     O_2   0.547168 0.339176 0.175527 -0.345387
O26   O     O_2   0.450480 0.196582 0.072289 -0.315744
O27   O     O_3   0.697139 0.170116 0.154049 -0.534795
H54   H     H_    0.738856 0.124081 0.112642 0.327516

loop_
_geom_bond_atom_site_label_1
_geom_bond_atom_site_label_2
_ccdc_geom_bond_type
O24   P3    D    
C5    H25   S    
C53   C54   S    
O22   P2    D    
C47   P2    S    
C51   P5    S    
C16   H38   S    
C39   C40   A    
C17   C18   A    
C40   H45   S    
C45   H4    S    
O6    P8    S    
C4    H21   S    
C5    C6    S    
C37   C39   A    
C51   C52   A    
C28   H39   S    
C48   C52   A    
Ba2   P4    S    
O10   P5    D    
C26   C27   A    
C33   C35   A    
C22   C24   A    
C6    H27   S    
Ba1   O18   S    
C7    H30   S    
C3    C4    S    
C33   H41   S    
C56   H13   S    
C12   H44   S    
O18   P6    S    
C13   C14   A    
C34   C45   S    
Ba1   Ba2   S    
Ba1   O8    S    
C29   H40   S    
O19   P6    D    
C45   H2    S    
Ba2   O5    S    
C42   C51   A    
O27   H54   S    
C14   C15   A    
C53   H5    S    
C20   P8    S    
C1    H23   S    
C21   C22   A    
O9    P5    S    
Ba1   O5    S    
C9    C25   A    
Ba1   P1    S    
C1    H17   S    
C7    C8    S    
C2    H16   S    
C23   H51   S    
O5    P4    S    
C42   C50   A    
C5    H26   S    
C38   H43   S    
C24   C29   A    
C25   C32   A    
C27   C41   A    
O1    P1    D    
S1    O27   S    
Ba1   O22   S    
Ba2   O6    S    
C48   C49   A    
C22   P4    S    
C44   C46   A    
C7    O17   S    
C49   C50   A    
C30   C33   A    
O13   P2    S    
C17   C20   A    
C2    O21   S    
O20   P1    S    
C7    H31   S    
C37   C38   A    
Ba2   O9    S    
C16   C17   A    
C55   O2    S    
C26   C37   A    
Ba2   O12   S    
C44   H46   S    
C44   C49   A    
O15   P7    S    
C50   P7    S    
C1    C2    S    
C3    O15   S    
Ba1   O12   S    
C39   P6    S    
C35   C36   A    
Ba2   O4    S    
C56   H15   S    
C4    H22   S    
C29   C30   A    
C11   S1    S    
C43   C47   A    
O14   P7    D    
Ba2   O8    S    
C53   H6    S    
C1    H12   S    
C34   H53   S    
C31   C32   A    
O16   P8    D    
C10   C11   A    
C12   H34   S    
S1    O26   D    
O4    P4    D    
C8    H33   S    
Ba2   O13   S    
C11   C13   A    
C34   H52   S    
C23   H24   S    
O2    P2    S    
C40   C41   A    
C5    O11   S    
C3    H19   S    
O7    P4    S    
Ba1   O23   S    
Ba1   P2    S    
C43   C46   A    
O21   P6    S    
C9    C15   A    
C52   H47   S    
C10   C28   A    
C32   C36   A    
S1    O25   D    
C45   H3    S    
C9    C10   A    
C42   H48   S    
O23   P3    S    
C54   H9    S    
C53   O20   S    
C8    H35   S    
C46   P3    S    
O12   P1    S    
C6    H29   S    
C30   C31   A    
C3    H18   S    
Ba1   O13   S    
O11   P5    S    
Ba1   O1    S    
C12   O3    S    
C36   C38   A    
C56   H14   S    
C55   C56   S    
C18   C24   A    
C54   H8    S    
C2    H1    S    
C21   H37   S    
C6    H28   S    
O3    P3    S    
C12   C23   S    
C41   P1    S    
O17   P8    S    
C15   C19   A    
C4    H20   S    
C27   C28   A    
Ba2   O14   S    
C43   H49   S    
C13   H36   S    
C19   C31   A    
C18   C19   A    
C8    H32   S    
C14   C16   A    
C47   C48   A    
C25   C26   A    
O8    P7    S    
C20   C21   A    
C34   O7    S    
C55   H10   S    
C55   H11   S    
C35   H42   S    
C54   H7    S    
C23   H50   S    
