data_mof_unit_27852.cif
_audit_creation_date              2012-12-10T18:57:14-0500
_audit_creation_method            fapswitch 2.2
_symmetry_space_group_name_H-M    P1
_symmetry_Int_Tables_number       1
_space_group_crystal_system       triclinic
_cell_length_a                    8.726445
_cell_length_b                    10.824213
_cell_length_c                    9.568015
_cell_angle_alpha                 90.385815
_cell_angle_beta                  97.019489
_cell_angle_gamma                 90.766626
_cell_volume                      896.878803841

loop_
_atom_site_label
_atom_site_type_symbol
_atom_type_description
_atom_site_fract_x
_atom_site_fract_y
_atom_site_fract_z
_atom_type_partial_charge
C1    C     C_R   0.495052 0.262398 0.499015 0.823836
C2    C     C_R   0.427822 0.935795 0.366102 0.385242
C3    C     C_R   0.461165 0.870316 0.494902 -0.278729
C4    C     C_R   0.466258 0.937769 0.620570 0.151344
C5    C     C_3   0.571960 0.932674 0.755443 0.207861
C6    C     C_3   0.576471 0.073200 0.755204 -0.488837
C7    C     C_R   0.563725 0.596947 0.080645 0.283289
C8    C     C_R   0.423657 0.410809 0.065235 -0.066500
C9    C     C_R   0.423610 0.410817 0.916507 -0.077299
C10   C     C_R   0.563277 0.596839 0.933461 0.271719
C11   C     C_3   0.725799 0.642104 0.942661 -0.538010
C12   C     C_R   0.204431 0.495440 0.464867 0.854733
C13   C     C_3   0.727388 0.643656 0.101217 0.148195
C14   C     C_R   0.489608 0.737529 0.498788 0.800050
C15   C     C_R   0.795892 0.499960 0.535679 0.882390
C16   C     C_2   0.039819 0.482322 0.447763 -0.354091
C17   C     C_2   0.961400 0.505016 0.555628 -0.367450
C18   C     C_R   0.470828 0.064788 0.620708 0.053584
C19   C     C_R   0.472540 0.129577 0.495899 -0.186042
C20   C     C_R   0.439313 0.064906 0.367829 -0.210160
Cu1   Cu    Cu3+1 0.499990 0.499980 0.640670 0.962796
Cu2   Cu    Cu3+1 0.500010 0.500020 0.359330 0.979434
H1    H     H_    0.983324 0.450143 0.347085 0.216998
H2    H     H_    0.363962 0.337311 0.853860 0.143887
H3    H     H_    0.737492 0.735376 0.899047 0.165223
H4    H     H_    0.740462 0.737022 0.151230 0.117859
H5    H     H_    0.018938 0.530893 0.659169 0.176330
H6    H     H_    0.520081 0.116621 0.841020 0.217027
H7    H     H_    0.691910 0.112398 0.740874 0.168707
H8    H     H_    0.364111 0.337303 0.113571 0.137575
N1    N     N_R   0.500980 0.500930 0.148050 -0.175854
N2    N     N_R   0.500990 0.500890 0.852140 -0.187085
O1    O     O_R   0.500000 0.319640 0.618810 -0.583168
O2    O     O_R   0.500020 0.319680 0.381230 -0.594638
O3    O     O_R   0.274830 0.499980 0.591380 -0.574573
O4    O     O_R   0.274850 0.500020 0.353800 -0.599718
O5    O     O_R   0.499980 0.680320 0.618770 -0.554953
O6    O     O_R   0.500000 0.680360 0.381190 -0.577561
O7    O     O_R   0.725150 0.499980 0.646200 -0.598544
O8    O     O_R   0.725170 0.500020 0.408620 -0.513486
H9    H     H_    0.804095 0.572816 0.904174 0.232508
O9    O     O_3   0.829573 0.556614 0.163917 -0.698859
H10   H     H_    0.933966 0.594324 0.164359 0.321443
H11   H     H_    0.424548 0.113788 0.268736 0.180768
O10   O     O_3   0.389683 0.878352 0.237443 -0.719637
H12   H     H_    0.319766 0.807892 0.251623 0.333452
O11   O     O_3   0.494730 0.885391 0.863973 -0.690361
H13   H     H_    0.565226 0.899746 0.952233 0.329943
H14   H     H_    0.684268 0.888699 0.744357 0.089361

loop_
_geom_bond_atom_site_label_1
_geom_bond_atom_site_label_2
_ccdc_geom_bond_type
C8    C9    A    
C7    C10   A    
C9    H2    S    
Cu1   O3    S    
Cu1   O1    S    
C12   O4    A    
Cu2   O4    S    
C19   C20   A    
Cu1   O7    S    
C8    H8    S    
C15   O8    A    
C2    C3    A    
Cu2   O8    S    
O10   H12   S    
C12   O3    A    
C11   C13   S    
C15   O7    A    
C3    C14   S    
C6    C18   S    
C13   O9    S    
C20   H11   S    
C1    O2    A    
C11   H9    S    
C16   H1    S    
C2    O10   S    
C5    C6    S    
Cu2   O2    S    
Cu1   N2    S    
C13   H4    S    
C5    H14   S    
C14   O6    A    
O9    H10   S    
C11   H3    S    
C1    O1    A    
C3    C4    A    
C5    O11   S    
O11   H13   S    
C10   N2    A    
C7    C13   S    
C6    H7    S    
C7    N1    A    
Cu1   O5    S    
C18   C19   A    
C10   C11   S    
C15   C17   S    
C4    C5    S    
C9    N2    A    
Cu2   N1    S    
Cu1   Cu2   S    
C1    C19   S    
C2    C20   A    
C4    C18   A    
C6    H6    S    
C8    N1    A    
C12   C16   S    
C16   C17   D    
C14   O5    A    
Cu2   O6    S    
C17   H5    S    
