data_mof_unit_60199.cif
_audit_creation_date              2012-12-10T20:04:06-0500
_audit_creation_method            fapswitch 2.2
_symmetry_space_group_name_H-M    P1
_symmetry_Int_Tables_number       1
_space_group_crystal_system       triclinic
_cell_length_a                    22.459984
_cell_length_b                    26.027682
_cell_length_c                    22.456741
_cell_angle_alpha                 89.991065
_cell_angle_beta                  89.97627
_cell_angle_gamma                 89.956642
_cell_volume                      13127.7862816

loop_
_atom_site_label
_atom_site_type_symbol
_atom_type_description
_atom_site_fract_x
_atom_site_fract_y
_atom_site_fract_z
_atom_type_partial_charge
C1    C     C_R   0.497727 0.890376 0.747250 0.847011
C2    C     C_R   0.002702 0.890297 0.747517 0.860459
C3    C     C_1   0.723331 0.249946 0.750005 -0.135632
C4    C     C_1   0.223332 0.749994 0.250002 -0.128048
C5    C     C_1   0.223329 0.749982 0.749993 -0.128073
C6    C     C_1   0.223333 0.250005 0.750015 -0.125622
C7    C     C_1   0.223328 0.249992 0.249981 -0.127117
C8    C     C_1   0.776667 0.750011 0.749996 -0.138012
C9    C     C_1   0.776664 0.750031 0.250004 -0.132677
C10   C     C_1   0.776667 0.249999 0.249995 -0.138404
C11   C     C_1   0.776666 0.249978 0.750030 -0.136151
C12   C     C_1   0.276666 0.750001 0.249992 -0.132161
C13   C     C_R   0.997797 0.109620 0.752787 0.844663
C14   C     C_1   0.276664 0.750005 0.750024 -0.129836
C15   C     C_1   0.276668 0.250015 0.750009 -0.131787
C16   C     C_1   0.276663 0.250017 0.250010 -0.126884
C17   C     C_R   0.461483 0.553743 0.862417 0.360356
C18   C     C_R   0.590612 0.544646 0.179572 0.393523
C19   C     C_R   0.536979 0.453212 0.140631 0.402202
C20   C     C_R   0.458575 0.445421 0.860910 0.354429
C21   C     C_R   0.560719 0.045256 0.347105 0.387809
C22   C     C_R   0.604708 0.045578 0.701956 0.386420
C23   C     C_R   0.559518 0.954604 0.652130 0.388099
C24   C     C_R   0.002725 0.109686 0.252454 0.859517
C25   C     C_R   0.605245 0.954181 0.296771 0.386433
C26   C     C_R   0.062807 0.545183 0.345980 0.388275
C27   C     C_R   0.104985 0.545588 0.703204 0.390193
C28   C     C_R   0.060584 0.454654 0.652584 0.388102
C29   C     C_R   0.105952 0.454088 0.294517 0.391309
C30   C     C_R   0.062419 0.045196 0.846230 0.389548
C31   C     C_R   0.105204 0.045608 0.203757 0.390949
C32   C     C_R   0.061104 0.954663 0.152902 0.389823
C33   C     C_R   0.105771 0.954133 0.794860 0.391028
C34   C     C_R   0.449841 0.526136 0.915255 0.064014
C35   C     C_R   0.997743 0.390379 0.747225 0.846934
C36   C     C_R   0.607902 0.522867 0.124444 0.030073
C37   C     C_R   0.578225 0.478837 0.103106 0.055652
C38   C     C_R   0.445679 0.472427 0.913910 0.076518
C39   C     C_R   0.613868 0.023505 0.369673 0.035409
C40   C     C_R   0.637075 0.020159 0.656270 0.036509
C41   C     C_R   0.612352 0.976323 0.628824 0.034977
C42   C     C_R   0.638205 0.979587 0.341978 0.036916
C43   C     C_R   0.115970 0.522887 0.367852 0.033786
C44   C     C_R   0.137032 0.521255 0.656587 0.031193
C45   C     C_R   0.113127 0.477000 0.629334 0.032687
C46   C     C_R   0.002711 0.390293 0.247505 0.859638
C47   C     C_R   0.139157 0.478495 0.340210 0.031642
C48   C     C_R   0.115477 0.022867 0.868324 0.033774
C49   C     C_R   0.137559 0.021236 0.157375 0.029788
C50   C     C_R   0.113818 0.976972 0.130000 0.033127
C51   C     C_R   0.138790 0.978508 0.840713 0.029918
C52   C     C_R   0.049657 0.974390 0.778014 -0.060155
C53   C     C_R   0.035469 0.974701 0.205576 -0.062143
C54   C     C_R   0.049259 0.025497 0.221300 -0.060440
C55   C     C_R   0.036097 0.025218 0.793906 -0.062446
C56   C     C_R   0.049799 0.474369 0.277831 -0.060028
C57   C     C_R   0.997821 0.609616 0.252774 0.844480
C58   C     C_R   0.035255 0.474699 0.705402 -0.061413
C59   C     C_R   0.049135 0.525494 0.721054 -0.060109
C60   C     C_R   0.036299 0.525205 0.293750 -0.062018
C61   C     C_R   0.549547 0.974509 0.278529 -0.055452
C62   C     C_R   0.534937 0.974648 0.705262 -0.060206
C63   C     C_R   0.549183 0.025384 0.720842 -0.055651
C64   C     C_R   0.535508 0.025274 0.294274 -0.060328
C65   C     C_R   0.477633 0.472367 0.808967 -0.047601
C66   C     C_R   0.523387 0.474131 0.197354 -0.057766
C67   C     C_R   0.540098 0.525015 0.209605 -0.052244
C68   C     C_R   0.002746 0.609687 0.752461 0.857463
C69   C     C_R   0.478538 0.527274 0.809463 -0.050765
C70   C     C_R   0.494206 0.553756 0.755755 -0.006052
C71   C     C_R   0.506328 0.553011 0.252671 -0.018750
C72   C     C_R   0.493357 0.446445 0.242816 -0.013432
C73   C     C_R   0.502806 0.890304 0.247475 0.858485
C74   C     C_R   0.493983 0.446193 0.755357 -0.002081
C75   C     C_R   0.495770 0.053180 0.256879 -0.018518
C76   C     C_R   0.507077 0.053332 0.755446 -0.016645
C77   C     C_R   0.495620 0.946811 0.743131 -0.018323
C78   C     C_R   0.507051 0.946637 0.244431 -0.016717
C79   C     C_R   0.995897 0.553162 0.257032 -0.015531
C80   C     C_R   0.006820 0.553356 0.755373 -0.013165
C81   C     C_R   0.995643 0.446816 0.742982 -0.015334
C82   C     C_R   0.006763 0.446599 0.244449 -0.012955
C83   C     C_R   0.995807 0.053171 0.757072 -0.019408
C84   C     C_R   0.497776 0.109625 0.252756 0.845858
C85   C     C_R   0.006746 0.053357 0.255368 -0.018588
C86   C     C_R   0.995636 0.946818 0.242930 -0.019497
C87   C     C_R   0.006721 0.946610 0.744504 -0.018288
C88   C     C_R   0.505981 0.526563 0.703592 -0.211738
C89   C     C_R   0.469196 0.526301 0.292016 -0.206048
C90   C     C_R   0.465567 0.473258 0.289261 -0.203779
C91   C     C_R   0.506114 0.473594 0.703452 -0.215415
C92   C     C_R   0.459500 0.026435 0.216782 -0.206941
C93   C     C_R   0.463094 0.026648 0.787122 -0.209770
C94   C     C_R   0.459781 0.973606 0.783634 -0.207029
C95   C     C_R   0.502826 0.109680 0.752493 0.856776
C96   C     C_R   0.462754 0.973388 0.213252 -0.209933
C97   C     C_R   0.958839 0.526428 0.217648 -0.212397
C98   C     C_R   0.962582 0.526648 0.786638 -0.215646
C99   C     C_R   0.959385 0.473600 0.783130 -0.214269
C100  C     C_R   0.961936 0.473375 0.214090 -0.215878
C101  C     C_R   0.958820 0.026434 0.717620 -0.203688
C102  C     C_R   0.962294 0.026656 0.286350 -0.208667
C103  C     C_R   0.959110 0.973607 0.282832 -0.203763
C104  C     C_R   0.961938 0.973380 0.714063 -0.209200
C105  C     C_1   0.500000 0.750014 0.526669 -0.132274
C106  C     C_R   0.497319 0.390245 0.247228 0.865777
C107  C     C_1   0.499989 0.749997 0.473335 -0.135046
C108  C     C_1   0.499989 0.249994 0.473333 -0.134655
C109  C     C_1   0.499998 0.249994 0.526663 -0.133715
C110  C     C_1   0.499903 0.250120 0.026666 -0.127430
C111  C     C_1   0.499886 0.250109 0.973332 -0.133819
C112  C     C_1   0.499911 0.749919 0.973333 -0.125796
C113  C     C_1   0.499926 0.749922 0.026662 -0.118600
C114  C     C_1   0.000001 0.750014 0.026669 -0.132730
C115  C     C_1   0.999990 0.749996 0.973334 -0.133008
C116  C     C_1   0.999992 0.249996 0.973334 -0.133217
C117  C     C_R   0.499022 0.390270 0.750910 0.900498
C118  C     C_1   0.000001 0.249995 0.026663 -0.133367
C119  C     C_1   0.000000 0.250014 0.526669 -0.132713
C120  C     C_1   0.999989 0.249996 0.473334 -0.133082
C121  C     C_1   0.999991 0.749996 0.473334 -0.132656
C122  C     C_1   1.000000 0.749996 0.526663 -0.133295
C123  C     C_R   0.499944 0.749962 0.910049 0.855965
C124  C     C_R   0.499972 0.749979 0.089949 0.844841
C125  C     C_R   0.499952 0.250047 0.089959 0.855206
C126  C     C_R   0.499936 0.250042 0.910040 0.852248
C127  C     C_R   0.499990 0.250003 0.410049 0.841939
C128  C     C_R   0.498795 0.609733 0.751279 0.894910
C129  C     C_R   0.500003 0.250008 0.589949 0.829561
C130  C     C_R   0.499998 0.750003 0.589961 0.838206
C131  C     C_R   0.499997 0.749984 0.410040 0.835584
C132  C     C_R   0.999991 0.750004 0.410049 0.843315
C133  C     C_R   0.000005 0.750010 0.589950 0.836791
C134  C     C_R   0.999998 0.250003 0.589961 0.842777
C135  C     C_R   0.999997 0.249983 0.410040 0.836015
C136  C     C_R   0.999992 0.250004 0.910049 0.846980
C137  C     C_R   0.000005 0.250010 0.089950 0.839577
C138  C     C_R   0.999998 0.750003 0.089961 0.845985
C139  C     C_R   0.502549 0.609542 0.251793 0.846548
C140  C     C_R   0.999998 0.749983 0.910040 0.838337
C141  C     C_R   0.339966 0.750002 0.750020 0.848674
C142  C     C_R   0.339965 0.750000 0.249994 0.842984
C143  C     C_R   0.339965 0.250012 0.250008 0.848833
C144  C     C_R   0.339965 0.250012 0.750008 0.854173
C145  C     C_R   0.839965 0.750015 0.250006 0.843235
C146  C     C_R   0.839965 0.750005 0.749997 0.838320
C147  C     C_R   0.839966 0.249999 0.750018 0.842842
C148  C     C_R   0.839965 0.250001 0.249995 0.838395
C149  C     C_R   0.660036 0.750002 0.750006 0.825550
C150  C     C_R   0.997741 0.890380 0.247214 0.846227
C151  C     C_R   0.660033 0.750002 0.249978 0.849215
C152  C     C_R   0.660036 0.249995 0.250003 0.830833
C153  C     C_R   0.660034 0.249967 0.750008 0.841425
C154  C     C_R   0.160036 0.749997 0.250003 0.830612
C155  C     C_R   0.160033 0.749989 0.749990 0.855092
C156  C     C_R   0.160036 0.250000 0.750007 0.831419
C157  C     C_R   0.160033 0.249992 0.249987 0.855813
C158  C     C_1   0.723333 0.750005 0.750005 -0.131931
C159  C     C_1   0.723329 0.750008 0.249973 -0.131823
C160  C     C_1   0.723332 0.249991 0.250004 -0.135059
H1    H     H_    0.516896 0.546656 0.662720 0.148406
H2    H     H_    0.930765 0.546688 0.814497 0.182866
H3    H     H_    0.927691 0.453637 0.811172 0.182065
H4    H     H_    0.929532 0.453379 0.186940 0.182738
H5    H     H_    0.926597 0.046438 0.690209 0.191260
H6    H     H_    0.930291 0.046701 0.313992 0.189774
H7    H     H_    0.927219 0.953649 0.310659 0.191499
H8    H     H_    0.929596 0.953381 0.686842 0.189584
H9    H     H_    0.424564 0.616796 0.891309 0.344988
H10   H     H_    0.665757 0.581212 0.190823 0.354977
H11   H     H_    0.524852 0.394723 0.087559 0.369192
H12   H     H_    0.444042 0.546304 0.326044 0.186107
H13   H     H_    0.458710 0.377517 0.896968 0.357569
H14   H     H_    0.542618 0.083137 0.420017 0.356004
H15   H     H_    0.661564 0.101822 0.711518 0.366315
H16   H     H_    0.540603 0.916532 0.579586 0.355891
H17   H     H_    0.661827 0.897717 0.286693 0.366100
H18   H     H_    0.046268 0.583008 0.419333 0.356371
H19   H     H_    0.172175 0.588374 0.728315 0.358284
H20   H     H_    0.042525 0.416415 0.579898 0.355936
H21   H     H_    0.172260 0.410597 0.268402 0.359159
H22   H     H_    0.045640 0.083106 0.919474 0.356879
H23   H     H_    0.440673 0.453262 0.323466 0.187755
H24   H     H_    0.172151 0.088597 0.229074 0.356702
H25   H     H_    0.043437 0.916524 0.080052 0.356712
H26   H     H_    0.172223 0.910745 0.768885 0.356738
H27   H     H_    0.517258 0.453667 0.662532 0.147370
H28   H     H_    0.427709 0.046419 0.188853 0.190146
H29   H     H_    0.431524 0.046709 0.815244 0.188571
H30   H     H_    0.428300 0.953667 0.811942 0.190390
H31   H     H_    0.430868 0.953374 0.185512 0.188474
H32   H     H_    0.926564 0.546436 0.190305 0.183183
I1    I     I_    0.441435 0.566599 0.998111 -0.270906
I2    I     I_    0.218254 0.553930 0.623658 -0.219399
I3    I     I_    0.159537 0.439758 0.557964 -0.205372
I4    I     I_    0.221102 0.445768 0.371343 -0.234176
I5    I     I_    0.163453 0.060362 0.938372 -0.204282
I6    I     I_    0.219046 0.053824 0.124961 -0.242873
I7    I     I_    0.160692 0.939644 0.058996 -0.207325
I8    I     I_    0.220639 0.945780 0.872096 -0.245259
I9    I     I_    0.674330 0.560134 0.071291 -0.249929
I10   I     I_    0.595907 0.451488 0.014719 -0.259002
I11   I     I_    0.412449 0.432150 0.990403 -0.251214
I12   I     I_    0.660528 0.061489 0.440294 -0.212263
I13   I     I_    0.723035 0.047209 0.628887 -0.248680
I14   I     I_    0.658027 0.938446 0.557396 -0.213622
I15   I     I_    0.724440 0.952360 0.368322 -0.249721
I16   I     I_    0.164285 0.560520 0.437558 -0.206340
O1    O     O_3   0.500000 0.750000 0.750000 -0.508934
O2    O     O_R   0.534620 0.865830 0.284610 -0.601469
O3    O     O_R   0.965390 0.134170 0.284610 -0.660023
O4    O     O_R   0.965390 0.365830 0.784610 -0.661441
O5    O     O_R   0.965390 0.365830 0.215390 -0.662434
O6    O     O_R   0.965390 0.634170 0.215390 -0.660304
O7    O     O_R   0.965390 0.634170 0.784610 -0.662125
O8    O     O_3   0.454738 0.606455 0.861545 -0.754525
O9    O     O_3   0.625409 0.580753 0.208310 -0.728255
O10   O     O_3   0.504019 0.411777 0.120816 -0.716354
O11   O     O_3   0.448848 0.393138 0.858080 -0.758762
O12   O     O_3   0.529455 0.082451 0.378068 -0.729074
O13   O     O_R   0.534620 0.134170 0.284610 -0.584244
O14   O     O_3   0.629204 0.085476 0.734356 -0.737022
O15   O     O_3   0.527963 0.917319 0.621702 -0.729676
O16   O     O_3   0.629241 0.914110 0.264208 -0.738184
O17   O     O_3   0.032345 0.582446 0.377628 -0.728194
O18   O     O_3   0.129143 0.585268 0.736278 -0.737098
O19   O     O_3   0.029578 0.417168 0.621918 -0.730335
O20   O     O_3   0.129139 0.414089 0.261191 -0.737165
O21   O     O_3   0.031874 0.082509 0.877719 -0.726444
O22   O     O_3   0.129111 0.085353 0.236908 -0.740310
O23   O     O_3   0.030234 0.917243 0.121994 -0.727282
O24   O     O_R   0.534620 0.134170 0.715390 -0.601297
O25   O     O_3   0.129119 0.914196 0.761547 -0.740946
O26   O     O_R   0.534620 0.365830 0.215390 -0.610305
O27   O     O_R   0.534620 0.365830 0.784610 -0.611070
O28   O     O_R   0.534620 0.634170 0.784610 -0.589565
O29   O     O_R   0.534620 0.634170 0.215390 -0.576273
O30   O     O_R   0.034620 0.865830 0.215390 -0.584776
O31   O     O_R   0.034620 0.865830 0.784610 -0.588492
O32   O     O_R   0.034620 0.134170 0.784610 -0.584538
O33   O     O_3   0.500000 0.750000 0.250000 -0.507252
O34   O     O_R   0.034620 0.134170 0.215390 -0.588437
O35   O     O_R   0.034620 0.365830 0.715390 -0.582830
O36   O     O_R   0.034620 0.365830 0.284610 -0.589095
O37   O     O_R   0.034620 0.634170 0.284610 -0.582778
O38   O     O_R   0.034620 0.634170 0.715390 -0.588768
O39   O     O_R   0.465390 0.780380 0.882040 -0.636566
O40   O     O_R   0.465390 0.780380 0.117960 -0.635518
O41   O     O_R   0.465390 0.219620 0.117960 -0.630769
O42   O     O_R   0.465390 0.219620 0.882040 -0.629029
O43   O     O_R   0.465390 0.280380 0.382040 -0.637524
O44   O     O_3   0.500000 0.250000 0.250000 -0.505540
O45   O     O_R   0.465390 0.280380 0.617960 -0.638167
O46   O     O_R   0.465390 0.719620 0.617960 -0.639283
O47   O     O_R   0.465390 0.719620 0.382040 -0.634877
O48   O     O_R   0.965390 0.780380 0.382040 -0.635660
O49   O     O_R   0.965390 0.780380 0.617960 -0.633562
O50   O     O_R   0.965390 0.219620 0.617960 -0.635658
O51   O     O_R   0.965390 0.219620 0.382040 -0.633698
O52   O     O_R   0.965390 0.280380 0.882040 -0.638592
O53   O     O_R   0.965390 0.280380 0.117960 -0.636251
O54   O     O_R   0.965390 0.719620 0.117960 -0.637262
O55   O     O_3   0.500000 0.250000 0.750000 -0.503587
O56   O     O_R   0.965390 0.719620 0.882040 -0.635544
O57   O     O_R   0.367970 0.780380 0.784610 -0.629725
O58   O     O_R   0.367970 0.780380 0.215390 -0.631370
O59   O     O_R   0.367970 0.219620 0.215390 -0.628818
O60   O     O_R   0.367970 0.219620 0.784610 -0.630670
O61   O     O_R   0.367970 0.280380 0.284610 -0.627860
O62   O     O_R   0.367970 0.280380 0.715390 -0.623672
O63   O     O_R   0.367970 0.719620 0.715390 -0.624634
O64   O     O_R   0.367970 0.719620 0.284610 -0.629257
O65   O     O_R   0.867970 0.780380 0.284610 -0.629113
O66   O     O_3   0.000000 0.750000 0.250000 -0.507841
O67   O     O_R   0.867970 0.780380 0.715390 -0.630839
O68   O     O_R   0.867970 0.219620 0.715390 -0.628503
O69   O     O_R   0.867970 0.219620 0.284610 -0.630400
O70   O     O_R   0.867970 0.280380 0.784610 -0.636025
O71   O     O_R   0.867970 0.280380 0.215390 -0.636380
O72   O     O_R   0.867970 0.719620 0.215390 -0.633821
O73   O     O_R   0.867970 0.719620 0.784610 -0.635230
O74   O     O_R   0.632030 0.780380 0.715400 -0.630855
O75   O     O_R   0.632030 0.780380 0.284600 -0.628644
O76   O     O_R   0.632030 0.219620 0.284600 -0.629512
O77   O     O_3   1.000000 0.750000 0.750000 -0.506790
O78   O     O_R   0.632030 0.219620 0.715400 -0.625694
O79   O     O_R   0.632030 0.280380 0.215400 -0.639156
O80   O     O_R   0.632030 0.280380 0.784600 -0.638657
O81   O     O_R   0.632030 0.719620 0.784600 -0.639370
O82   O     O_R   0.632030 0.719620 0.215400 -0.615465
O83   O     O_R   0.132030 0.780380 0.215400 -0.631379
O84   O     O_R   0.132030 0.780380 0.784600 -0.614565
O85   O     O_R   0.132030 0.219620 0.784600 -0.631018
O86   O     O_R   0.132030 0.219620 0.215400 -0.614494
O87   O     O_R   0.132030 0.280380 0.715400 -0.630417
O88   O     O_3   0.000000 0.250000 0.750000 -0.507531
O89   O     O_R   0.132030 0.280380 0.284600 -0.614990
O90   O     O_R   0.132030 0.719620 0.284600 -0.630524
O91   O     O_R   0.132030 0.719620 0.715400 -0.615261
O92   O     O_R   0.534620 0.719650 0.882050 -0.603438
O93   O     O_R   0.534620 0.719650 0.117950 -0.620863
O94   O     O_R   0.534620 0.280350 0.117950 -0.628061
O95   O     O_R   0.534620 0.280350 0.882050 -0.623968
O96   O     O_R   0.534620 0.219650 0.382050 -0.611802
O97   O     O_R   0.534620 0.219650 0.617950 -0.633666
O98   O     O_R   0.534620 0.780350 0.617950 -0.612185
O99   O     O_3   0.000000 0.250000 0.250000 -0.506778
O100  O     O_R   0.534620 0.780350 0.382050 -0.632393
O101  O     O_R   0.034620 0.719650 0.382050 -0.611696
O102  O     O_R   0.034620 0.719650 0.617950 -0.630907
O103  O     O_R   0.034620 0.280350 0.617950 -0.611687
O104  O     O_R   0.034620 0.280350 0.382050 -0.630819
O105  O     O_R   0.034620 0.219650 0.882050 -0.609635
O106  O     O_R   0.034620 0.219650 0.117950 -0.628772
O107  O     O_R   0.034620 0.780350 0.117950 -0.610305
O108  O     O_R   0.034620 0.780350 0.882050 -0.629285
O109  O     O_R   0.465390 0.865830 0.784610 -0.659611
O110  O     O_R   0.534620 0.865830 0.715390 -0.584622
O111  O     O_R   0.465390 0.865830 0.215390 -0.658714
O112  O     O_R   0.465390 0.134170 0.215390 -0.659107
O113  O     O_R   0.465390 0.134170 0.784610 -0.660172
O114  O     O_R   0.465390 0.365830 0.284610 -0.655467
O115  O     O_R   0.465390 0.365830 0.715390 -0.634914
O116  O     O_R   0.465390 0.634170 0.715390 -0.643248
O117  O     O_R   0.465390 0.634170 0.284610 -0.657398
O118  O     O_R   0.965390 0.865830 0.284610 -0.657363
O119  O     O_R   0.965390 0.865830 0.715390 -0.660164
O120  O     O_R   0.965390 0.134170 0.715390 -0.657208
Zn1   Zn    Zn3+2 0.549450 0.706630 0.799470 1.029268
Zn2   Zn    Zn3+2 0.049450 0.706630 0.700530 1.027428
Zn3   Zn    Zn3+2 0.049450 0.293370 0.700530 1.024330
Zn4   Zn    Zn3+2 0.049450 0.293370 0.299470 1.027914
Zn5   Zn    Zn3+2 0.049450 0.206630 0.799470 1.025042
Zn6   Zn    Zn3+2 0.049450 0.206630 0.200530 1.030406
Zn7   Zn    Zn3+2 0.049450 0.793370 0.200530 1.024071
Zn8   Zn    Zn3+2 0.049450 0.793370 0.799470 1.029443
Zn9   Zn    Zn3+2 0.450550 0.793390 0.799460 1.002763
Zn10  Zn    Zn3+2 0.450550 0.793390 0.200540 0.995183
Zn11  Zn    Zn3+2 0.450550 0.206610 0.200540 1.003172
Zn12  Zn    Zn3+2 0.549450 0.706630 0.200530 1.038708
Zn13  Zn    Zn3+2 0.450550 0.206610 0.799460 1.008165
Zn14  Zn    Zn3+2 0.450550 0.293390 0.299460 1.002119
Zn15  Zn    Zn3+2 0.450550 0.293390 0.700540 1.013017
Zn16  Zn    Zn3+2 0.450550 0.706610 0.700540 1.009518
Zn17  Zn    Zn3+2 0.450550 0.706610 0.299460 0.992718
Zn18  Zn    Zn3+2 0.950550 0.793390 0.299460 0.995766
Zn19  Zn    Zn3+2 0.950550 0.793390 0.700540 0.991017
Zn20  Zn    Zn3+2 0.950550 0.206610 0.700540 0.995076
Zn21  Zn    Zn3+2 0.950550 0.206610 0.299460 0.990750
Zn22  Zn    Zn3+2 0.950550 0.293390 0.799460 0.986802
Zn23  Zn    Zn3+2 0.549450 0.293370 0.200530 1.002891
Zn24  Zn    Zn3+2 0.950550 0.293390 0.200540 0.984425
Zn25  Zn    Zn3+2 0.950550 0.706610 0.200540 0.989455
Zn26  Zn    Zn3+2 0.950550 0.706610 0.799460 0.985103
Zn27  Zn    Zn3+2 0.549450 0.293370 0.799470 1.017654
Zn28  Zn    Zn3+2 0.549450 0.206630 0.299470 1.022314
Zn29  Zn    Zn3+2 0.549450 0.206630 0.700530 1.003343
Zn30  Zn    Zn3+2 0.549450 0.793370 0.700530 1.018691
Zn31  Zn    Zn3+2 0.549450 0.793370 0.299470 1.008403
Zn32  Zn    Zn3+2 0.049450 0.706630 0.299470 1.023654

loop_
_geom_bond_atom_site_label_1
_geom_bond_atom_site_label_2
_ccdc_geom_bond_type
C128  O28   A    
O1    Zn9   S    
C131  O100  A    
C60   C79   A    
O104  Zn4   S    
H16   O15   S    
C139  O29   A    
C1    C77   S    
C32   C53   A    
C62   C77   A    
C114  C115  T    
C95   O113  A    
O118  Zn18  S    
O60   Zn13  S    
C96   H31   S    
O33   Zn10  S    
C84   O13   A    
C131  O47   A    
O1    Zn16  S    
C63   C76   A    
C148  O69   A    
C110  C111  T    
C19   C37   A    
C129  O97   A    
C97   H32   S    
C66   C72   A    
C126  O95   A    
C78   C96   A    
O66   Zn7   S    
C21   O12   S    
C1    O109  A    
O61   Zn14  S    
C136  O52   A    
C24   O34   A    
O66   Zn25  S    
C4    C12   T    
O29   Zn12  S    
C24   C85   S    
H26   O25   S    
C106  O114  A    
C39   I12   S    
C98   H2    S    
O72   Zn25  S    
O3    Zn21  S    
C95   O24   A    
O43   Zn14  S    
O107  Zn7   S    
O6    Zn25  S    
C81   C99   A    
O59   Zn11  S    
C5    C155  S    
C128  O116  A    
O90   Zn32  S    
C157  O86   A    
C144  O62   A    
C94   H30   S    
C134  O50   A    
C42   I15   S    
O88   Zn20  S    
C146  O73   A    
O52   Zn22  S    
C130  O46   A    
C57   O37   A    
C72   C106  S    
O98   Zn30  S    
H14   O12   S    
C17   C34   A    
C55   C83   A    
C10   C160  T    
C133  O102  A    
C43   I16   S    
C79   C97   A    
O65   Zn18  S    
O33   Zn12  S    
O27   Zn27  S    
C59   C80   A    
O62   Zn15  S    
C71   C139  S    
O80   Zn27  S    
O113  Zn13  S    
C7    C157  S    
C28   C58   A    
C136  O105  A    
H20   O19   S    
C23   C41   A    
C148  O71   A    
C120  C135  S    
H19   O18   S    
C125  O41   A    
O13   Zn28  S    
O24   Zn29  S    
C113  C124  S    
O75   Zn31  S    
C116  C118  T    
H17   O16   S    
O92   Zn1   S    
O39   Zn9   S    
H11   O10   S    
O67   Zn19  S    
C132  O48   A    
C90   H23   S    
C98   C99   A    
C157  O89   A    
C43   C47   A    
C10   C148  S    
C103  H7    S    
O28   Zn1   S    
C122  C133  S    
C53   C54   A    
C108  C109  T    
C33   C52   A    
C105  C107  T    
O55   Zn27  S    
C156  O85   A    
C29   C47   A    
C30   C48   A    
C36   C37   A    
O32   Zn5   S    
C86   C150  S    
C2    O31   A    
C26   O17   S    
C154  O83   A    
C92   C96   A    
O47   Zn17  S    
C19   C66   A    
C68   O7    A    
C21   C64   A    
C124  O93   A    
C22   C63   A    
C46   C82   S    
C27   C44   A    
C23   C62   A    
C71   C89   A    
C37   I10   S    
C132  O101  A    
C149  C158  S    
O99   Zn24  S    
O7    Zn26  S    
O91   Zn2   S    
C66   C67   A    
C102  H6    S    
C73   O111  A    
C24   O3    A    
O96   Zn28  S    
C119  C134  S    
O94   Zn23  S    
O54   Zn25  S    
C3    C11   T    
C127  O96   A    
O106  Zn6   S    
O86   Zn6   S    
C65   C74   A    
C151  C159  S    
C124  O40   A    
C35   O4    A    
C72   C90   A    
O26   Zn23  S    
C88   C91   A    
C46   O5    A    
C2    C87   S    
O50   Zn20  S    
C99   H3    S    
O44   Zn11  S    
C129  O45   A    
C109  C129  S    
O116  Zn16  S    
C20   O11   S    
O93   Zn12  S    
C36   I9    S    
C121  C132  S    
O77   Zn19  S    
C97   C100  A    
C33   O25   S    
C91   H27   S    
C40   I13   S    
C83   C101  A    
C156  O87   A    
C143  O61   A    
C8    C146  S    
C142  O58   A    
C23   O15   S    
C50   I7    S    
C92   H28   S    
C56   C82   A    
C105  C130  S    
C93   H29   S    
O37   Zn32  S    
C135  O51   A    
C151  O82   A    
O89   Zn4   S    
O45   Zn15  S    
O77   Zn8   S    
O69   Zn21  S    
C64   C75   A    
C114  C138  S    
C31   C54   A    
C102  C103  A    
C51   I8    S    
O73   Zn26  S    
C154  O90   A    
C49   C50   A    
C140  O56   A    
O42   Zn13  S    
O88   Zn5   S    
C29   O20   S    
C26   C60   A    
C6    C156  S    
C85   C102  A    
C152  O76   A    
O57   Zn9   S    
C137  O53   A    
C4    C154  S    
C139  O117  A    
C68   C80   S    
C155  O84   A    
C46   O36   A    
C8    C158  T    
C138  O107  A    
C144  O60   A    
C17   C69   A    
C22   O14   S    
C30   O21   S    
C84   O112  A    
C69   C70   A    
C117  O27   A    
C2    O119  A    
C155  O91   A    
O95   Zn27  S    
C25   O16   S    
C41   I14   S    
C74   C117  S    
H18   O17   S    
C150  O118  A    
C138  O54   A    
O30   Zn7   S    
O87   Zn3   S    
C17   O8    S    
C106  O26   A    
C52   C55   A    
C134  O103  A    
H10   O9    S    
O103  Zn3   S    
C133  O49   A    
O64   Zn17  S    
O49   Zn19  S    
O70   Zn22  S    
O38   Zn2   S    
C31   C49   A    
C28   O19   S    
O33   Zn31  S    
C39   C42   A    
O111  Zn10  S    
C47   I4    S    
C16   C143  S    
C112  C123  S    
C137  O106  A    
O84   Zn8   S    
C58   C81   A    
O1    Zn1   S    
O77   Zn2   S    
C58   C59   A    
O31   Zn8   S    
O58   Zn10  S    
C56   C60   A    
O66   Zn18  S    
C74   C91   A    
C61   C64   A    
C62   C63   A    
C76   C93   A    
O68   Zn20  S    
C20   C65   A    
C1    O110  A    
C111  C126  S    
C100  H4    S    
C19   O10   S    
O66   Zn32  S    
C101  H5    S    
C5    C14   T    
O46   Zn16  S    
C135  O104  A    
C34   I1    S    
O81   Zn1   S    
C7    C16   T    
C146  O67   A    
C101  C104  A    
O1    Zn30  S    
C147  O70   A    
C44   C45   A    
C80   C98   A    
O115  Zn15  S    
O88   Zn22  S    
C25   C42   A    
O114  Zn14  S    
C119  C120  T    
C116  C136  S    
C29   C56   A    
C33   C51   A    
C130  O98   A    
C30   C55   A    
C13   C83   S    
C126  O42   A    
C68   O38   A    
O99   Zn6   S    
H24   O22   S    
O4    Zn22  S    
O74   Zn30  S    
C11   C147  S    
C65   C69   A    
C9    C145  S    
O44   Zn28  S    
C12   C142  S    
C67   C71   A    
C141  O63   A    
O40   Zn10  S    
C75   C84   S    
C87   C104  A    
C115  C140  S    
O55   Zn29  S    
C153  O78   A    
C77   C94   A    
C27   C59   A    
C89   C90   A    
C18   C36   A    
O63   Zn16  S    
O110  Zn30  S    
C45   I3    S    
C152  C160  S    
O100  Zn31  S    
C93   C94   A    
C57   C79   S    
C123  O92   A    
O44   Zn23  S    
C70   C88   A    
C35   C81   S    
C152  O79   A    
O77   Zn26  S    
C76   C95   S    
O97   Zn29  S    
O120  Zn20  S    
C9    C159  T    
O101  Zn32  S    
C88   H1    S    
C140  O108  A    
C31   O22   S    
O48   Zn18  S    
C3    C153  S    
O56   Zn26  S    
C6    C15   T    
C48   C51   A    
O55   Zn15  S    
C150  O30   A    
C149  O74   A    
C53   C86   A    
C13   O120  A    
C118  C137  S    
O71   Zn24  S    
C127  O43   A    
C147  O68   A    
C32   O23   S    
O102  Zn2   S    
O82   Zn12  S    
O117  Zn17  S    
C86   C103  A    
O33   Zn17  S    
C112  C113  T    
C26   C43   A    
C13   O32   A    
C49   I6    S    
H21   O20   S    
H25   O23   S    
O5    Zn24  S    
C28   C45   A    
C149  O81   A    
O105  Zn5   S    
C73   O2    A    
O99   Zn4   S    
C107  C131  S    
C25   C61   A    
C18   C67   A    
O85   Zn5   S    
O34   Zn6   S    
C141  O57   A    
C145  O65   A    
O2    Zn31  S    
O112  Zn11  S    
C151  O75   A    
C104  H8    S    
C20   C38   A    
H22   O21   S    
C21   C39   A    
C61   C78   A    
C73   C78   S    
C22   C40   A    
C153  O80   A    
C121  C122  T    
O51   Zn21  S    
C32   C50   A    
C75   C92   A    
O99   Zn21  S    
C125  O94   A    
C40   C41   A    
C145  O72   A    
O53   Zn24  S    
C70   C128  S    
H9    O8    S    
O108  Zn8   S    
C34   C38   A    
C82   C100  A    
C52   C87   A    
C89   H12   S    
O35   Zn3   S    
O44   Zn14  S    
C54   C85   A    
C27   O18   S    
C117  O115  A    
C44   I2    S    
O88   Zn3   S    
C48   I5    S    
C38   I11   S    
O109  Zn9   S    
C123  O39   A    
O76   Zn28  S    
O55   Zn13  S    
O79   Zn23  S    
O78   Zn29  S    
O83   Zn7   S    
O36   Zn4   S    
H15   O14   S    
C143  O59   A    
O41   Zn11  S    
C108  C127  S    
H13   O11   S    
C142  O64   A    
C14   C141  S    
C110  C125  S    
C15   C144  S    
O119  Zn19  S    
C57   O6    A    
C18   O9    S    
C35   O35   A    
