data_mof_unit_48661.cif
_audit_creation_date              2012-12-10T18:44:30-0500
_audit_creation_method            fapswitch 2.2
_symmetry_space_group_name_H-M    P1
_symmetry_Int_Tables_number       1
_space_group_crystal_system       triclinic
_cell_length_a                    12.916428
_cell_length_b                    10.643979
_cell_length_c                    9.82619
_cell_angle_alpha                 90.144425
_cell_angle_beta                  96.893709
_cell_angle_gamma                 90.359174
_cell_volume                      1341.12597938

loop_
_atom_site_label
_atom_site_type_symbol
_atom_type_description
_atom_site_fract_x
_atom_site_fract_y
_atom_site_fract_z
_atom_type_partial_charge
Br1   Br    Br    0.322372 0.855534 0.278664 -0.527521
Br2   Br    Br    0.677780 0.144391 0.720881 -0.544667
C1    C     C_R   0.502381 0.260142 0.500273 0.908937
C2    C     C_R   0.701350 0.488083 0.526278 0.907172
C3    C     C_R   0.811796 0.457460 0.541106 -0.087783
C4    C     C_R   0.185017 0.477615 0.458371 -0.071387
C5    C     C_R   0.018418 0.477021 0.317893 -0.264402
C6    C     C_R   0.976547 0.429850 0.680995 -0.262844
C7    C     C_R   0.125246 0.496259 0.330234 0.069015
C8    C     C_R   0.869760 0.447230 0.671755 0.104180
C9    C     C_R   0.136127 0.442188 0.574061 0.021995
C10   C     C_R   0.860899 0.436266 0.422037 0.023140
C11   C     C_R   0.027621 0.438445 0.563331 0.088774
C12   C     C_R   0.497547 0.739849 0.499705 0.933797
C13   C     C_R   0.969043 0.447789 0.433027 0.101166
C14   C     C_R   0.431275 0.066070 0.405551 -0.258189
C15   C     C_R   0.568629 0.933949 0.594370 -0.256247
C16   C     C_R   0.427230 0.937108 0.404782 0.274750
C17   C     C_R   0.572733 0.062895 0.595051 0.272372
C18   C     C_R   0.496732 0.872143 0.499639 -0.136141
C19   C     C_R   0.503183 0.127866 0.500286 -0.129723
C20   C     C_R   0.560901 0.582936 0.082151 -0.122945
C21   C     C_R   0.439592 0.416571 0.917941 -0.135812
C22   C     C_R   0.561147 0.583130 0.937835 0.191977
C23   C     C_R   0.439202 0.416505 0.062204 0.189203
C24   C     C_R   0.297654 0.495223 0.473622 0.928991
H1    H     H_    0.974167 0.495031 0.219221 0.150483
H2    H     H_    0.174425 0.320738 0.732324 0.182390
H3    H     H_    0.836874 0.370119 0.849669 0.217189
H4    H     H_    0.856048 0.527340 0.855419 0.165629
H5    H     H_    0.152794 0.472417 0.133582 0.165816
H6    H     H_    0.138404 0.623415 0.180698 0.216635
H7    H     H_    0.702641 0.657055 0.919221 0.166903
H8    H     H_    0.603811 0.760975 0.901506 0.178782
H9    H     H_    0.398470 0.238214 0.099435 0.179502
H10   H     H_    0.298427 0.340157 0.079939 0.158709
H11   H     H_    0.018823 0.420397 0.782306 0.136653
H12   H     H_    0.377009 0.118245 0.334554 0.184430
H13   H     H_    0.622875 0.881787 0.665403 0.185252
H14   H     H_    0.609467 0.648945 0.145313 0.149276
H15   H     H_    0.391743 0.349823 0.854951 0.154235
H16   H     H_    0.752630 0.326258 0.313419 0.207248
H17   H     H_    0.848610 0.360689 0.226695 0.174688
H18   H     H_    0.185228 0.476574 0.776198 0.188407
N1    N     N_R   0.499970 0.499970 0.857200 -0.076288
N2    N     N_R   0.500030 0.500030 0.142800 -0.077402
N3    N     N_3   0.801141 0.401348 0.293284 -0.420546
N4    N     N_3   0.196948 0.409769 0.701473 -0.441967
N5    N     N_3   0.821322 0.453645 0.795466 -0.401688
N6    N     N_3   0.171792 0.537554 0.212592 -0.396958
N7    N     N_3   0.625594 0.670308 0.875825 -0.396189
N8    N     N_3   0.375424 0.328572 0.124246 -0.397851
O1    O     O_R   0.499990 0.316750 0.614620 -0.591692
O2    O     O_R   0.500010 0.683250 0.385380 -0.590017
O3    O     O_R   0.499990 0.316780 0.385290 -0.619944
O4    O     O_R   0.500010 0.683220 0.614710 -0.608900
O5    O     O_R   0.346360 0.499970 0.595710 -0.608377
O6    O     O_R   0.653640 0.500030 0.404290 -0.621542
O7    O     O_R   0.346360 0.499990 0.366380 -0.571291
O8    O     O_R   0.653640 0.500010 0.633620 -0.569442
Zn1   Zn    Zn3+2 0.500000 0.499980 0.653120 1.008334
Zn2   Zn    Zn3+2 0.500000 0.500020 0.346880 1.001727

loop_
_geom_bond_atom_site_label_1
_geom_bond_atom_site_label_2
_ccdc_geom_bond_type
O6    Zn2   S    
C12   O4    A    
O5    Zn1   S    
C14   C19   A    
C21   N1    A    
H7    N7    S    
C9    C11   A    
C24   O7    A    
C1    O3    A    
H10   N8    S    
C10   C13   A    
C20   H14   S    
C2    O8    A    
C22   N7    S    
C5    C13   A    
C9    N4    S    
C23   N8    S    
C3    C8    A    
C12   O2    A    
H3    N5    S    
C21   C23   A    
C2    C3    S    
C1    O1    A    
H6    N6    S    
Br1   C16   S    
C6    C11   A    
O1    Zn1   S    
C4    C7    A    
C10   N3    S    
C22   N1    A    
N1    Zn1   S    
C17   C19   A    
H4    N5    S    
N2    Zn2   S    
C16   C18   A    
H16   N3    S    
C11   C13   A    
C24   O5    A    
C20   C22   A    
C1    C19   S    
C6    H11   S    
H5    N6    S    
C20   N2    A    
O3    Zn2   S    
C12   C18   S    
C4    C9    A    
C15   C18   A    
C5    H1    S    
C3    C10   A    
C14   C16   A    
C15   H13   S    
C2    O6    A    
H9    N8    S    
C5    C7    A    
C4    C24   S    
H2    N4    S    
O7    Zn2   S    
O2    Zn2   S    
C15   C17   A    
Br2   C17   S    
O4    Zn1   S    
C8    N5    S    
H17   N3    S    
C23   N2    A    
C6    C8    A    
H8    N7    S    
C7    N6    S    
H18   N4    S    
C14   H12   S    
O8    Zn1   S    
C21   H15   S    
