data_mof_unit_37237.cif
_audit_creation_date              2012-10-26T19:09:22-0400
_audit_creation_method            fapswitch 2.2
_symmetry_space_group_name_H-M    P1
_symmetry_Int_Tables_number       1
_space_group_crystal_system       triclinic
_cell_length_a                    10.829637
_cell_length_b                    9.516095
_cell_length_c                    19.305674
_cell_angle_alpha                 89.937424
_cell_angle_beta                  90.17514
_cell_angle_gamma                 89.92378
_cell_volume                      1989.55047997

loop_
_atom_site_label
_atom_site_type_symbol
_atom_type_description
_atom_site_fract_x
_atom_site_fract_y
_atom_site_fract_z
_atom_type_partial_charge
C1    C     C_R   0.262052 0.500051 0.499953 0.563781
C2    C     C_R   0.063687 0.627740 0.499921 -0.126869
C3    C     C_R   0.871780 0.499939 0.500056 0.031589
C4    C     C_R   0.128220 0.500061 0.499944 0.031589
C5    C     C_R   0.420688 0.074617 0.458384 0.021101
C6    C     C_R   0.579312 0.925382 0.541615 0.021100
C7    C     C_R   0.579297 0.074222 0.541632 0.020968
C8    C     C_R   0.420703 0.925777 0.458368 0.020967
C9    C     C_R   0.592159 0.574342 0.255326 -0.024332
C10   C     C_R   0.407846 0.425648 0.744674 -0.024332
C11   C     C_R   0.593971 0.571279 0.745178 -0.018350
C12   C     C_R   0.737948 0.499949 0.500046 0.563781
C13   C     C_R   0.406024 0.428731 0.254823 -0.018352
C14   C     C_R   0.591606 0.577620 0.182388 -0.022445
C15   C     C_R   0.408400 0.422369 0.817612 -0.022445
C16   C     C_R   0.594162 0.571321 0.818298 -0.022008
C17   C     C_R   0.405832 0.428689 0.181702 -0.022009
C18   C     C_R   0.498659 0.503673 0.145837 0.050313
C19   C     C_R   0.501341 0.496327 0.854163 0.050313
C20   C     C_R   0.499528 0.500637 0.291379 -0.031188
C21   C     C_R   0.500472 0.499363 0.708621 -0.031190
C22   C     C_1   0.690069 0.644526 0.293433 0.213697
C23   C     C_R   0.500725 0.498197 0.930121 0.327678
C24   C     C_1   0.309941 0.355454 0.706568 0.213699
C25   C     C_1   0.692136 0.640235 0.707104 0.202078
C26   C     C_1   0.307855 0.359783 0.292896 0.202075
C27   C     C_3   0.690122 0.661847 0.144991 -0.370520
C28   C     C_3   0.309890 0.338132 0.855010 -0.370521
C29   C     C_3   0.691280 0.651598 0.859122 -0.375670
C30   C     C_3   0.308708 0.348425 0.140878 -0.375671
C31   C     C_R   0.499275 0.501803 0.069879 0.327677
C32   C     C_R   0.499832 0.500109 0.367602 0.551242
C33   C     C_R   0.500168 0.499890 0.632398 0.551239
C34   C     C_R   0.064038 0.372318 0.500004 -0.103967
C35   C     C_R   0.935962 0.627682 0.499995 -0.103967
C36   C     C_R   0.936312 0.372260 0.500079 -0.126869
Cu1   Cu    Cu3+1 0.500000 0.640660 0.500000 0.979525
Cu2   Cu    Cu3+1 0.500000 0.359340 0.500000 0.979525
H1    H     H_    0.112230 0.272489 0.500003 0.144980
H2    H     H_    0.688305 0.772335 0.163429 0.143777
H3    H     H_    0.782436 0.616049 0.156130 0.148892
H4    H     H_    0.321895 0.334516 0.911958 0.153314
H5    H     H_    0.217573 0.383925 0.843874 0.148891
H6    H     H_    0.311711 0.227646 0.836569 0.143777
H7    H     H_    0.748348 0.576900 0.889710 0.157813
H8    H     H_    0.754765 0.713928 0.826402 0.147993
H9    H     H_    0.645535 0.726462 0.894941 0.146666
H10   H     H_    0.251646 0.423128 0.110291 0.157816
H11   H     H_    0.354446 0.273556 0.105059 0.146664
H12   H     H_    0.887770 0.727511 0.499997 0.144980
H13   H     H_    0.245219 0.286101 0.173598 0.147993
H14   H     H_    0.888398 0.272407 0.500150 0.133080
H15   H     H_    0.111602 0.727593 0.499850 0.133080
H16   H     H_    0.357149 0.130856 0.425073 0.135603
H17   H     H_    0.642851 0.869144 0.574927 0.135608
H18   H     H_    0.642796 0.130169 0.574993 0.116049
H19   H     H_    0.357204 0.869831 0.425007 0.116048
H20   H     H_    0.678121 0.665458 0.088041 0.153317
N1    N     N_R   0.500000 0.852070 0.500000 -0.228249
N2    N     N_1   0.229493 0.305133 0.323348 -0.317973
N3    N     N_R   0.500000 0.147930 0.500000 -0.228248
N4    N     N_R   0.585601 0.426175 0.035375 -0.227667
N5    N     N_R   0.414398 0.573824 0.964625 -0.227666
N6    N     N_R   0.586301 0.424392 0.966484 -0.231447
N7    N     N_R   0.413699 0.575608 0.033516 -0.231448
N8    N     N_1   0.768077 0.700327 0.323867 -0.291283
N9    N     N_1   0.231936 0.299646 0.676134 -0.291282
N10   N     N_1   0.770495 0.694892 0.676653 -0.317977
O1    O     O_R   0.319640 0.618740 0.500000 -0.515575
O2    O     O_R   0.680360 0.381260 0.500000 -0.515576
O3    O     O_R   0.680360 0.618740 0.500000 -0.496422
O4    O     O_R   0.319640 0.381260 0.500000 -0.496422
O5    O     O_R   0.499980 0.618820 0.400140 -0.493606
O6    O     O_R   0.500020 0.381180 0.599860 -0.493605
O7    O     O_R   0.500020 0.618820 0.599860 -0.492563
O8    O     O_R   0.499980 0.381180 0.400140 -0.492565

loop_
_geom_bond_atom_site_label_1
_geom_bond_atom_site_label_2
_ccdc_geom_bond_type
C2    C35   A    
C30   H13   S    
Cu2   O2    S    
Cu1   O1    S    
C14   C18   A    
C19   C23   S    
C6    H17   S    
N5    N7    A    
Cu2   O8    S    
C15   C19   A    
C29   H9    S    
C30   H10   S    
C10   C15   A    
C8    N1    A    
C20   C32   S    
C9    C22   S    
C21   C33   S    
C11   C25   S    
C22   N8    T    
Cu1   O5    S    
C3    C12   S    
C24   N9    T    
C33   O7    A    
C7    N3    A    
N4    N6    A    
C14   C27   S    
C36   H14   S    
Cu2   N3    S    
C23   N5    A    
Cu1   O7    S    
C17   C30   S    
C31   N4    A    
C25   N10   T    
C7    H18   S    
Cu2   O4    S    
C10   C21   A    
C4    C34   A    
C1    O4    A    
C34   H1    S    
C2    H15   S    
C5    H16   S    
C32   O5    A    
C10   C24   S    
C16   C29   S    
C11   C21   A    
C1    O1    A    
C29   H7    S    
C2    C4    A    
C9    C14   A    
Cu1   Cu2   S    
C8    H19   S    
C11   C16   A    
C27   H3    S    
C9    C20   A    
C3    C35   A    
C27   H2    S    
C35   H12   S    
C17   C18   A    
C5    N3    A    
Cu1   N1    S    
C23   N6    A    
C30   H11   S    
Cu1   O3    S    
C13   C26   S    
Cu2   O6    S    
C31   N7    A    
C12   O2    A    
C13   C20   A    
C6    N1    A    
C12   O3    A    
C27   H20   S    
C32   O8    A    
C5    C8    A    
C6    C7    A    
C28   H5    S    
C13   C17   A    
C29   H8    S    
C1    C4    S    
C15   C28   S    
C3    C36   A    
C16   C19   A    
C28   H4    S    
C28   H6    S    
C34   C36   A    
C33   O6    A    
C18   C31   S    
C26   N2    T    
