data_mof_unit_8514.cif
_audit_creation_date              2012-12-10T20:28:47-0500
_audit_creation_method            fapswitch 2.2
_symmetry_space_group_name_H-M    P1
_symmetry_Int_Tables_number       1
_space_group_crystal_system       triclinic
_cell_length_a                    10.635972
_cell_length_b                    10.678161
_cell_length_c                    9.870781
_cell_angle_alpha                 90.006404
_cell_angle_beta                  89.899447
_cell_angle_gamma                 89.693189
_cell_volume                      1121.03266614

loop_
_atom_site_label
_atom_site_type_symbol
_atom_type_description
_atom_site_fract_x
_atom_site_fract_y
_atom_site_fract_z
_atom_type_partial_charge
Br1   Br    Br    0.268755 0.130339 0.703102 -0.581489
C1    C     C_R   0.503418 0.259972 0.499984 0.926530
C2    C     C_R   0.547846 0.934898 0.378987 -0.207714
C3    C     C_R   0.525716 0.871031 0.500834 -0.062471
C4    C     C_R   0.260452 0.503698 0.500159 0.901336
C5    C     C_R   0.527271 0.935964 0.623212 0.053402
C6    C     C_3   0.444415 0.926660 0.745341 -0.492240
C7    C     C_3   0.437389 0.068810 0.743569 0.105815
C8    C     C_R   0.412321 0.432877 0.071370 0.210316
C9    C     C_R   0.592678 0.557429 0.071750 -0.131154
C10   C     C_R   0.592673 0.557468 0.927845 -0.134771
C11   C     C_R   0.412232 0.433029 0.928811 0.235124
C12   C     C_R   0.064935 0.610130 0.568809 0.091903
C13   C     C_3   0.273340 0.452295 0.923660 -0.470335
C14   C     C_3   0.273395 0.451667 0.077320 -0.508912
C15   C     C_R   0.504524 0.739946 0.500072 0.850682
C16   C     C_R   0.739468 0.503601 0.499867 0.859931
C17   C     C_R   0.129217 0.708717 0.634209 -0.203362
C18   C     C_R   0.062869 0.804430 0.699224 -0.109106
C19   C     C_R   0.932098 0.805009 0.698074 -0.129936
C20   C     C_R   0.867246 0.709620 0.632360 -0.199450
C21   C     C_R   0.933144 0.610439 0.568121 0.102219
C22   C     C_R   0.128112 0.512338 0.500142 -0.102514
C23   C     C_R   0.064777 0.420249 0.428247 -0.181079
C24   C     C_R   0.936361 0.420343 0.427904 -0.204319
C25   C     C_R   0.871589 0.512612 0.499339 -0.096536
C26   C     C_R   0.522670 0.063465 0.622611 0.060967
C27   C     C_R   0.522029 0.128364 0.500313 -0.064652
C28   C     C_R   0.546456 0.064428 0.378824 -0.220559
H1    H     H_    0.115108 0.346574 0.374928 0.160677
H2    H     H_    0.230550 0.713849 0.634058 0.145545
H3    H     H_    0.112987 0.879094 0.749396 0.175779
H4    H     H_    0.880707 0.880253 0.747026 0.142045
H5    H     H_    0.765816 0.715745 0.630861 0.145566
H6    H     H_    0.887143 0.346654 0.374451 0.155236
H7    H     H_    0.555819 0.113289 0.283184 0.168329
H8    H     H_    0.557290 0.885909 0.283357 0.167354
H9    H     H_    0.353855 0.879673 0.723754 0.219624
H10   H     H_    0.495928 0.888969 0.834498 0.178112
H11   H     H_    0.482618 0.113187 0.832813 0.130657
H12   H     H_    0.665875 0.606384 0.125816 0.152276
H13   H     H_    0.665851 0.606475 0.873514 0.152561
H14   H     H_    0.246463 0.544557 0.879811 0.215554
H15   H     H_    0.223969 0.370672 0.879171 0.244864
H16   H     H_    0.246164 0.543452 0.122153 0.224726
H17   H     H_    0.224584 0.369339 0.121367 0.208289
N1    N     N_R   0.499160 0.499140 0.142800 -0.109322
N2    N     N_R   0.499160 0.499180 0.857150 -0.112519
O1    O     O_R   0.500020 0.316790 0.614690 -0.595801
O2    O     O_R   0.500000 0.316760 0.385350 -0.628524
O3    O     O_R   0.316770 0.500020 0.614690 -0.609968
O4    O     O_R   0.316760 0.499980 0.385350 -0.620254
O5    O     O_R   0.500000 0.683240 0.614650 -0.633656
O6    O     O_R   0.499980 0.683210 0.385310 -0.621669
O7    O     O_R   0.683240 0.500020 0.614650 -0.625952
O8    O     O_R   0.683230 0.499980 0.385310 -0.623812
Zn1   Zn    Zn3+2 0.500010 0.500020 0.653130 0.952152
Zn2   Zn    Zn3+2 0.499990 0.499980 0.346870 0.944507

loop_
_geom_bond_atom_site_label_1
_geom_bond_atom_site_label_2
_ccdc_geom_bond_type
C3    C15   S    
C1    C27   S    
C22   C23   A    
C4    O4    A    
C16   C25   S    
C5    C6    S    
O3    Zn1   S    
C1    O1    A    
Br1   C7    S    
C7    H11   S    
C16   O7    A    
C5    C26   A    
C16   O8    A    
C11   N2    A    
C8    C14   S    
N2    Zn1   S    
C20   C21   A    
C23   C24   A    
N1    Zn2   S    
C28   H7    S    
C12   C22   A    
C10   N2    A    
O4    Zn2   S    
C12   C17   A    
C24   H6    S    
C9    H12   S    
C19   H4    S    
C13   H15   S    
C27   C28   A    
C6    H9    S    
C11   C13   S    
C12   C21   A    
C8    N1    A    
C15   O6    A    
O7    Zn1   S    
O6    Zn2   S    
C8    C11   A    
C23   H1    S    
C9    C10   A    
C18   H3    S    
C2    C3    A    
O2    Zn2   S    
C6    C7    S    
O1    Zn1   S    
C19   C20   A    
C2    H8    S    
C10   H13   S    
C3    C5    A    
C17   C18   A    
C21   C25   A    
C9    N1    A    
C2    C28   A    
C7    C26   S    
C6    H10   S    
C13   C14   S    
C4    O3    A    
O5    Zn1   S    
C17   H2    S    
C1    O2    A    
C14   H17   S    
C24   C25   A    
C15   O5    A    
C20   H5    S    
C18   C19   A    
O8    Zn2   S    
C13   H14   S    
C26   C27   A    
C14   H16   S    
C4    C22   S    
