data_mof_unit_13298.cif
_audit_creation_date              2012-12-10T19:03:37-0500
_audit_creation_method            fapswitch 2.2
_symmetry_space_group_name_H-M    P1
_symmetry_Int_Tables_number       1
_space_group_crystal_system       triclinic
_cell_length_a                    15.885454
_cell_length_b                    10.812461
_cell_length_c                    9.556484
_cell_angle_alpha                 89.883203
_cell_angle_beta                  90.405252
_cell_angle_gamma                 90.174672
_cell_volume                      1641.37780839

loop_
_atom_site_label
_atom_site_type_symbol
_atom_type_description
_atom_site_fract_x
_atom_site_fract_y
_atom_site_fract_z
_atom_type_partial_charge
C1    C     C_R   0.498355 0.262360 0.500037 0.797723
C2    C     C_3   0.951623 0.483468 0.642699 -0.502732
C3    C     C_3   0.916932 0.495770 0.490393 0.116004
C4    C     C_3   0.949813 0.622887 0.433785 -0.128016
C5    C     C_3   0.047928 0.617401 0.419295 0.365906
C6    C     C_1   0.824743 0.496957 0.496666 -0.004026
C7    C     C_1   0.175227 0.499767 0.496451 0.017955
C8    C     C_1   0.250711 0.499831 0.498235 -0.173584
C9    C     C_R   0.490128 0.063361 0.625502 0.157572
C10   C     C_R   0.489904 0.129237 0.499820 -0.104765
C11   C     C_R   0.477955 0.064631 0.373604 -0.221545
C12   C     C_R   0.340278 0.499894 0.499586 0.820829
C13   C     C_R   0.478270 0.935726 0.373464 -0.209049
C14   C     C_R   0.490483 0.870764 0.499539 -0.092365
C15   C     C_R   0.490543 0.936111 0.625328 0.126771
C16   C     C_3   0.550280 0.929940 0.746575 -0.505300
C17   C     C_3   0.549591 0.070356 0.747048 -0.425265
C18   C     C_R   0.540727 0.591197 0.074155 0.148856
C19   C     C_R   0.452159 0.418478 0.074511 -0.162405
C20   C     C_R   0.450099 0.419955 0.924642 0.577156
C21   C     C_R   0.542440 0.589357 0.927200 0.081282
C22   C     C_3   0.634799 0.617386 0.925914 0.313619
C23   C     C_R   0.498678 0.737660 0.499839 0.792613
C24   C     C_3   0.631652 0.623723 0.084849 -0.488443
C25   C     C_R   0.659724 0.499875 0.500279 0.822590
C26   C     C_3   0.048932 0.487801 0.644841 -0.410222
C27   C     C_3   0.050465 0.385002 0.412651 -0.542991
C28   C     C_3   0.951379 0.383190 0.401469 0.935891
C29   C     C_1   0.749272 0.498523 0.500107 -0.166864
C30   C     C_3   0.083024 0.499556 0.494161 0.091158
Cu1   Cu    Cu3+1 0.500000 0.499980 0.640670 1.012419
Cu2   Cu    Cu3+1 0.500000 0.500020 0.359330 0.947754
H1    H     H_    0.929699 0.395345 0.690738 0.223282
H2    H     H_    0.072068 0.564439 0.711874 0.190176
H3    H     H_    0.927476 0.559834 0.709031 0.174552
H4    H     H_    0.472472 0.112998 0.274598 0.166848
H5    H     H_    0.472984 0.887715 0.274402 0.166398
H6    H     H_    0.520740 0.888517 0.840881 0.195585
H7    H     H_    0.612308 0.890329 0.717803 0.194203
H8    H     H_    0.519373 0.109953 0.841419 0.220890
H9    H     H_    0.611260 0.112302 0.719105 0.198955
H10   H     H_    0.416656 0.349683 0.131539 0.145278
H11   H     H_    0.073102 0.401378 0.694133 0.186003
H12   H     H_    0.648768 0.706855 0.872628 0.067936
H13   H     H_    0.669787 0.551165 0.137659 0.236472
H14   H     H_    0.641457 0.718784 0.126008 0.162673
H15   H     H_    0.078461 0.383414 0.306131 0.170711
H16   H     H_    0.074253 0.300632 0.466557 0.181139
H17   H     H_    0.059349 0.601850 0.305978 0.149245
H18   H     H_    0.929029 0.693546 0.509623 0.148546
N1    N     N_R   0.500530 0.500930 0.147930 -0.187455
N2    N     N_R   0.500530 0.500890 0.852020 -0.200726
O1    O     O_R   0.500000 0.319640 0.618810 -0.526276
O2    O     O_R   0.500010 0.319680 0.381230 -0.595205
O3    O     O_R   0.379430 0.499990 0.618840 -0.553183
O4    O     O_R   0.379440 0.500030 0.381260 -0.579782
O5    O     O_R   0.499990 0.680320 0.618770 -0.592904
O6    O     O_R   0.500000 0.680360 0.381190 -0.579746
O7    O     O_R   0.620560 0.499970 0.618740 -0.525230
O8    O     O_R   0.620570 0.500010 0.381160 -0.583351
I1    I     I_    0.892018 0.688738 0.242295 -0.470722
O9    O     O_3   0.403537 0.333286 0.850731 -0.558400
C31   C     C_3   0.317565 0.342638 0.885337 -0.345818
H19   H     H_    0.280122 0.293464 0.804201 0.191247
H20   H     H_    0.295476 0.440398 0.886546 0.159907
H21   H     H_    0.304631 0.296787 0.987062 0.148571
O10   O     O_3   0.681706 0.514522 0.880246 -0.529288
C32   C     C_3   0.766761 0.549334 0.866432 -0.304148
H22   H     H_    0.792857 0.587291 0.965751 0.186458
H23   H     H_    0.774527 0.617645 0.780284 0.156478
H24   H     H_    0.803674 0.465854 0.839992 0.188307
O11   O     O_3   0.919304 0.270394 0.459663 -0.617172
C33   C     C_3   0.947517 0.162749 0.389621 -0.339393
H25   H     H_    0.979776 0.180711 0.288542 0.184604
H26   H     H_    0.892490 0.102140 0.368001 0.196008
H27   H     H_    0.991174 0.111221 0.459491 0.170464
O12   O     O_3   0.929375 0.398018 0.256797 -0.610225
C34   C     C_3   0.848134 0.354042 0.218650 -0.238136
H28   H     H_    0.855084 0.274836 0.146089 0.166190
H29   H     H_    0.814229 0.428085 0.161342 0.191651
H30   H     H_    0.807638 0.324006 0.306527 0.180820
O13   O     O_3   0.095814 0.726463 0.449638 -0.563826
C35   C     C_3   0.062964 0.803483 0.554784 -0.287546
H31   H     H_    0.039088 0.751838 0.646436 0.144940
H32   H     H_    0.013278 0.864182 0.510049 0.171731
H33   H     H_    0.114263 0.864683 0.593173 0.183734

loop_
_geom_bond_atom_site_label_1
_geom_bond_atom_site_label_2
_ccdc_geom_bond_type
C2    H3    S    
C27   H16   S    
C23   O6    A    
C31   H20   S    
C18   C21   A    
C33   H25   S    
C19   C20   A    
Cu2   O6    S    
Cu1   N2    S    
C3    C6    S    
C7    C8    T    
O12   C34   S    
C18   C24   S    
C24   H13   S    
C3    C28   S    
C34   H29   S    
C15   C16   S    
Cu1   O7    S    
C1    O1    A    
C32   H22   S    
C26   H2    S    
C22   H12   S    
C35   H31   S    
C16   C17   S    
C18   N1    A    
C25   O8    A    
C9    C10   A    
C13   H5    S    
C19   H10   S    
C31   H21   S    
C7    C30   S    
C13   C14   A    
C27   C30   S    
C33   H26   S    
C5    H17   S    
C28   O11   S    
Cu2   O2    S    
C26   H11   S    
C25   C29   S    
O10   C32   S    
C34   H28   S    
O11   C33   S    
C4    I1    S    
C4    H18   S    
C17   H8    S    
C14   C23   S    
C1    O2    A    
Cu2   N1    S    
O9    C31   S    
Cu1   Cu2   S    
C8    C12   S    
C6    C29   T    
C2    C26   S    
Cu1   O1    S    
C28   O12   S    
C12   O4    A    
C2    H1    S    
C9    C17   S    
C35   H32   S    
C26   C30   S    
C33   H27   S    
C22   C24   S    
Cu2   O8    S    
C3    C4    S    
C5    C30   S    
C27   H15   S    
C23   O5    A    
C11   H4    S    
C1    C10   S    
C4    C5    S    
C24   H14   S    
Cu1   O5    S    
C2    C3    S    
C9    C15   A    
C20   N2    A    
C5    O13   S    
C11   C13   A    
C34   H30   S    
C32   H24   S    
C20   O9    S    
C17   H9    S    
C22   O10   S    
C12   O3    A    
C10   C11   A    
C16   H7    S    
C31   H19   S    
C19   N1    A    
C35   H33   S    
C32   H23   S    
O13   C35   S    
C27   C28   S    
C14   C15   A    
C25   O7    A    
Cu1   O3    S    
C21   C22   S    
Cu2   O4    S    
C21   N2    A    
C16   H6    S    
