data_mof_unit_6687.cif
_audit_creation_date              2012-12-10T20:27:15-0500
_audit_creation_method            fapswitch 2.2
_symmetry_space_group_name_H-M    P1
_symmetry_Int_Tables_number       1
_space_group_crystal_system       triclinic
_cell_length_a                    10.508237
_cell_length_b                    10.64372
_cell_length_c                    9.905342
_cell_angle_alpha                 88.879255
_cell_angle_beta                  103.105715
_cell_angle_gamma                 91.379846
_cell_volume                      1078.59758131

loop_
_atom_site_label
_atom_site_type_symbol
_atom_type_description
_atom_site_fract_x
_atom_site_fract_y
_atom_site_fract_z
_atom_type_partial_charge
C1    C     C_R   0.513400 0.261137 0.504583 0.919372
C2    C     C_R   0.606673 0.539015 0.098563 -0.079857
C3    C     C_R   0.606895 0.542413 0.955056 0.220590
C4    C     C_R   0.257225 0.504968 0.443350 0.880648
C5    C     C_R   0.386409 0.481821 0.901995 0.164652
C6    C     C_3   0.291305 0.374459 0.873660 -0.478653
C7    C     C_3   0.295624 0.369298 0.028598 -0.435888
C8    C     C_R   0.504058 0.740979 0.498861 0.882485
C9    C     C_R   0.742686 0.503158 0.556986 0.930116
C10   C     C_2   0.118079 0.529861 0.417326 0.004778
C11   C     C_2   0.076567 0.591519 0.516387 -0.230697
C12   C     C_R   0.550081 0.132179 0.516965 -0.246895
C13   C     C_2   0.883681 0.518178 0.585932 -0.320385
C14   C     C_2   0.939657 0.604106 0.515219 0.238180
C15   C     C_R   0.536553 0.061167 0.631685 0.111396
C16   C     C_3   0.870710 0.716771 0.441261 -0.803205
C17   C     C_3   0.725605 0.599473 0.916000 -0.773575
C18   C     C_3   0.577432 0.886444 0.256404 -0.780562
C19   C     C_R   0.596381 0.073601 0.412125 0.174197
C20   C     C_R   0.572252 0.943629 0.393877 0.101428
C21   C     C_R   0.530051 0.874198 0.501677 -0.169747
C22   C     C_R   0.529306 0.933984 0.624985 0.059026
C23   C     C_3   0.435580 0.924352 0.718258 -0.484478
C24   C     C_3   0.446593 0.066678 0.727711 -0.001038
C25   C     C_R   0.386882 0.480201 0.043766 0.196468
H1    H     H_    0.692407 0.568521 0.174750 0.170937
H2    H     H_    0.353862 0.115142 0.681927 0.134712
H3    H     H_    0.933099 0.802305 0.468911 0.236296
H4    H     H_    0.852391 0.704109 0.327612 0.243138
H5    H     H_    0.777858 0.733182 0.472593 0.215929
H6    H     H_    0.696726 0.665802 0.827285 0.255714
H7    H     H_    0.785121 0.655591 0.002075 0.207073
H8    H     H_    0.789213 0.524248 0.894638 0.267186
H9    H     H_    0.648372 0.809869 0.270226 0.236205
H10   H     H_    0.478917 0.849890 0.204856 0.245298
H11   H     H_    0.605434 0.954929 0.182741 0.269736
H12   H     H_    0.195146 0.404210 0.810182 0.197473
H13   H     H_    0.330976 0.290970 0.834280 0.235133
H14   H     H_    0.200734 0.392037 0.052839 0.225354
H15   H     H_    0.342869 0.283805 0.081819 0.238338
H16   H     H_    0.144751 0.626591 0.608066 0.151107
H17   H     H_    0.942136 0.447934 0.651675 0.127013
H18   H     H_    0.336900 0.889946 0.663557 0.180942
H19   H     H_    0.477658 0.873854 0.817006 0.227658
I1    I     I_    0.554582 0.129102 0.924777 -0.364716
I2    I     I_    0.991350 0.463409 0.233081 -0.389875
I3    I     I_    0.720820 0.177147 0.303994 -0.275109
N1    N     N_R   0.499160 0.499140 0.142600 -0.115982
N2    N     N_R   0.499160 0.499180 0.856960 -0.095562
O1    O     O_R   0.500020 0.316790 0.614700 -0.594986
O2    O     O_R   0.500000 0.316760 0.385350 -0.580522
O3    O     O_R   0.317820 0.500020 0.571850 -0.625078
O4    O     O_R   0.317800 0.499980 0.342510 -0.587703
O5    O     O_R   0.500000 0.683240 0.614650 -0.622982
O6    O     O_R   0.499980 0.683210 0.385300 -0.622086
O7    O     O_R   0.682200 0.500020 0.657490 -0.618208
O8    O     O_R   0.682180 0.499980 0.428150 -0.578934
Zn1   Zn    Zn3+2 0.500010 0.500020 0.653140 0.951956
Zn2   Zn    Zn3+2 0.499990 0.499980 0.346860 0.976191

loop_
_geom_bond_atom_site_label_1
_geom_bond_atom_site_label_2
_ccdc_geom_bond_type
C10   I2    S    
C7    H15   S    
C6    H13   S    
C16   H3    S    
C6    C7    S    
C14   C16   S    
O6    Zn2   S    
C4    O4    A    
C1    O2    A    
C1    O1    A    
C9    O8    A    
C19   C20   A    
C7    C25   S    
C12   C15   A    
C23   C24   S    
C24   H2    S    
O5    Zn1   S    
C2    C3    A    
C3    N2    A    
C6    H12   S    
C2    H1    S    
C9    O7    A    
C21   C22   A    
O3    Zn1   S    
C18   H9    S    
C25   N1    A    
C5    N2    A    
C1    C12   S    
C17   H8    S    
C4    O3    A    
C5    C25   A    
C24   I1    S    
C8    O6    A    
C15   C24   S    
O7    Zn1   S    
C11   H16   S    
C18   C20   S    
O4    Zn2   S    
C5    C6    S    
C17   H6    S    
C11   C14   S    
C19   I3    S    
O8    Zn2   S    
O2    Zn2   S    
C10   C11   D    
N2    Zn1   S    
C16   H5    S    
C4    C10   S    
O1    Zn1   S    
C23   H18   S    
C20   C21   A    
C12   C19   A    
N1    Zn2   S    
C18   H10   S    
C8    O5    A    
C17   H7    S    
C7    H14   S    
C22   C23   S    
C13   H17   S    
C9    C13   S    
C2    N1    A    
C16   H4    S    
C13   C14   D    
C18   H11   S    
C15   C22   A    
C3    C17   S    
C23   H19   S    
C8    C21   S    
