data_mof_unit_59899.cif
_audit_creation_date              2013-03-05T15:41:09-0500
_audit_creation_method            fapswitch 2.2
_symmetry_space_group_name_H-M    P1
_symmetry_Int_Tables_number       1
_space_group_crystal_system       triclinic
_cell_length_a                    7.860025
_cell_length_b                    8.711561
_cell_length_c                    14.129122
_cell_angle_alpha                 91.389038
_cell_angle_beta                  84.582537
_cell_angle_gamma                 92.882613
_cell_volume                      961.739584461

loop_
_atom_site_label
_atom_site_type_symbol
_atom_site_description
_atom_site_fract_x
_atom_site_fract_y
_atom_site_fract_z
_atom_type_partial_charge
O1    O     O_R   0.389250 0.738570 0.505710 -0.610668
O2    O     O_R   0.610750 0.261430 0.494290 -0.593555
O3    O     O_R   0.678390 0.711630 0.490800 -0.531496
O4    O     O_R   0.321610 0.288370 0.509200 -0.534190
C1    C     C_R   0.544220 0.793659 0.497954 0.865138
C2    C     C_R   0.455638 0.206661 0.504319 0.869265
O5    O     O_R   0.355390 0.513480 0.633740 -0.648831
O6    O     O_R   0.644610 0.486520 0.366260 -0.636754
O7    O     O_R   0.644540 0.486530 0.618830 -0.577473
O8    O     O_R   0.355460 0.513470 0.381170 -0.594305
C3    C     C_R   0.499636 0.499752 0.670594 0.862804
C4    C     C_R   0.500238 0.499602 0.329407 0.861448
Zn1   Zn    Zn3+2 0.306930 0.517990 0.509950 1.060277
Zn2   Zn    Zn3+2 0.693070 0.482010 0.490050 1.080191
C5    C     C_1   0.499041 0.498234 0.772119 -0.198780
C6    C     C_1   0.500418 0.499042 0.227876 -0.200352
C7    C     C_1   0.499286 0.497474 0.857417 -0.010066
C8    C     C_1   0.500095 0.498405 0.142564 -0.020743
C9    C     C_1   0.499584 0.497356 0.957324 0.019193
C10   C     C_1   0.499819 0.497682 0.042635 0.012996
C11   C     C_2   0.567037 0.955299 0.505416 -0.051185
C12   C     C_2   0.431373 0.045182 0.502342 -0.037616
N1    N     N_2   0.950330 0.457950 0.476740 0.192516
N2    N     N_2   0.049670 0.542050 0.523260 0.172852
N3    N     N_R   0.735202 0.014188 0.523178 0.247601
O9    O     O_R   0.862989 0.990914 0.460120 -0.292402
O10   O     O_R   0.763972 0.067805 0.607258 -0.361949
N4    N     N_R   0.260749 0.986580 0.490242 0.246455
O11   O     O_R   0.140140 0.009684 0.557786 -0.318437
O12   O     O_R   0.221090 0.940997 0.406369 -0.355498
O13   O     O_3   0.027520 0.342700 0.427146 -0.497779
C13   C     C_3   0.008563 0.362053 0.329639 0.207050
H1    H     H_    0.137934 0.364295 0.290659 0.136667
H2    H     H_    0.952551 0.472502 0.313457 0.127375
C14   C     C_3   0.905820 0.225210 0.290323 -0.306103
H3    H     H_    0.972198 0.118017 0.300353 0.274932
H4    H     H_    0.776404 0.215352 0.328986 0.248096
C15   C     C_3   0.888493 0.241846 0.184429 -0.986549
H5    H     H_    0.824991 0.349377 0.171636 0.275687
H6    H     H_    0.810105 0.142773 0.158468 0.279855
H7    H     H_    0.016580 0.244161 0.143698 0.271518
O14   O     O_3   0.966540 0.658235 0.568902 -0.513921
C16   C     C_3   0.040586 0.698323 0.653447 0.243214
H8    H     H_    0.984595 0.807312 0.680481 0.185186
H9    H     H_    0.179295 0.725208 0.641186 0.172858
C17   C     C_3   0.995653 0.577550 0.730322 -0.414812
H10   H     H_    0.855031 0.557950 0.741294 0.243129
H11   H     H_    0.051616 0.466492 0.707858 0.253186
C18   C     C_3   0.059467 0.631186 0.824899 -0.931399
H12   H     H_    0.198510 0.662287 0.815762 0.270138
H13   H     H_    0.035999 0.537705 0.877270 0.277794
H14   H     H_    0.990328 0.733136 0.853167 0.267441

loop_
_geom_bond_atom_site_label_1
_geom_bond_atom_site_label_2
_geom_bond_distance
_ccdc_geom_bond_type
Zn2   N1    2.033957 S    
O5    C3    1.303473 A    
O7    Zn2   1.823401 S    
N3    O10   1.301466 A    
N2    O14   1.350023 S    
C14   H3    1.110713 S    
O6    C4    1.303559 A    
N1    N2    1.262728 D    
C18   H14   1.110859 S    
C13   H1    1.109273 S    
C18   H13   1.110442 S    
N4    O12   1.301424 A    
C12   N4    1.434792 S    
C11   C12   1.358837 D    
C15   H6    1.110369 S    
C16   H9    1.101880 S    
C17   C18   1.525876 S    
O2    C2    1.283079 A    
O3    Zn2   2.009173 S    
O8    C4    1.302624 A    
O1    C1    1.282405 A    
C6    C8    1.205492 T    
N4    O11   1.299623 A    
C14   H4    1.108635 S    
C8    C10   1.411975 S    
O7    C3    1.302768 A    
C16   H8    1.110751 S    
C15   H5    1.109777 S    
O2    Zn2   1.996994 S    
C16   C17   1.535275 S    
C17   H11   1.109874 S    
O1    Zn1   1.996994 S    
O14   C16   1.406500 S    
C2    C12   1.410020 S    
C13   C14   1.528938 S    
C4    C6    1.434313 S    
O5    Zn1   1.826584 S    
C14   C15   1.526133 S    
C1    C11   1.413184 S    
C15   H7    1.110993 S    
O4    C2    1.296357 A    
C18   H12   1.108931 S    
O4    Zn1   2.009173 S    
C5    C7    1.205549 T    
C11   N3    1.435774 S    
C17   H10   1.106713 S    
O6    Zn2   1.826584 S    
C7    C9    1.411852 S    
N3    O9    1.298652 A    
C3    C5    1.434401 S    
O13   C13   1.414649 S    
C9    C10   1.205481 T    
Zn1   N2    2.033957 S    
C13   H2    1.115424 S    
O3    C1    1.298146 A    
O8    Zn1   1.823401 S    
N1    O13   1.346853 S    
