data_mof_unit_22452.cif
_audit_creation_date              2012-12-11T14:23:17-0500
_audit_creation_method            fapswitch 2.2
_symmetry_space_group_name_H-M    P1
_symmetry_Int_Tables_number       1
_space_group_crystal_system       triclinic
_cell_length_a                    11.091611
_cell_length_b                    10.947692
_cell_length_c                    18.802338
_cell_angle_alpha                 90.631335
_cell_angle_beta                  89.517429
_cell_angle_gamma                 59.431241
_cell_volume                      1965.43197722

loop_
_atom_site_label
_atom_site_type_symbol
_atom_type_description
_atom_site_fract_x
_atom_site_fract_y
_atom_site_fract_z
_atom_type_partial_charge
C1    C     C_R   0.239389 0.645038 0.610890 0.542409
C2    C     C_R   0.550861 0.206570 0.719985 -0.093454
C3    C     C_R   0.562291 0.201826 0.792247 -0.131720
C4    C     C_R   0.653102 0.623647 0.600740 0.569980
C5    C     C_R   0.929294 0.124552 0.811694 -0.096536
C6    C     C_R   0.043028 0.096550 0.768182 -0.147129
C7    C     C_R   0.035890 0.085713 0.694887 -0.132066
C8    C     C_R   0.913918 0.105620 0.664291 -0.088939
C9    C     C_R   0.663953 0.179369 0.675947 0.021705
C10   C     C_R   0.195035 0.654983 0.837269 0.035156
C11   C     C_R   0.197546 0.542138 0.798516 0.026996
C12   C     C_3   0.668988 0.554266 0.799738 0.208656
C13   C     C_R   0.189357 0.548356 0.723201 0.011773
C14   C     C_R   0.228669 0.747614 0.728428 -0.144982
C15   C     C_R   0.222480 0.749265 0.801684 -0.084594
C16   C     C_R   0.627923 0.228603 0.602738 0.530860
C17   C     C_R   0.207327 0.423813 0.833097 -0.098924
C18   C     C_R   0.196584 0.320284 0.795173 -0.151160
C19   C     C_R   0.172131 0.334454 0.722561 -0.148513
C20   C     C_R   0.166556 0.448106 0.686867 -0.115121
C21   C     C_R   0.205887 0.653442 0.687622 -0.009530
C22   C     C_R   0.687155 0.702550 0.178950 0.028982
C23   C     C_3   0.700029 0.674951 0.811750 0.025807
C24   C     C_R   0.735924 0.743641 0.239134 -0.065921
C25   C     C_R   0.715818 0.705820 0.308025 -0.006317
C26   C     C_R   0.588984 0.599557 0.256621 -0.168977
C27   C     C_R   0.611867 0.632108 0.188429 0.267536
C28   C     C_R   0.295225 0.617409 0.393389 0.561098
C29   C     C_R   0.801286 0.824256 0.232976 -0.143537
C30   C     C_R   0.846062 0.864430 0.293624 -0.052274
C31   C     C_R   0.833255 0.822809 0.361113 0.256886
C32   C     C_R   0.768527 0.742101 0.368090 -0.085532
C33   C     C_R   0.641315 0.634312 0.315703 -0.037231
C34   C     C_3   0.668356 0.650077 0.676103 0.036385
C35   C     C_R   0.620360 0.202495 0.167680 0.026860
C36   C     C_R   0.522502 0.188519 0.210301 0.013803
C37   C     C_R   0.553341 0.158915 0.282193 0.019144
C38   C     C_R   0.707656 0.253653 0.274509 -0.156301
C39   C     C_R   0.703845 0.248215 0.200324 -0.065299
C40   C     C_R   0.620111 0.591983 0.385167 0.501168
C41   C     C_R   0.412759 0.173984 0.182063 -0.090971
C42   C     C_R   0.378140 0.082350 0.214306 -0.117609
C43   C     C_R   0.438156 0.023964 0.279044 -0.130695
C44   C     C_R   0.511274 0.073542 0.316383 -0.083280
C45   C     C_3   0.817493 0.621527 0.689600 -0.246622
C46   C     C_R   0.635464 0.204288 0.316102 -0.007616
C47   C     C_R   0.137767 0.688091 0.187106 -0.000417
C48   C     C_R   0.143915 0.797660 0.226457 0.031271
C49   C     C_R   0.232147 0.759029 0.283802 -0.015504
C50   C     C_R   0.255949 0.524242 0.280986 -0.146153
C51   C     C_R   0.195759 0.551839 0.214381 -0.164397
C52   C     C_R   0.613800 0.236878 0.392331 0.529486
C53   C     C_R   0.059005 0.946220 0.213900 0.371619
C54   C     C_R   0.074839 0.047383 0.250498 -0.088998
C55   C     C_R   0.175974 0.004561 0.300722 -0.184652
C56   C     C_3   0.644606 0.543493 0.720136 -0.227049
C57   C     C_R   0.261226 0.860957 0.312766 -0.121862
C58   C     C_R   0.269860 0.628949 0.317145 -0.005312
C59   C     C_R   0.702906 0.102550 0.896378 0.541527
C60   C     C_R   0.725060 0.688197 0.887736 0.610621
C61   C     C_R   0.122454 0.702176 0.906774 0.537188
C62   C     C_R   0.668526 0.118037 0.100609 0.561480
C63   C     C_R   0.727963 0.716847 0.106527 0.572932
C64   C     C_3   0.576289 0.816397 0.782494 -0.168396
C65   C     C_R   0.080577 0.717589 0.116111 0.546491
C66   C     C_3   0.560838 0.803093 0.701860 0.224344
C67   C     C_R   0.689365 0.161612 0.824791 0.016610
C68   C     C_3   0.834209 0.641441 0.769048 -0.289542
C69   C     C_3   0.436861 0.682471 0.109900 -0.070869
C70   C     C_3   0.815622 0.883811 0.482108 -0.077000
C71   C     C_R   0.804754 0.142369 0.782205 0.018818
C72   C     C_R   0.794233 0.142263 0.706678 0.008445
Cr1   Cr    Cr6+3 0.392940 0.397950 0.502230 1.012920
Cr2   Cr    Cr6+3 0.398400 0.708500 0.501260 1.009564
Cr3   Cr    Cr6+3 0.708640 0.393530 0.496460 1.000375
Cr4   Cr    Cr6+3 0.937880 0.938320 0.007620 1.039944
Cr5   Cr    Cr6+3 0.625560 0.937220 0.994510 0.999832
Cr6   Cr    Cr6+3 0.938080 0.625010 0.001190 1.010931
F1    F     F_    0.938481 0.997665 0.180557 -0.670686
F2    F     F_    0.581678 0.900841 0.665742 -0.666665
F3    F     F_    0.552153 0.579197 0.839177 -0.657713
H1    H     H_    0.594987 0.905695 0.792861 0.173301
H2    H     H_    0.915932 0.089173 0.607436 0.136225
H3    H     H_    0.253011 0.820879 0.703672 0.126579
H4    H     H_    0.476622 0.843078 0.810312 0.122770
H5    H     H_    0.229988 0.406703 0.889155 0.134532
H6    H     H_    0.231497 0.830339 0.830503 0.144550
H7    H     H_    0.207055 0.229667 0.822809 0.107466
H8    H     H_    0.159098 0.256598 0.693381 0.127103
H9    H     H_    0.140472 0.457057 0.631313 0.140986
H10   H     H_    0.533434 0.542890 0.263173 0.113435
H11   H     H_    0.812263 0.861591 0.181836 0.166383
H12   H     H_    0.717623 0.432691 0.701527 0.125187
H13   H     H_    0.884055 0.936256 0.290432 0.193661
H14   H     H_    0.452585 0.827768 0.691412 0.130331
H15   H     H_    0.757041 0.711018 0.420651 0.153851
H16   H     H_    0.769182 0.293383 0.299092 0.141437
H17   H     H_    0.367259 0.217881 0.131176 0.131878
H18   H     H_    0.773317 0.269266 0.168846 0.179115
H19   H     H_    0.313020 0.050160 0.187063 0.118680
H20   H     H_    0.434360 0.937054 0.300328 0.118325
H21   H     H_    0.548110 0.031595 0.368625 0.132038
H22   H     H_    0.287613 0.423171 0.305106 0.154698
H23   H     H_    0.924926 0.542795 0.788792 0.157828
H24   H     H_    0.189023 0.469360 0.185644 0.131766
H25   H     H_    0.005280 0.159346 0.241568 0.126611
H26   H     H_    0.187972 0.082554 0.330727 0.133411
H27   H     H_    0.342452 0.832519 0.350167 0.169190
H28   H     H_    0.857293 0.728544 0.776602 0.143367
H29   H     H_    0.838961 0.693704 0.657759 0.168520
H30   H     H_    0.759490 0.451966 0.817184 0.145601
H31   H     H_    0.536480 0.564287 0.712072 0.156120
H32   H     H_    0.378938 0.626905 0.098165 0.138561
H33   H     H_    0.442648 0.732426 0.059998 0.172594
H34   H     H_    0.895501 0.510835 0.673100 0.134049
H35   H     H_    0.374727 0.767772 0.150286 0.091400
H36   H     H_    0.848933 0.781152 0.508255 0.125464
H37   H     H_    0.700078 0.945652 0.475327 0.122437
H38   H     H_    0.842669 0.946662 0.518315 0.149064
H39   H     H_    0.449711 0.235953 0.698822 0.182601
H40   H     H_    0.939616 0.137447 0.867800 0.149150
H41   H     H_    0.471926 0.219898 0.822866 0.149425
H42   H     H_    0.139151 0.078166 0.791607 0.093871
H43   H     H_    0.126132 0.059623 0.661526 0.115863
O1    O     O_R   0.507340 0.255690 0.581430 -0.503329
O2    O     O_R   0.837290 0.593240 0.915240 -0.522571
O3    O     O_R   0.065320 0.635310 0.931580 -0.519968
O4    O     O_R   0.280360 0.527380 0.578910 -0.505045
O5    O     O_R   0.068470 0.828620 0.091850 -0.467641
O6    O     O_R   0.799150 0.057200 0.079350 -0.418877
O7    O     O_R   0.585220 0.080180 0.076770 -0.549741
O8    O     O_R   0.627170 0.809480 0.067050 -0.498092
O9    O     O_R   0.816200 0.596410 0.076500 -0.477345
O10   O     O_R   0.045770 0.638240 0.081070 -0.535116
O11   O     O_3   0.833840 0.833520 0.001110 -0.281828
O12   O     O_R   0.524510 0.695820 0.424050 -0.546862
O13   O     O_R   0.260600 0.739610 0.584580 -0.522001
O14   O     O_R   0.532370 0.695050 0.573830 -0.486970
O15   O     O_R   0.744850 0.503430 0.576380 -0.534506
O16   O     O_R   0.699080 0.276500 0.571950 -0.518096
O17   O     O_R   0.498860 0.256520 0.419860 -0.537968
O18   O     O_R   0.272490 0.528150 0.429140 -0.482996
O19   O     O_R   0.252110 0.740440 0.423010 -0.492450
O20   O     O_3   0.573476 0.580600 0.130799 -0.555233
O21   O     O_3   0.889346 0.861465 0.417166 -0.552652
O22   O     O_R   0.736370 0.504260 0.414810 -0.511726
O23   O     O_R   0.691220 0.277270 0.422180 -0.505572
O24   O     O_3   0.499990 0.499990 0.499980 -0.294512
O25   O     O_R   0.089570 0.825450 0.930590 -0.525984
O26   O     O_R   0.818700 0.054260 0.929860 -0.513874
O27   O     O_R   0.606310 0.077010 0.915520 -0.539884
O28   O     O_R   0.646730 0.806540 0.917560 -0.502123

loop_
_geom_bond_atom_site_label_1
_geom_bond_atom_site_label_2
_ccdc_geom_bond_type
Cr2   O19   S    
C69   H35   S    
C34   C56   S    
C46   C52   S    
C8    H2    S    
C41   C42   A    
C62   O6    A    
C19   C20   A    
C1    O4    A    
C14   H3    S    
C7    H43   S    
Cr5   O27   S    
C7    C8    A    
Cr1   O17   S    
C53   C54   A    
C69   O20   S    
C1    C21   S    
Cr2   O14   S    
C12   C23   S    
C69   H32   S    
C26   C27   A    
C63   O9    A    
C14   C21   A    
Cr2   O24   S    
C36   C37   A    
C53   F1    S    
C9    C16   S    
Cr3   O16   S    
C60   O28   A    
C30   C31   A    
C70   H36   S    
C5    H40   S    
C49   C57   A    
C18   C19   A    
Cr5   O7    S    
C56   H12   S    
C24   C29   A    
C59   C67   S    
C22   C63   S    
Cr4   O6    S    
C11   C17   A    
C47   C48   A    
Cr2   O12   S    
C9    C72   A    
Cr6   O11   S    
C65   O10   A    
C3    H41   S    
C25   C32   A    
C50   H22   S    
C34   C66   S    
C36   C41   A    
C23   C60   S    
C6    H42   S    
C38   H16   S    
Cr6   O3    S    
Cr5   O28   S    
Cr4   O11   S    
C50   C51   A    
Cr1   O18   S    
Cr3   O22   S    
C48   C53   A    
Cr2   O13   S    
C4    C34   S    
C69   H33   S    
C8    C72   A    
C33   C40   S    
C54   H25   S    
Cr1   O24   S    
C17   H5    S    
C50   C58   A    
C38   C39   A    
C24   C25   A    
C34   C45   S    
C44   H21   S    
C45   H29   S    
C47   C51   A    
Cr3   O23   S    
C26   H10   S    
C20   H9    S    
C18   H7    S    
C49   C58   A    
C55   H26   S    
Cr5   O8    S    
C64   C66   S    
C23   C68   S    
C35   C39   A    
C43   C44   A    
C43   H20   S    
C29   C30   A    
C19   H8    S    
C42   H19   S    
C40   O12   A    
Cr4   O5    S    
C45   H34   S    
C26   C33   A    
C39   H18   S    
C31   C32   A    
Cr4   O26   S    
C70   H38   S    
C51   H24   S    
C45   C68   S    
C17   C18   A    
C13   C21   A    
C61   O3    A    
C28   O19   A    
C63   O8    A    
Cr6   O10   S    
C64   H1    S    
C12   C56   S    
C70   O21   S    
C23   C64   S    
C32   H15   S    
C52   O23   A    
C59   O27   A    
C22   C27   A    
C55   C57   A    
C22   C24   A    
C10   C61   S    
C28   O18   A    
C42   C43   A    
Cr6   O2    S    
C64   H4    S    
C16   O16   A    
C1    O13   A    
C15   H6    S    
C16   O1    A    
C59   O26   A    
C54   C55   A    
C48   C49   A    
C2    H39   S    
C13   C20   A    
C14   C15   A    
C62   O7    A    
C3    C67   A    
C68   H23   S    
C65   O5    A    
C6    C7    A    
C28   C58   S    
Cr3   O24   S    
Cr1   O4    S    
C66   F2    S    
C52   O17   A    
C40   O22   A    
C10   C15   A    
C37   C44   A    
C60   O2    A    
C2    C3    A    
C71   C72   A    
C30   H13   S    
Cr3   O15   S    
C4    O15   A    
C11   C13   A    
C27   O20   S    
C5    C6    A    
Cr4   O25   S    
C70   H37   S    
Cr1   O1    S    
C47   C65   S    
C12   F3    S    
C35   C62   S    
C67   C71   A    
C68   H28   S    
C12   H30   S    
Cr6   O9    S    
C38   C46   A    
C10   C11   A    
C4    O14   A    
C31   O21   S    
C57   H27   S    
C5    C71   A    
C41   H17   S    
C35   C36   A    
Cr5   O11   S    
C37   C46   A    
C2    C9    A    
C61   O25   A    
C56   H31   S    
C29   H11   S    
C25   C33   A    
C66   H14   S    
