data_mof_unit_21064.cif
_audit_creation_date              2012-12-10T17:56:11-0500
_audit_creation_method            fapswitch 2.2
_symmetry_space_group_name_H-M    P1
_symmetry_Int_Tables_number       1
_space_group_crystal_system       triclinic
_cell_length_a                    21.915755
_cell_length_b                    21.916043
_cell_length_c                    21.922888
_cell_angle_alpha                 89.981811
_cell_angle_beta                  90.140105
_cell_angle_gamma                 90.017973
_cell_volume                      10529.6759052

loop_
_atom_site_label
_atom_site_type_symbol
_atom_type_description
_atom_site_fract_x
_atom_site_fract_y
_atom_site_fract_z
_atom_type_partial_charge
C1    C     C_R   0.499995 0.120100 0.000029 1.098748
C2    C     C_R   0.879896 0.499927 0.999408 1.097973
C3    C     C_R   0.999419 0.499933 0.120113 1.098366
C4    C     C_R   0.120105 0.499930 0.000560 1.098313
C5    C     C_R   0.000005 0.620130 0.500010 1.089769
C6    C     C_R   0.999971 0.500417 0.620093 1.096434
C7    C     C_R   0.999981 0.379896 0.499997 1.094474
C8    C     C_R   0.000016 0.500484 0.379914 1.100580
C9    C     C_R   0.620090 0.500657 0.000105 1.106213
C10   C     C_R   0.499992 0.379916 0.000009 1.106038
C11   C     C_R   0.379911 0.500650 0.999895 1.106500
C12   C     C_R   0.500138 0.999363 0.120114 1.096326
C13   C     C_R   0.500000 0.620095 0.999991 1.106588
C14   C     C_R   0.499568 0.000098 0.379905 1.096517
C15   C     C_R   0.379884 0.999957 0.500140 1.092646
C16   C     C_R   0.500492 0.000073 0.620088 1.100653
C17   C     C_R   0.620117 0.999981 0.499850 1.091657
C18   C     C_R   0.538156 0.042233 0.217972 0.286669
C19   C     C_R   0.538588 0.782030 0.042002 0.286552
C20   C     C_R   0.536870 0.956601 0.781884 0.307948
C21   C     C_R   0.537070 0.218148 0.957144 0.305238
C22   C     C_R   0.463184 0.956605 0.218151 0.306205
C23   C     C_R   0.499993 0.879890 0.000004 1.097871
C24   C     C_R   0.462761 0.218101 0.042867 0.306315
C25   C     C_R   0.461919 0.042171 0.781957 0.287368
C26   C     C_R   0.461401 0.782036 0.957979 0.285275
C27   C     C_R   0.042146 0.782157 0.461746 0.296974
C28   C     C_R   0.782045 0.958047 0.460968 0.299046
C29   C     C_R   0.958218 0.217874 0.460906 0.299619
C30   C     C_R   0.217839 0.041910 0.461696 0.296164
C31   C     C_R   0.957927 0.782114 0.538434 0.296917
C32   C     C_R   0.217908 0.958153 0.539237 0.299647
C33   C     C_R   0.041805 0.217908 0.538884 0.298365
C34   C     C_R   0.499869 0.999378 0.879885 1.098437
C35   C     C_R   0.782192 0.042065 0.538124 0.296819
C36   C     C_R   0.781802 0.537610 0.957058 0.305991
C37   C     C_R   0.956603 0.537020 0.218084 0.307430
C38   C     C_R   0.218225 0.537463 0.042975 0.305469
C39   C     C_R   0.043371 0.537007 0.781885 0.305751
C40   C     C_R   0.782124 0.461733 0.041883 0.284794
C41   C     C_R   0.957731 0.462046 0.781997 0.286722
C42   C     C_R   0.217861 0.461725 0.958100 0.286477
C43   C     C_R   0.042189 0.462089 0.218074 0.287397
C44   C     C_R   0.037983 0.542386 0.718159 0.320311
C45   C     C_R   0.120086 0.000011 0.500100 1.089747
C46   C     C_R   0.038447 0.282087 0.542180 0.241654
C47   C     C_R   0.038518 0.458266 0.282238 0.311802
C48   C     C_R   0.038586 0.718045 0.458173 0.247867
C49   C     C_R   0.961245 0.458325 0.717835 0.238107
C50   C     C_R   0.961457 0.717988 0.541953 0.248622
C51   C     C_R   0.961993 0.542432 0.281814 0.317478
C52   C     C_R   0.961463 0.282088 0.457748 0.245800
C53   C     C_R   0.542577 0.281926 0.962616 0.311346
C54   C     C_R   0.282053 0.458127 0.961743 0.314375
C55   C     C_R   0.457835 0.717908 0.961570 0.311947
C56   C     C_R   0.000007 0.879922 0.500016 1.089795
C57   C     C_R   0.718063 0.542989 0.962453 0.310047
C58   C     C_R   0.457322 0.281901 0.037416 0.312084
C59   C     C_R   0.717931 0.458147 0.038266 0.313567
C60   C     C_R   0.542174 0.717911 0.038381 0.311792
C61   C     C_R   0.281950 0.542903 0.037561 0.309987
C62   C     C_R   0.281935 0.038327 0.458167 0.247429
C63   C     C_R   0.458208 0.038602 0.717757 0.311420
C64   C     C_R   0.718100 0.038476 0.541697 0.246956
C65   C     C_R   0.541746 0.038836 0.282173 0.237966
C66   C     C_R   0.282141 0.961380 0.542401 0.246390
C67   C     C_R   0.879915 0.000002 0.499901 1.089947
C68   C     C_R   0.457688 0.962095 0.281827 0.320681
C69   C     C_R   0.717839 0.961362 0.457677 0.242135
C70   C     C_R   0.542377 0.962081 0.718197 0.317737
C71   C     C_R   0.499501 0.000487 0.313623 -0.366335
C72   C     C_R   0.500006 0.686441 0.999975 -0.386622
C73   C     C_R   0.500529 0.000387 0.686360 -0.382507
C74   C     C_R   0.499971 0.313694 0.000025 -0.390151
C75   C     C_R   0.000013 0.686534 0.500045 -0.350801
C76   C     C_R   0.686498 0.999909 0.499741 -0.347913
C77   C     C_R   0.999933 0.313547 0.499991 -0.348813
C78   C     C_R   0.000014 0.120094 0.499982 1.089918
C79   C     C_R   0.313510 0.999829 0.500220 -0.351441
C80   C     C_R   0.686382 0.500803 0.000429 -0.388236
C81   C     C_R   0.000246 0.500527 0.313644 -0.382535
C82   C     C_R   0.313620 0.500771 0.999573 -0.388759
C83   C     C_R   0.999673 0.500491 0.686373 -0.366245
C84   C     C_R   0.000687 0.499617 0.813572 -0.380915
C85   C     C_R   0.999999 0.186434 0.499933 -0.368012
C86   C     C_R   0.999280 0.499623 0.186428 -0.390681
C87   C     C_R   0.000021 0.813612 0.500064 -0.367684
C88   C     C_R   0.499956 0.186333 0.000030 -0.388706
C89   C     C_R   0.000586 0.499942 0.879888 1.096240
C90   C     C_R   0.186400 0.499622 0.000672 -0.386095
C91   C     C_R   0.499984 0.813546 0.000002 -0.383993
C92   C     C_R   0.813603 0.499649 0.999300 -0.385764
C93   C     C_R   0.186412 0.000006 0.500357 -0.367611
C94   C     C_R   0.499450 0.999239 0.813570 -0.390537
C95   C     C_R   0.813590 0.000026 0.499644 -0.368001
C96   C     C_R   0.500599 0.999249 0.186431 -0.380775
H1    H     H_    0.618858 0.189345 0.192465 0.407951
H2    H     H_    0.806199 0.812655 0.377135 0.400594
H3    H     H_    0.814320 0.192902 0.373784 0.407844
H4    H     H_    0.194048 0.188495 0.379899 0.404309
H5    H     H_    0.811203 0.805779 0.619453 0.400879
H6    H     H_    0.193065 0.814211 0.625908 0.400588
H7    H     H_    0.187095 0.193604 0.623417 0.404023
H8    H     H_    0.806138 0.188846 0.619458 0.408438
H9    H     H_    0.810169 0.560413 0.794104 0.405070
H10   H     H_    0.793163 0.556330 0.188992 0.401126
H11   H     H_    0.190207 0.560074 0.205997 0.406764
H12   H     H_    0.619313 0.806043 0.189152 0.406023
H13   H     H_    0.206833 0.556292 0.810955 0.401222
H14   H     H_    0.806493 0.381163 0.188966 0.407652
H15   H     H_    0.810419 0.381669 0.807322 0.403927
H16   H     H_    0.193480 0.381204 0.811044 0.405481
H17   H     H_    0.190236 0.383446 0.194086 0.398725
H18   H     H_    0.166238 0.643778 0.679232 0.397601
H19   H     H_    0.050851 0.285243 0.682876 0.361986
H20   H     H_    0.176237 0.399913 0.357675 0.395278
H21   H     H_    0.052715 0.717856 0.317911 0.399035
H22   H     H_    0.947906 0.318094 0.716555 0.361233
H23   H     H_    0.555944 0.793112 0.810502 0.399665
H24   H     H_    0.947161 0.717311 0.682349 0.399281
H25   H     H_    0.833805 0.643852 0.320642 0.397390
H26   H     H_    0.951936 0.286537 0.317297 0.389302
H27   H     H_    0.647754 0.319740 0.836995 0.398425
H28   H     H_    0.357512 0.398772 0.824902 0.393566
H29   H     H_    0.398455 0.641697 0.824802 0.393520
H30   H     H_    0.679901 0.648285 0.836645 0.397692
H31   H     H_    0.352237 0.319631 0.163091 0.396031
H32   H     H_    0.642552 0.398785 0.175207 0.395689
H33   H     H_    0.601621 0.641572 0.175078 0.393632
H34   H     H_    0.559293 0.190015 0.794092 0.407352
H35   H     H_    0.320165 0.648179 0.163322 0.397652
H36   H     H_    0.282021 0.052130 0.317858 0.399188
H37   H     H_    0.399903 0.176381 0.642579 0.395649
H38   H     H_    0.718324 0.052290 0.681906 0.398704
H39   H     H_    0.682109 0.052185 0.284138 0.361065
H40   H     H_    0.286892 0.951759 0.682855 0.389512
H41   H     H_    0.356439 0.833724 0.320809 0.396868
H42   H     H_    0.714163 0.948603 0.316917 0.361973
H43   H     H_    0.643732 0.833850 0.679298 0.396908
H44   H     H_    0.444213 0.793091 0.189616 0.399807
H45   H     H_    0.440485 0.189482 0.205847 0.404769
H46   H     H_    0.382930 0.190013 0.806102 0.402612
H47   H     H_    0.380716 0.806130 0.810811 0.407055
H48   H     H_    0.189025 0.805991 0.380980 0.400723
O1    O     O_R   0.448310 0.091640 0.999960 -0.567742
O2    O     O_R   0.000040 0.908360 0.551690 -0.562988
O3    O     O_2   0.887805 0.638489 0.191499 -0.179186
O4    O     O_2   0.887122 0.561246 0.114284 -0.307538
O5    O     O_3   0.827959 0.538302 0.211603 -0.436403
O6    O     O_2   0.191903 0.640086 0.109602 -0.178846
O7    O     O_2   0.114603 0.562759 0.112210 -0.304876
O8    O     O_3   0.212327 0.541071 0.171529 -0.439493
O9    O     O_2   0.112266 0.638471 0.808396 -0.178799
O10   O     O_2   0.112883 0.561241 0.885666 -0.307462
O11   O     O_3   0.172020 0.538271 0.788357 -0.437607
O12   O     O_2   0.832914 0.354052 0.072798 -0.199140
O13   O     O_R   0.908360 0.999960 0.551690 -0.563244
O14   O     O_2   0.882983 0.442933 0.115181 -0.300098
O15   O     O_3   0.783683 0.411396 0.164243 -0.430902
O16   O     O_2   0.926900 0.355422 0.834957 -0.232419
O17   O     O_2   0.884025 0.445395 0.882167 -0.298370
O18   O     O_3   0.835232 0.411010 0.783565 -0.411299
O19   O     O_2   0.167020 0.354048 0.927223 -0.200815
O20   O     O_2   0.117006 0.442934 0.884798 -0.301732
O21   O     O_3   0.216309 0.411418 0.835770 -0.432690
O22   O     O_2   0.074282 0.354917 0.167142 -0.207558
O23   O     O_2   0.115575 0.444472 0.117528 -0.300252
O24   O     O_R   0.999960 0.091640 0.551690 -0.563561
O25   O     O_3   0.165122 0.413221 0.216933 -0.431831
O26   O     O_2   0.062485 0.612476 0.614822 -0.303639
O27   O     O_2   0.052347 0.664068 0.710879 -0.252615
O28   O     O_3   0.151104 0.602324 0.689009 -0.438018
O29   O     O_2   0.146127 0.334060 0.571383 -0.160113
O30   O     O_2   0.058124 0.383238 0.615335 -0.318700
O31   O     O_3   0.091941 0.284658 0.664186 -0.432240
O32   O     O_2   0.056834 0.383996 0.382494 -0.322596
O33   O     O_2   0.091245 0.344199 0.287105 -0.203082
O34   O     O_3   0.152881 0.432678 0.337034 -0.459753
O35   O     O_R   0.908360 0.000040 0.448310 -0.563360
O36   O     O_2   0.145137 0.663815 0.429821 -0.162756
O37   O     O_2   0.055883 0.617971 0.383937 -0.308321
O38   O     O_3   0.093701 0.716073 0.336912 -0.420625
O39   O     O_2   0.853688 0.429744 0.665256 -0.153709
O40   O     O_2   0.941732 0.384475 0.617278 -0.318372
O41   O     O_3   0.906852 0.336959 0.716163 -0.428592
O42   O     O_2   0.854854 0.663711 0.570163 -0.162386
O43   O     O_2   0.944052 0.617783 0.616046 -0.310314
O44   O     O_3   0.906231 0.715734 0.663210 -0.421060
O45   O     O_2   0.937474 0.612479 0.385124 -0.303857
O46   O     O_R   0.999960 0.908360 0.448310 -0.563131
O47   O     O_2   0.947738 0.664112 0.289052 -0.252388
O48   O     O_3   0.848905 0.602400 0.310869 -0.436850
O49   O     O_2   0.853254 0.332261 0.427237 -0.149126
O50   O     O_2   0.940752 0.383817 0.385248 -0.307203
O51   O     O_3   0.910448 0.284795 0.335087 -0.428448
O52   O     O_2   0.612397 0.385476 0.937845 -0.297348
O53   O     O_2   0.664466 0.289964 0.952159 -0.193064
O54   O     O_3   0.605947 0.309632 0.850805 -0.444481
O55   O     O_2   0.382320 0.384171 0.944494 -0.305319
O56   O     O_2   0.287025 0.343549 0.910151 -0.168818
O57   O     O_R   0.091640 0.999960 0.448310 -0.563199
O58   O     O_3   0.336548 0.431600 0.847756 -0.477948
O59   O     O_2   0.383827 0.617628 0.944324 -0.309332
O60   O     O_2   0.343210 0.712759 0.909725 -0.164108
O61   O     O_3   0.431195 0.663048 0.847578 -0.472911
O62   O     O_2   0.614375 0.612529 0.937352 -0.300364
O63   O     O_2   0.709709 0.664886 0.951927 -0.189941
O64   O     O_3   0.690288 0.606530 0.850523 -0.443367
O65   O     O_2   0.387692 0.385503 0.062345 -0.297607
O66   O     O_2   0.335443 0.290106 0.047856 -0.193258
O67   O     O_3   0.394008 0.309448 0.149255 -0.445879
O68   O     O_R   0.000040 0.091640 0.448310 -0.562143
O69   O     O_2   0.617609 0.384194 0.055642 -0.305044
O70   O     O_2   0.712900 0.343565 0.089925 -0.167406
O71   O     O_3   0.663491 0.431623 0.152305 -0.476525
O72   O     O_2   0.616205 0.617679 0.055542 -0.309441
O73   O     O_2   0.656823 0.712802 0.090179 -0.164176
O74   O     O_3   0.568877 0.662948 0.152338 -0.472863
O75   O     O_2   0.385582 0.612601 0.062483 -0.300495
O76   O     O_2   0.290145 0.664800 0.048117 -0.189750
O77   O     O_3   0.309841 0.606405 0.149463 -0.444499
O78   O     O_2   0.335986 0.144943 0.429375 -0.167084
O79   O     O_R   0.000040 0.448310 0.908360 -0.562395
O80   O     O_2   0.381992 0.055750 0.383987 -0.309322
O81   O     O_3   0.283803 0.093177 0.336615 -0.420052
O82   O     O_2   0.384056 0.056973 0.617333 -0.322516
O83   O     O_2   0.344121 0.091307 0.712652 -0.203308
O84   O     O_3   0.432661 0.153004 0.663227 -0.459375
O85   O     O_2   0.664054 0.145053 0.570454 -0.152633
O86   O     O_2   0.618137 0.055827 0.615993 -0.309298
O87   O     O_3   0.716421 0.093351 0.663166 -0.419710
O88   O     O_2   0.570311 0.146393 0.334531 -0.154315
O89   O     O_2   0.615493 0.058315 0.382909 -0.318436
O90   O     O_R   0.908360 0.448310 0.999960 -0.562405
O91   O     O_3   0.663154 0.093199 0.284163 -0.428359
O92   O     O_2   0.332460 0.853208 0.572631 -0.159283
O93   O     O_2   0.383981 0.940777 0.614845 -0.306317
O94   O     O_3   0.285109 0.910295 0.664922 -0.428795
O95   O     O_2   0.387522 0.937532 0.385027 -0.303718
O96   O     O_2   0.336018 0.947574 0.288721 -0.251927
O97   O     O_3   0.397880 0.848916 0.311136 -0.438405
O98   O     O_2   0.665650 0.853712 0.428966 -0.155298
O99   O     O_2   0.616543 0.941763 0.384600 -0.319673
O100  O     O_3   0.714906 0.907607 0.335918 -0.432843
O101  O     O_R   0.999960 0.448310 0.091640 -0.562850
O102  O     O_2   0.612512 0.937584 0.615003 -0.303864
O103  O     O_2   0.664054 0.947744 0.711283 -0.251673
O104  O     O_3   0.602285 0.848979 0.688989 -0.437876
O105  O     O_R   0.448310 0.000040 0.091640 -0.568237
O106  O     O_R   0.091640 0.448310 0.000040 -0.562695
O107  O     O_R   0.000040 0.551690 0.091640 -0.568338
O108  O     O_R   0.908360 0.551690 0.000040 -0.566618
O109  O     O_R   0.999960 0.551690 0.908360 -0.568399
O110  O     O_R   0.091640 0.551690 0.999960 -0.566737
O111  O     O_R   0.948310 0.591640 0.499960 -0.564359
O112  O     O_R   0.948310 0.500040 0.591640 -0.561315
O113  O     O_R   0.948310 0.408360 0.500040 -0.560427
O114  O     O_R   0.948310 0.499960 0.408360 -0.563881
O115  O     O_R   0.051690 0.408360 0.499960 -0.567549
O116  O     O_R   0.448310 0.908360 0.000040 -0.561780
O117  O     O_R   0.051690 0.499960 0.591640 -0.563360
O118  O     O_R   0.051690 0.591640 0.500040 -0.564288
O119  O     O_R   0.051690 0.500040 0.408360 -0.559621
O120  O     O_R   0.591640 0.500040 0.051690 -0.568662
O121  O     O_R   0.500040 0.408360 0.051690 -0.571631
O122  O     O_R   0.408360 0.499960 0.051690 -0.566349
O123  O     O_R   0.499960 0.591640 0.051690 -0.563190
O124  O     O_R   0.408360 0.500040 0.948310 -0.568563
O125  O     O_R   0.499960 0.408360 0.948310 -0.572036
O126  O     O_R   0.591640 0.499960 0.948310 -0.565917
O127  O     O_R   0.448310 0.999960 0.908360 -0.562898
O128  O     O_R   0.500040 0.591640 0.948310 -0.563116
O129  O     O_R   0.500040 0.948310 0.408360 -0.562737
O130  O     O_R   0.408360 0.948310 0.499960 -0.563874
O131  O     O_R   0.499960 0.948310 0.591640 -0.563813
O132  O     O_R   0.591640 0.948310 0.500040 -0.562684
O133  O     O_R   0.500040 0.051690 0.591640 -0.559752
O134  O     O_R   0.408360 0.051690 0.500040 -0.569182
O135  O     O_R   0.499960 0.051690 0.408360 -0.561865
O136  O     O_R   0.591640 0.051690 0.499960 -0.560969
O137  O     O_2   0.644961 0.072800 0.165445 -0.233107
O138  O     O_R   0.551690 0.908360 0.999960 -0.561725
O139  O     O_2   0.555224 0.115770 0.117520 -0.297297
O140  O     O_3   0.589358 0.164639 0.216122 -0.410526
O141  O     O_2   0.646329 0.832795 0.073010 -0.199244
O142  O     O_2   0.557526 0.882775 0.115298 -0.302167
O143  O     O_3   0.589039 0.783307 0.164391 -0.431919
O144  O     O_2   0.638218 0.887636 0.808543 -0.180775
O145  O     O_2   0.560905 0.887018 0.885528 -0.307961
O146  O     O_3   0.537953 0.827955 0.787970 -0.437098
O147  O     O_2   0.639503 0.191674 0.890515 -0.179920
O148  O     O_2   0.562066 0.114492 0.887786 -0.304666
O149  O     O_R   0.551690 0.999960 0.091640 -0.562486
O150  O     O_3   0.540404 0.212199 0.828588 -0.439518
O151  O     O_2   0.361869 0.887491 0.191556 -0.180573
O152  O     O_2   0.439146 0.887002 0.114541 -0.307919
O153  O     O_3   0.462188 0.827955 0.212123 -0.437536
O154  O     O_2   0.360173 0.191835 0.109461 -0.180518
O155  O     O_2   0.437180 0.114314 0.112004 -0.303727
O156  O     O_3   0.459384 0.211767 0.171400 -0.440972
O157  O     O_2   0.354576 0.074007 0.832520 -0.208300
O158  O     O_2   0.443894 0.115382 0.882752 -0.299120
O159  O     O_3   0.412884 0.165022 0.783368 -0.430970
O160  O     O_R   0.551690 0.091640 0.000040 -0.567539
O161  O     O_2   0.353670 0.832762 0.926953 -0.197596
O162  O     O_2   0.442494 0.882821 0.884700 -0.300572
O163  O     O_3   0.410981 0.783388 0.835574 -0.431694
O164  O     O_2   0.073111 0.834220 0.354734 -0.230868
O165  O     O_2   0.116153 0.882632 0.444048 -0.302212
O166  O     O_3   0.164536 0.783385 0.411463 -0.416799
O167  O     O_2   0.833022 0.929050 0.352992 -0.236732
O168  O     O_2   0.883055 0.885021 0.440943 -0.296971
O169  O     O_3   0.783949 0.836219 0.408571 -0.413284
O170  O     O_2   0.930931 0.166051 0.352688 -0.230701
O171  O     O_R   0.551690 0.000040 0.908360 -0.568248
O172  O     O_2   0.885275 0.116824 0.440118 -0.297436
O173  O     O_3   0.837048 0.215359 0.405806 -0.405451
O174  O     O_2   0.165745 0.072544 0.354397 -0.230323
O175  O     O_2   0.117327 0.115900 0.443309 -0.300100
O176  O     O_3   0.216581 0.164179 0.410677 -0.416063
O177  O     O_2   0.927198 0.833733 0.645684 -0.230767
O178  O     O_2   0.884132 0.882698 0.556693 -0.300671
O179  O     O_3   0.835602 0.783325 0.588812 -0.416449
O180  O     O_2   0.166361 0.930862 0.647407 -0.228705
O181  O     O_2   0.116852 0.885298 0.559889 -0.296976
O182  O     O_R   0.091640 0.000040 0.551690 -0.562048
O183  O     O_3   0.215480 0.836988 0.593988 -0.414981
O184  O     O_2   0.070738 0.166496 0.646913 -0.236116
O185  O     O_2   0.115003 0.116948 0.559051 -0.296469
O186  O     O_3   0.163602 0.215934 0.591858 -0.412779
O187  O     O_2   0.834591 0.072970 0.645181 -0.232884
O188  O     O_2   0.882636 0.116185 0.555939 -0.302511
O189  O     O_3   0.783483 0.164425 0.588857 -0.407325
O190  O     O_2   0.807897 0.640430 0.890471 -0.178743
O191  O     O_2   0.885519 0.563520 0.888021 -0.303897
O192  O     O_3   0.787996 0.541353 0.828526 -0.440067
S1    S     S_3+6 0.582650 0.098774 0.177395 0.130642
S2    S     S_3+6 0.822465 0.902247 0.415208 0.133842
S3    S     S_3+6 0.903019 0.177160 0.414264 0.137828
S4    S     S_3+6 0.177399 0.098497 0.416813 0.133772
S5    S     S_3+6 0.901354 0.822453 0.583115 0.132883
S6    S     S_3+6 0.177276 0.902978 0.585748 0.136315
S7    S     S_3+6 0.097627 0.177386 0.584834 0.134792
S8    S     S_3+6 0.822689 0.098786 0.582740 0.134048
S9    S     S_3+6 0.818323 0.572747 0.891716 0.141014
S10   S     S_3+6 0.890519 0.570819 0.181408 0.140729
S11   S     S_3+6 0.181743 0.572354 0.108401 0.140986
S12   S     S_3+6 0.583588 0.822297 0.098544 0.140905
S13   S     S_3+6 0.109490 0.570803 0.818533 0.139826
S14   S     S_3+6 0.822478 0.416812 0.098398 0.142404
S15   S     S_3+6 0.901048 0.417737 0.822533 0.130034
S16   S     S_3+6 0.177494 0.416815 0.901600 0.140366
S17   S     S_3+6 0.099182 0.417948 0.177874 0.140470
S18   S     S_3+6 0.074901 0.606492 0.681344 0.122974
S19   S     S_3+6 0.084059 0.322796 0.598121 0.132602
S20   S     S_3+6 0.083857 0.402144 0.322859 0.118563
S21   S     S_3+6 0.083740 0.677284 0.402273 0.151098
S22   S     S_3+6 0.915475 0.402502 0.677307 0.135787
S23   S     S_3+6 0.570542 0.890439 0.818445 0.139107
S24   S     S_3+6 0.916237 0.677125 0.597778 0.150351
S25   S     S_3+6 0.925107 0.606534 0.318588 0.124074
S26   S     S_3+6 0.916027 0.322616 0.401552 0.150366
S27   S     S_3+6 0.607428 0.318633 0.926917 0.140529
S28   S     S_3+6 0.322599 0.401720 0.917025 0.140045
S29   S     S_3+6 0.401378 0.677234 0.916769 0.141306
S30   S     S_3+6 0.681233 0.607811 0.926610 0.141470
S31   S     S_3+6 0.392538 0.318630 0.073156 0.139888
S32   S     S_3+6 0.677366 0.401742 0.083044 0.141227
S33   S     S_3+6 0.598659 0.677238 0.083141 0.141350
S34   S     S_3+6 0.571758 0.181606 0.891677 0.140844
S35   S     S_3+6 0.318751 0.607759 0.073360 0.141214
S36   S     S_3+6 0.322622 0.083456 0.402100 0.149041
S37   S     S_3+6 0.402126 0.083962 0.677094 0.118698
S38   S     S_3+6 0.677475 0.083587 0.597764 0.154125
S39   S     S_3+6 0.597544 0.084597 0.322756 0.136073
S40   S     S_3+6 0.322792 0.915956 0.598477 0.147321
S41   S     S_3+6 0.393595 0.925115 0.318551 0.122983
S42   S     S_3+6 0.676961 0.915706 0.401942 0.133864
S43   S     S_3+6 0.606489 0.925181 0.681496 0.123941
S44   S     S_3+6 0.429539 0.890398 0.181631 0.138260
S45   S     S_3+6 0.427866 0.181486 0.108247 0.140396
S46   S     S_3+6 0.417599 0.099025 0.822203 0.141124
S47   S     S_3+6 0.416417 0.822319 0.901434 0.142657
S48   S     S_3+6 0.098859 0.822570 0.417280 0.132309
Zn1   Zn    Zn3+2 0.430960 0.000000 0.000000 1.259153
Zn2   Zn    Zn3+2 0.500000 0.500000 0.930960 1.218247
Zn3   Zn    Zn3+2 0.500000 0.930960 0.500000 1.254627
Zn4   Zn    Zn3+2 0.500000 0.069040 0.500000 1.254920
Zn5   Zn    Zn3+2 0.569040 0.000000 0.000000 1.258377
Zn6   Zn    Zn3+2 0.000000 0.000000 0.569040 1.267955
Zn7   Zn    Zn3+2 0.000000 0.000000 0.430960 1.267943
Zn8   Zn    Zn3+2 1.000000 0.430960 0.000000 1.267957
Zn9   Zn    Zn3+2 1.000000 0.569040 0.000000 1.249648
Zn10  Zn    Zn3+2 0.930960 0.500000 0.500000 1.263542
Zn11  Zn    Zn3+2 0.069040 0.500000 0.500000 1.246056
Zn12  Zn    Zn3+2 0.500000 0.500000 0.069040 1.218060

loop_
_geom_bond_atom_site_label_1
_geom_bond_atom_site_label_2
_ccdc_geom_bond_type
C27   C48   A    
C9    O126  A    
H46   O159  S    
O111  Zn10  S    
O103  S43   D    
C14   C71   S    
C53   S27   S    
H27   O54   S    
C7    O115  A    
C28   C69   A    
C57   C80   A    
C20   C70   A    
H25   O48   S    
C59   S32   S    
O164  S48   D    
H42   O100  S    
O14   S14   D    
C18   C65   A    
C66   C79   A    
C10   O121  A    
H20   O34   S    
C61   C82   A    
C34   O171  A    
O172  S3    D    
C60   C72   A    
O80   S36   D    
O109  Zn9   S    
C45   O182  A    
O24   Zn6   S    
H45   O156  S    
C40   S14   S    
C17   C76   S    
O9    S13   D    
O128  Zn2   S    
O92   S40   D    
O38   S21   S    
C54   S28   S    
C26   S47   S    
O69   S32   D    
H41   O97   S    
O53   S27   D    
O19   S16   D    
O41   S22   S    
O130  Zn3   S    
C44   S18   S    
C16   O131  A    
O43   S24   D    
H24   O44   S    
C41   C49   A    
O161  S47   D    
C31   C87   A    
C8    C81   S    
O160  Zn5   S    
O173  S3    S    
C13   O128  A    
O72   S33   D    
O28   S18   S    
C12   O105  A    
O56   S28   D    
O33   S20   D    
C46   S19   S    
H33   O74   S    
H47   O163  S    
O107  Zn9   S    
O88   S39   D    
O10   S13   D    
C20   S23   S    
O167  S2    D    
C63   S37   S    
O149  Zn5   S    
C7    O113  A    
C31   C50   A    
C52   C77   A    
C78   O68   A    
C18   S1    S    
C23   O138  A    
C12   O149  A    
C20   C94   A    
C39   S13   S    
C6    C83   S    
O134  Zn4   S    
O145  S23   D    
O101  Zn8   S    
C22   C96   A    
C70   S43   S    
O158  S46   D    
C15   O134  A    
C34   C94   S    
C59   C80   A    
C46   C77   A    
O177  S5    D    
C13   C72   S    
H34   O150  S    
O163  S47   S    
C52   S26   S    
O61   S29   S    
C60   S33   S    
H16   O21   S    
H29   O61   S    
O135  Zn4   S    
C47   C81   A    
C8    O114  A    
C17   O136  A    
H9    O192  S    
O143  S12   S    
C43   C47   A    
C38   S11   S    
O119  Zn11  S    
O180  S6    D    
C35   S8    S    
O34   S20   S    
C57   S30   S    
C4    O110  A    
C44   C83   A    
C45   C93   S    
O66   S31   D    
O178  S5    D    
C65   S39   S    
O96   S41   D    
O3    S10   D    
O124  Zn2   S    
C3    O107  A    
C39   C84   A    
C24   S45   S    
O150  S34   S    
H48   O166  S    
O1    Zn1   S    
O97   S41   S    
C69   C76   A    
H3    O173  S    
C33   C85   A    
O176  S4    S    
H19   O31   S    
O84   S37   S    
O154  S45   D    
O44   S24   S    
C15   C79   S    
H5    O179  S    
O93   S40   D    
C10   O125  A    
O125  Zn2   S    
C51   C81   A    
C29   C85   A    
C7    C77   S    
C32   C93   A    
C21   C88   A    
C67   C95   S    
O39   S22   D    
O106  Zn8   S    
C41   S15   S    
O85   S38   D    
C11   C82   S    
O131  Zn3   S    
C56   O46   A    
O144  S23   D    
C37   C86   A    
O139  S1    D    
O31   S19   S    
C36   C57   A    
H21   O38   S    
H38   O87   S    
C41   C84   A    
O171  Zn5   S    
O151  S44   D    
O37   S21   D    
O60   S29   D    
C42   C90   A    
C36   S9    S    
O46   Zn7   S    
O133  Zn4   S    
C38   C90   A    
O104  S43   S    
C67   O13   A    
H6    O183  S    
C27   C87   A    
C78   C85   S    
C23   O116  A    
C29   S3    S    
C58   C74   A    
O159  S46   S    
O126  Zn2   S    
O78   S36   D    
O140  S1    S    
C61   S35   S    
C39   C44   A    
O83   S37   D    
C78   O24   A    
O175  S4    D    
C5    O111  A    
O138  Zn5   S    
C66   S40   S    
O81   S36   S    
O35   Zn7   S    
C11   O122  A    
C23   C91   S    
O25   S17   S    
O87   S38   S    
O42   S24   D    
O187  S8    D    
O63   S30   D    
O113  Zn10  S    
C14   O135  A    
C25   S46   S    
C62   S36   S    
O129  Zn3   S    
O15   S14   S    
C27   S48   S    
C53   C74   A    
H26   O51   S    
O90   Zn8   S    
O40   S22   D    
O100  S42   S    
C9    O120  A    
O16   S15   D    
O118  Zn11  S    
O89   S39   D    
C1    O1    A    
C2    O90   A    
C43   S17   S    
O189  S8    S    
H30   O64   S    
C21   S34   S    
C68   S41   S    
C1    O160  A    
C22   S44   S    
O186  S7    S    
O95   S41   D    
C36   C92   A    
C1    C88   S    
O148  S34   D    
C25   C94   A    
C3    C86   S    
O137  S1    D    
C33   C46   A    
H15   O18   S    
O122  Zn12  S    
H43   O104  S    
H22   O41   S    
O117  Zn11  S    
C4    C90   S    
O26   S18   D    
O190  S9    D    
C30   S4    S    
O152  S44   D    
O23   S17   D    
O179  S5    S    
O114  Zn10  S    
O142  S12   D    
H17   O25   S    
C63   C73   A    
C26   C91   A    
O166  S48   S    
O65   S31   D    
H28   O58   S    
C5    C75   S    
O123  Zn12  S    
C89   O79   A    
C16   O133  A    
O52   S27   D    
C2    O108  A    
O183  S6    S    
O86   S38   D    
C70   C73   A    
C6    O112  A    
H35   O77   S    
C8    O119  A    
C24   C88   A    
C22   C68   A    
H44   O153  S    
O22   S17   D    
O91   S39   S    
C30   C62   A    
C5    O118  A    
H39   O91   S    
C34   O127  A    
H1    O140  S    
C54   C82   A    
O184  S7    D    
C64   S38   S    
O18   S15   S    
H23   O146  S    
C32   C66   A    
O174  S4    D    
C19   S12   S    
C43   C86   A    
O4    S10   D    
O70   S32   D    
O68   Zn7   S    
O168  S2    D    
C35   C95   A    
O20   S16   D    
O120  Zn12  S    
C49   C83   A    
O62   S30   D    
C67   O35   A    
C50   C75   A    
C42   C54   A    
C68   C71   A    
O121  Zn12  S    
H2    O169  S    
C56   O2    A    
H13   O11   S    
O67   S31   S    
O191  S9    D    
C19   C91   A    
C28   S2    S    
C24   C58   A    
C49   S22   S    
O182  Zn6   S    
O112  Zn10  S    
O169  S2    S    
C12   C96   S    
O162  S47   D    
C3    O101  A    
H8    O189  S    
C47   S20   S    
O57   Zn7   S    
O51   S26   S    
C18   C96   A    
O30   S19   D    
H37   O84   S    
C51   S25   S    
C32   S6    S    
C26   C55   A    
O155  S45   D    
O13   Zn6   S    
H18   O28   S    
O147  S34   D    
C28   C95   A    
O153  S44   S    
O165  S48   D    
O75   S35   D    
C30   C93   A    
O102  S43   D    
O6    S11   D    
C37   C51   A    
O76   S35   D    
O58   S28   S    
O98   S42   D    
O108  Zn9   S    
C25   C63   A    
O64   S30   S    
O192  S9    S    
O136  Zn4   S    
O185  S7    D    
C35   C64   A    
H40   O94   S    
C55   C72   A    
O27   S18   D    
C38   C61   A    
C33   S7    S    
O48   S25   S    
C40   C59   A    
C89   O109  A    
C48   C75   A    
C69   S42   S    
C48   S21   S    
C13   O123  A    
O54   S27   S    
O156  S45   S    
C16   C73   S    
C62   C79   A    
O12   S14   D    
O77   S35   S    
O74   S33   S    
C56   C87   S    
C65   C71   A    
O105  Zn1   S    
C9    C80   S    
C15   O130  A    
C50   S24   S    
C31   S5    S    
O47   S25   D    
O45   S25   D    
O127  Zn1   S    
O157  S46   D    
C11   O124  A    
C64   C76   A    
H7    O186  S    
O99   S42   D    
O55   S28   D    
C40   C92   A    
C2    C92   S    
H4    O176  S    
C37   S10   S    
O50   S26   D    
C42   S16   S    
H11   O8    S    
O17   S15   D    
H31   O67   S    
O79   Zn8   S    
O2    Zn6   S    
O5    S10   S    
O73   S33   D    
O36   S21   D    
O59   S29   D    
O115  Zn11  S    
C84   C89   S    
O132  Zn3   S    
C17   O132  A    
O29   S19   D    
O94   S40   S    
O188  S8    D    
O71   S32   S    
O21   S16   S    
O110  Zn9   S    
O116  Zn1   S    
C19   C60   A    
O146  S23   S    
C4    O106  A    
H12   O143  S    
H36   O81   S    
C55   S29   S    
C21   C53   A    
C10   C74   S    
C14   O129  A    
O32   S20   D    
C6    O117  A    
O7    S11   D    
O11   S13   S    
O181  S6    D    
H32   O71   S    
C58   S31   S    
O8    S11   S    
O49   S26   D    
O82   S37   D    
C45   O57   A    
H10   O5    S    
O170  S3    D    
O141  S12   D    
H14   O15   S    
C29   C52   A    
