data_mof_unit_31051.cif
_audit_creation_date              2012-12-10T18:42:34-0500
_audit_creation_method            fapswitch 2.2
_symmetry_space_group_name_H-M    P1
_symmetry_Int_Tables_number       1
_space_group_crystal_system       triclinic
_cell_length_a                    8.573657
_cell_length_b                    10.618793
_cell_length_c                    9.93235
_cell_angle_alpha                 88.851503
_cell_angle_beta                  98.055927
_cell_angle_gamma                 91.625945
_cell_volume                      894.858010997

loop_
_atom_site_label
_atom_site_type_symbol
_atom_type_description
_atom_site_fract_x
_atom_site_fract_y
_atom_site_fract_z
_atom_type_partial_charge
C1    C     C_R   0.499490 0.260800 0.501099 0.922453
C2    C     C_R   0.642157 0.068617 0.545346 0.122011
C3    C     C_R   0.501764 0.871979 0.496432 -0.099617
C4    C     C_R   0.498238 0.128021 0.503568 -0.099623
C5    C     C_R   0.618781 0.560330 0.082417 0.068600
C6    C     C_R   0.381219 0.439670 0.917583 0.068600
C7    C     C_R   0.618424 0.558454 0.939618 -0.173357
C8    C     C_R   0.381576 0.441546 0.060381 -0.173356
C9    C     C_3   0.201694 0.130748 0.420366 -0.834417
C10   C     C_3   0.798300 0.869250 0.579658 -0.834458
C11   C     C_3   0.209587 0.852282 0.407903 -0.865407
C12   C     C_R   0.500511 0.739200 0.498901 0.922460
C13   C     C_3   0.790414 0.147720 0.592094 -0.865399
C14   C     C_2   0.751413 0.630125 0.160344 0.425335
C15   C     C_2   0.248588 0.369875 0.839654 0.425343
C16   C     C_R   0.201609 0.499757 0.464618 0.940904
C17   C     C_R   0.798391 0.500243 0.535382 0.940908
C18   C     C_2   0.036606 0.496561 0.445708 -0.358965
C19   C     C_2   0.963394 0.503440 0.554292 -0.358967
C20   C     C_R   0.355527 0.062452 0.459473 0.163184
C21   C     C_R   0.644474 0.937548 0.540532 0.163189
C22   C     C_R   0.357845 0.931383 0.454654 0.122006
H1    H     H_    0.975843 0.487136 0.342637 0.168947
H2    H     H_    0.843317 0.885274 0.688465 0.233148
H3    H     H_    0.181849 0.789489 0.492595 0.228879
H4    H     H_    0.103487 0.907219 0.373226 0.250402
H5    H     H_    0.228826 0.793746 0.320665 0.249936
H6    H     H_    0.818142 0.210520 0.507404 0.228875
H7    H     H_    0.771180 0.206248 0.679339 0.249937
H8    H     H_    0.896521 0.092786 0.626757 0.250398
H9    H     H_    0.869084 0.621811 0.133432 0.006494
H10   H     H_    0.130916 0.378194 0.866561 0.006494
H11   H     H_    0.024157 0.512865 0.657363 0.168945
H12   H     H_    0.712087 0.605998 0.894134 0.134822
H13   H     H_    0.287913 0.394002 0.105866 0.134822
H14   H     H_    0.211446 0.233809 0.434468 0.232119
H15   H     H_    0.156668 0.114735 0.311553 0.233136
H16   H     H_    0.113556 0.095475 0.484800 0.244834
H17   H     H_    0.788547 0.766187 0.565575 0.232114
H18   H     H_    0.886441 0.904507 0.515225 0.244840
N1    N     N_R   0.499960 0.499970 0.857200 -0.086071
N2    N     N_R   0.500040 0.500030 0.142800 -0.086071
O1    O     O_R   0.499990 0.316750 0.614620 -0.556059
O2    O     O_2   0.269400 0.294846 0.753268 -0.535533
O3    O     O_R   0.500010 0.683250 0.385380 -0.556060
O4    O     O_R   0.499990 0.316780 0.385290 -0.628031
O5    O     O_R   0.500010 0.683220 0.614710 -0.628032
O6    O     O_R   0.271750 0.499990 0.587840 -0.590966
O7    O     O_R   0.728250 0.500010 0.412160 -0.590962
O8    O     O_R   0.271750 0.500010 0.358510 -0.643613
O9    O     O_R   0.728250 0.499990 0.641490 -0.643616
O10   O     O_2   0.730603 0.705150 0.246736 -0.535526
Zn1   Zn    Zn3+2 0.500000 0.499980 0.653120 0.979986
Zn2   Zn    Zn3+2 0.500000 0.500020 0.346880 0.979988

loop_
_geom_bond_atom_site_label_1
_geom_bond_atom_site_label_2
_ccdc_geom_bond_type
C15   O2    D    
C9    H14   S    
C2    C4    A    
C5    N2    A    
C13   H6    S    
C17   O9    A    
C8    H13   S    
C9    C20   S    
C11   H5    S    
C14   H9    S    
O5    Zn1   S    
C1    C4    S    
O4    Zn2   S    
C2    C21   A    
C9    H15   S    
C20   C22   A    
C15   H10   S    
N2    Zn2   S    
N1    Zn1   S    
C5    C14   S    
O8    Zn2   S    
C12   O5    A    
C13   H7    S    
C9    H16   S    
C17   C19   S    
C16   O8    A    
O3    Zn2   S    
C7    N1    A    
C10   C21   S    
O6    Zn1   S    
C7    H12   S    
C1    O4    A    
C3    C21   A    
C11   H3    S    
O9    Zn1   S    
O7    Zn2   S    
C4    C20   A    
C13   H8    S    
C16   O6    A    
C16   C18   S    
C18   C19   D    
C19   H11   S    
C17   O7    A    
C5    C7    A    
C2    C13   S    
C10   H17   S    
C10   H18   S    
C6    C8    A    
C3    C12   S    
C11   C22   S    
C11   H4    S    
C10   H2    S    
C6    C15   S    
O1    Zn1   S    
C1    O1    A    
C14   O10   D    
C18   H1    S    
C8    N2    A    
C12   O3    A    
C3    C22   A    
C6    N1    A    
