data_mof_unit_39681.cif
_audit_creation_date              2012-10-26T18:40:17-0400
_audit_creation_method            fapswitch 2.2
_symmetry_space_group_name_H-M    P1
_symmetry_Int_Tables_number       1
_space_group_crystal_system       triclinic
_cell_length_a                    8.714626
_cell_length_b                    15.116778
_cell_length_c                    13.868133
_cell_angle_alpha                 90.099042
_cell_angle_beta                  97.942227
_cell_angle_gamma                 90.158305
_cell_volume                      1809.41188212

loop_
_atom_site_label
_atom_site_type_symbol
_atom_type_description
_atom_site_fract_x
_atom_site_fract_y
_atom_site_fract_z
_atom_type_partial_charge
C1    C     C_R   0.500783 0.329895 0.499970 0.548442
C2    C     C_R   0.572571 0.568028 0.898494 -0.140776
C3    C     C_R   0.499933 0.500012 0.054669 0.025159
C4    C     C_R   0.499891 0.500026 0.945300 0.024219
C5    C     C_R   0.203679 0.499934 0.475091 0.552001
C6    C     C_R   0.796317 0.500011 0.524900 0.549320
C7    C     C_2   0.037815 0.499914 0.461321 -0.159241
C8    C     C_2   0.962171 0.499953 0.538644 -0.157476
C9    C     C_R   0.453743 0.094094 0.573728 -0.146426
C10   C     C_R   0.463873 0.906039 0.417101 -0.142413
C11   C     C_R   0.448690 0.185857 0.573825 -0.165015
C12   C     C_R   0.500981 0.670166 0.500207 0.549566
C13   C     C_R   0.458853 0.814250 0.415862 -0.162385
C14   C     C_R   0.506410 0.233496 0.500207 -0.036571
C15   C     C_R   0.506628 0.766706 0.501144 -0.035624
C16   C     C_R   0.571257 0.188709 0.427180 -0.109149
C17   C     C_R   0.561306 0.811796 0.587464 -0.108114
C18   C     C_R   0.584089 0.096809 0.428995 0.259848
C19   C     C_R   0.573976 0.903748 0.588591 0.261392
C20   C     C_R   0.521236 0.048762 0.501934 0.027508
C21   C     C_R   0.521475 0.951625 0.502750 0.029563
C22   C     C_3   0.798308 0.026701 0.384834 0.009364
C23   C     C_R   0.619485 0.541095 0.118347 -0.142196
C24   C     C_3   0.914823 0.103443 0.388131 -0.279012
C25   C     C_3   0.081661 0.070294 0.406877 -0.475869
C26   C     C_3   0.778351 0.976774 0.678525 0.008493
C27   C     C_3   0.897446 0.901404 0.689663 -0.281441
C28   C     C_3   0.062865 0.937392 0.705057 -0.475173
C29   C     C_R   0.427178 0.432034 0.885622 -0.141329
C30   C     C_R   0.616671 0.540911 0.219552 0.043356
C31   C     C_R   0.427598 0.433630 0.784211 0.045548
C32   C     C_R   0.383315 0.459117 0.199185 0.045643
C33   C     C_R   0.572230 0.566395 0.797008 0.047801
C34   C     C_R   0.380434 0.458916 0.097478 -0.141013
Cu1   Cu    Cu3+1 0.500000 0.499990 0.596430 0.935295
Cu2   Cu    Cu3+1 0.500000 0.500010 0.403570 0.932102
H1    H     H_    0.977766 0.499905 0.387177 0.120277
H2    H     H_    0.371712 0.376919 0.916640 0.089598
H3    H     H_    0.708930 0.573473 0.266804 0.120231
H4    H     H_    0.370040 0.381164 0.739888 0.116809
H5    H     H_    0.291086 0.426597 0.230367 0.122818
H6    H     H_    0.629707 0.618882 0.762860 0.116688
H7    H     H_    0.283527 0.427607 0.053083 0.089229
H8    H     H_    0.627968 0.623169 0.939341 0.090369
H9    H     H_    0.827377 0.977257 0.330888 0.159306
H10   H     H_    0.810029 0.991649 0.455754 0.116968
H11   H     H_    0.897038 0.139467 0.317699 0.176942
H12   H     H_    0.022232 0.499946 0.612783 0.129986
H13   H     H_    0.896085 0.150310 0.447151 0.149333
H14   H     H_    0.102705 0.034682 0.477357 0.143662
H15   H     H_    0.162725 0.127344 0.409748 0.162121
H16   H     H_    0.105665 0.025142 0.347530 0.149466
H17   H     H_    0.802954 0.021130 0.742779 0.159690
H18   H     H_    0.792101 0.018300 0.614377 0.119931
H19   H     H_    0.878971 0.859539 0.752876 0.171696
H20   H     H_    0.882639 0.859502 0.623109 0.150079
H21   H     H_    0.083794 0.979499 0.642652 0.138982
H22   H     H_    0.146125 0.881544 0.710967 0.162171
H23   H     H_    0.402642 0.058336 0.629035 0.156901
H24   H     H_    0.083492 0.977046 0.773137 0.150404
H25   H     H_    0.420444 0.941618 0.351277 0.158568
H26   H     H_    0.396465 0.219501 0.630130 0.126818
H27   H     H_    0.414481 0.780542 0.348741 0.139180
H28   H     H_    0.615671 0.225109 0.369670 0.141736
H29   H     H_    0.598039 0.775653 0.654031 0.131154
H30   H     H_    0.716369 0.572399 0.090866 0.088462
N1    N     N_R   0.500000 0.500020 0.258690 -0.222343
N2    N     N_R   0.500000 0.499980 0.741310 -0.220905
O1    O     O_R   0.500010 0.371450 0.581430 -0.506528
O2    O     O_3   0.624893 0.945049 0.676591 -0.585938
O3    O     O_R   0.499990 0.628550 0.418570 -0.498180
O4    O     O_R   0.500010 0.371460 0.418560 -0.503483
O5    O     O_R   0.499990 0.628540 0.581440 -0.512578
O6    O     O_R   0.274840 0.499990 0.562640 -0.497754
O7    O     O_R   0.725160 0.500010 0.437360 -0.508770
O8    O     O_R   0.274840 0.500000 0.399770 -0.507432
O9    O     O_R   0.725160 0.500000 0.600230 -0.496811
O10   O     O_3   0.644951 0.055352 0.353555 -0.584248

loop_
_geom_bond_atom_site_label_1
_geom_bond_atom_site_label_2
_ccdc_geom_bond_type
Cu1   O6    S    
C3    C23   A    
Cu1   Cu2   S    
C11   H26   S    
C8    H12   S    
Cu2   N1    S    
C7    C8    D    
C28   H21   S    
C26   C27   S    
C33   H6    S    
C23   H30   S    
C19   C21   A    
C11   C14   A    
C27   H19   S    
C31   H4    S    
C5    O6    A    
C25   H14   S    
Cu2   O8    S    
C2    H8    S    
C29   H2    S    
C32   H5    S    
C14   C16   A    
C4    C29   A    
Cu2   O3    S    
C12   O5    A    
C26   H18   S    
C28   H24   S    
C10   C21   A    
C31   N2    A    
C1    O4    A    
C23   C30   A    
C6    O7    A    
C24   C25   S    
C22   O10   S    
C5    C7    S    
C27   H20   S    
C6    O9    A    
C6    C8    S    
C3    C34   A    
Cu1   O9    S    
C1    O1    A    
C9    H23   S    
C32   C34   A    
C2    C4    A    
C25   H15   S    
Cu2   O7    S    
C9    C20   A    
C13   H27   S    
C12   C15   S    
C18   O10   S    
C7    H1    S    
C9    C11   A    
C32   N1    A    
C2    C33   A    
C22   H10   S    
C12   O3    A    
C13   C15   A    
C26   O2    S    
C22   C24   S    
C10   H25   S    
C3    C4    S    
C26   H17   S    
C24   H13   S    
C15   C17   A    
Cu1   O5    S    
C24   H11   S    
C34   H7    S    
C30   N1    A    
C10   C13   A    
C28   H22   S    
C17   H29   S    
C5    O8    A    
C25   H16   S    
C29   C31   A    
Cu1   N2    S    
C17   C19   A    
C30   H3    S    
C18   C20   A    
C22   H9    S    
C20   C21   S    
Cu1   O1    S    
C16   C18   A    
C27   C28   S    
C19   O2    S    
C1    C14   S    
C16   H28   S    
Cu2   O4    S    
C33   N2    A    
