data_mof_unit_27484.cif
_audit_creation_date              2012-12-11T17:01:17-0500
_audit_creation_method            fapswitch 2.2
_symmetry_space_group_name_H-M    P1
_symmetry_Int_Tables_number       1
_space_group_crystal_system       triclinic
_cell_length_a                    19.409881
_cell_length_b                    7.096454
_cell_length_c                    17.60937
_cell_angle_alpha                 89.983846
_cell_angle_beta                  108.49022
_cell_angle_gamma                 89.997125
_cell_volume                      2300.32628645

loop_
_atom_site_label
_atom_site_type_symbol
_atom_type_description
_atom_site_fract_x
_atom_site_fract_y
_atom_site_fract_z
_atom_type_partial_charge
O1    O     O_R   0.413720 0.494330 0.415730 -0.528078
O2    O     O_R   0.586280 0.994330 0.584270 -0.517866
O3    O     O_R   0.560210 0.819300 0.430070 -0.550364
O4    O     O_R   0.439790 0.319300 0.569930 -0.550669
C1    C     C_R   0.581128 0.655195 0.414038 0.749842
C2    C     C_R   0.418737 0.155202 0.585807 0.768266
O5    O     O_R   0.412670 0.823730 0.406310 -0.529760
O6    O     O_R   0.587330 0.323730 0.593690 -0.533613
O7    O     O_R   0.437690 0.998790 0.560340 -0.509446
O8    O     O_R   0.562310 0.498790 0.439660 -0.515788
C3    C     C_R   0.385437 0.655124 0.383810 0.710841
C4    C     C_R   0.614523 0.155038 0.616260 0.740100
O9    O     O_3   0.508380 0.662350 0.550560 -0.350343
O10   O     O_3   0.491620 0.162350 0.449440 -0.359238
V1    V     V_3+5 0.498450 0.935370 0.490620 1.600920
V2    V     V_3+5 0.501550 0.435370 0.509380 1.586074
C5    C     C_R   0.698811 0.998917 0.739073 -0.092720
C6    C     C_R   0.301445 0.499378 0.260845 -0.099197
C7    C     C_R   0.683164 0.145594 0.683582 -0.180881
C8    C     C_R   0.316875 0.645798 0.316408 -0.180977
C9    C     C_R   0.737469 0.285620 0.695444 -0.160140
C10   C     C_R   0.262515 0.785691 0.304475 -0.148741
H1    H     H_    0.729842 0.401307 0.653488 0.193173
H2    H     H_    0.270077 0.901417 0.346378 0.191397
C11   C     C_R   0.803596 0.274039 0.760042 0.695125
C12   C     C_R   0.196442 0.774000 0.239825 0.693482
C13   C     C_R   0.816650 0.123762 0.816259 -0.208998
C14   C     C_R   0.183480 0.623669 0.183661 -0.215204
C15   C     C_R   0.760500 0.992555 0.803866 -0.144527
C16   C     C_R   0.239764 0.492643 0.196135 -0.132343
C17   C     C_3   0.737940 0.814571 0.835750 0.735127
C18   C     C_3   0.263109 0.315758 0.164210 0.760907
C19   C     C_3   0.669465 0.819080 0.760026 0.748545
C20   C     C_3   0.331274 0.319902 0.240114 0.730828
C21   C     C_R   0.324765 0.301192 0.636988 -0.226236
C22   C     C_R   0.675032 0.801033 0.362755 -0.222627
C23   C     C_R   0.370126 0.147183 0.636057 -0.229147
C24   C     C_R   0.629555 0.647232 0.363579 -0.225860
C25   C     C_R   0.368617 0.987143 0.682994 0.608289
C26   C     C_R   0.630745 0.487621 0.316297 0.600922
C27   C     C_R   0.323151 0.982201 0.731589 -0.149982
C28   C     C_R   0.676297 0.482606 0.267786 -0.143339
C29   C     C_R   0.276844 0.136807 0.730691 -0.072548
C30   C     C_R   0.722762 0.636961 0.268852 -0.073691
C31   C     C_R   0.277519 0.296033 0.682892 0.164450
C32   C     C_R   0.722183 0.796006 0.316748 0.163377
C33   C     C_R   0.322752 0.826603 0.781213 0.637099
C34   C     C_R   0.676640 0.327160 0.218094 0.639914
C35   C     C_R   0.275959 0.822897 0.827329 -0.234998
C36   C     C_R   0.723542 0.323332 0.172095 -0.238601
C37   C     C_R   0.228561 0.973521 0.825307 -0.101878
C38   C     C_R   0.771065 0.473748 0.174253 -0.101566
C39   C     C_R   0.229497 0.132201 0.777430 0.009330
C40   C     C_R   0.770161 0.632315 0.222170 0.008830
C41   C     C_R   0.182994 0.286190 0.776029 0.120170
C42   C     C_R   0.816752 0.786158 0.223675 0.120285
C43   C     C_R   0.183968 0.442890 0.727827 -0.169920
C44   C     C_R   0.815779 0.942806 0.271868 -0.169390
C45   C     C_R   0.230709 0.447633 0.681600 -0.095981
C46   C     C_R   0.769022 0.947543 0.318069 -0.097024
C47   C     C_R   0.180309 0.968001 0.870283 0.590490
C48   C     C_R   0.819411 0.468157 0.129376 0.589625
C49   C     C_R   0.133362 0.120910 0.868772 -0.193085
C50   C     C_R   0.866481 0.620880 0.131044 -0.192538
C51   C     C_R   0.135886 0.280365 0.822252 -0.294565
C52   C     C_R   0.863950 0.780256 0.177564 -0.294258
H3    H     H_    0.325241 0.424301 0.600654 0.166941
H4    H     H_    0.674717 0.923898 0.399253 0.165548
H5    H     H_    0.276666 0.700407 0.864307 0.200751
H6    H     H_    0.722814 0.200926 0.135092 0.200329
H7    H     H_    0.100193 0.398759 0.820870 0.181453
H8    H     H_    0.899715 0.898533 0.179041 0.181068
H9    H     H_    0.148609 0.562194 0.725948 0.134130
H10   H     H_    0.851178 0.062034 0.273790 0.134116
H11   H     H_    0.230459 0.570601 0.645006 0.118669
H12   H     H_    0.769302 0.070428 0.354691 0.118560
O11   O     O_R   0.937800 0.775460 0.060470 -0.557842
O12   O     O_R   0.062200 0.275460 0.939530 -0.558077
O13   O     O_R   0.087350 0.441340 0.093710 -0.530011
O14   O     O_R   0.912650 0.941340 0.906290 -0.528752
C53   C     C_R   0.114960 0.610410 0.115859 0.744971
C54   C     C_R   0.885132 0.110475 0.884051 0.747299
O15   O     O_R   0.939820 0.446010 0.069950 -0.512237
O16   O     O_R   0.060180 0.946010 0.930050 -0.512053
O17   O     O_R   0.913690 0.271230 0.915700 -0.500521
O18   O     O_R   0.086310 0.771230 0.084300 -0.499829
C55   C     C_R   0.917768 0.614086 0.083909 0.760195
C56   C     C_R   0.082177 0.114109 0.916028 0.758812
O19   O     O_3   0.991670 0.603050 0.949510 -0.361278
O20   O     O_3   0.008330 0.103050 0.050490 -0.361871
V3    V     V_3+5 0.001550 0.329940 0.009370 1.650779
V4    V     V_3+5 0.998450 0.829940 0.990630 1.652658
F1    F     F_    0.180033 0.814880 0.916541 -0.722215
F2    F     F_    0.819644 0.315207 0.083040 -0.722245
F3    F     F_    0.855275 0.407011 0.765837 -0.638268
F4    F     F_    0.144769 0.907110 0.233862 -0.639619
N1    N     N_2   0.720317 0.833468 0.910034 -0.607820
H13   H     H_    0.712050 0.705825 0.933765 0.274554
C57   C     C_3   0.760776 0.966111 0.969909 -0.466927
H14   H     H_    0.741610 0.958924 0.022944 0.220838
H15   H     H_    0.751774 0.111999 0.946061 0.223214
H16   H     H_    0.819277 0.931726 0.989138 0.215941
N2    N     N_2   0.281469 0.337711 0.090485 -0.573667
H17   H     H_    0.291924 0.211291 0.067426 0.270293
C58   C     C_3   0.239037 0.465798 0.029734 -0.448874
H18   H     H_    0.258190 0.459906 0.976662 0.218349
H19   H     H_    0.245938 0.612651 0.052593 0.225223
H20   H     H_    0.181088 0.425781 0.010940 0.207148
F5    F     F_    0.784355 0.665490 0.837484 -0.622110
F6    F     F_    0.217021 0.165349 0.161487 -0.629969
N3    N     N_2   0.600248 0.844681 0.774339 -0.552638
H21   H     H_    0.598286 0.954458 0.812042 0.237453
C59   C     C_3   0.565574 0.673462 0.788295 -0.294619
H22   H     H_    0.602497 0.592184 0.838751 0.142976
H23   H     H_    0.549754 0.584802 0.733492 0.235412
H24   H     H_    0.515829 0.708995 0.803474 0.252714
N4    N     N_2   0.400012 0.345528 0.224814 -0.566751
H25   H     H_    0.435887 0.433598 0.265012 0.262062
C60   C     C_3   0.434302 0.173643 0.210870 -0.295704
H26   H     H_    0.478629 0.208993 0.186097 0.248129
H27   H     H_    0.394708 0.081581 0.167301 0.159049
H28   H     H_    0.457699 0.095639 0.268024 0.228616
F7    F     F_    0.667719 0.679039 0.704682 -0.663058
F8    F     F_    0.333284 0.179280 0.295358 -0.669528
F9    F     F_    0.411951 0.837667 0.681780 -0.653521
F10   F     F_    0.586959 0.338761 0.316987 -0.665824
F11   F     F_    0.367416 0.676942 0.785558 -0.652871
F12   F     F_    0.631851 0.177716 0.213617 -0.650832

loop_
_geom_bond_atom_site_label_1
_geom_bond_atom_site_label_2
_ccdc_geom_bond_type
O15   C55   A    
C49   C51   A    
O11   V4    S    
O4    V2    S    
C25   F9    S    
C49   C56   S    
C13   C15   A    
C5    C15   A    
C39   C41   A    
N3    H21   S    
O1    C3    A    
O2    C4    A    
C2    O7    A    
N1    H13   S    
O17   V3    S    
C33   C35   A    
O5    C3    A    
C58   H19   S    
C5    C19   S    
C7    C9    A    
N4    C60   S    
C47   F1    S    
C43   C45   A    
C44   C46   A    
C43   H9    S    
C47   C49   A    
C48   C50   A    
N1    C57   S    
C29   C39   A    
C52   H8    S    
C30   C32   A    
C14   C16   A    
C35   C37   A    
C37   C47   A    
C36   C38   A    
C17   C19   S    
C22   C32   A    
C6    C16   A    
O19   V3    S    
C50   C55   S    
O13   V3    S    
C53   O18   A    
C59   H24   S    
C32   C46   A    
C20   N4    S    
O5    V1    S    
O6    V2    S    
C35   H5    S    
C1    C24   S    
C27   C29   A    
C28   C30   A    
C27   C33   A    
C38   C40   A    
C60   H27   S    
C12   F4    S    
C58   H20   S    
C40   C42   A    
C3    C8    S    
C18   N2    S    
C16   C18   S    
N2    C58   S    
O13   C53   A    
C51   H7    S    
C46   H12   S    
C37   C39   A    
C18   C20   S    
O14   V4    S    
C48   F2    S    
C34   F12   S    
C29   C31   A    
O20   V4    S    
C57   H14   S    
C21   H3    S    
O6    C4    A    
C26   F10   S    
C17   F5    S    
C2    C23   S    
N3    C59   S    
O1    V2    S    
C28   C34   A    
O19   V4    S    
O2    V1    S    
C6    C20   S    
O11   C55   A    
C18   F6    S    
C19   N3    S    
O4    C2    A    
C57   H15   S    
C8    C10   A    
C11   F3    S    
C41   C43   A    
C10   H2    S    
C22   C24   A    
C21   C31   A    
C45   H11   S    
O3    V1    S    
C44   H10   S    
C59   H22   S    
C60   H28   S    
O12   C56   A    
C9    C11   A    
C31   C45   A    
C20   F8    S    
C21   C23   A    
C14   C53   S    
C41   C51   A    
C13   C54   S    
O16   C56   A    
C26   C28   A    
O3    C1    A    
C60   H26   S    
C22   H4    S    
C33   F11   S    
O12   V3    S    
C11   C13   A    
C54   O17   A    
O15   V3    S    
C58   H18   S    
C12   C14   A    
C9    H1    S    
C36   H6    S    
C1    O8    A    
C23   C25   A    
O18   V4    S    
N4    H25   S    
C24   C26   A    
O20   V3    S    
C42   C52   A    
C4    C7    S    
C34   C36   A    
C5    C7    A    
O14   C54   A    
C42   C44   A    
C6    C8    A    
C17   N1    S    
O7    V1    S    
C30   C40   A    
C57   H16   S    
C25   C27   A    
C15   C17   S    
C10   C12   A    
O9    V2    S    
N2    H17   S    
C19   F7    S    
O10   V1    S    
C38   C48   A    
O8    V2    S    
O16   V4    S    
C50   C52   A    
C59   H23   S    
