data_mof_unit_12511.cif
_audit_creation_date              2012-12-11T15:47:03-0500
_audit_creation_method            fapswitch 2.2
_symmetry_space_group_name_H-M    P1
_symmetry_Int_Tables_number       1
_space_group_crystal_system       monoclinic
_cell_length_a                    20.222617
_cell_length_b                    7.265873
_cell_length_c                    13.532368
_cell_angle_alpha                 90.0
_cell_angle_beta                  103.465685
_cell_angle_gamma                 90.0
_cell_volume                      1933.71665359

loop_
_atom_site_label
_atom_site_type_symbol
_atom_type_description
_atom_site_fract_x
_atom_site_fract_y
_atom_site_fract_z
_atom_type_partial_charge
O1    O     O_R   0.449560 0.506810 0.599700 -0.521766
O2    O     O_R   0.550440 0.006810 0.400300 -0.521766
O3    O     O_R   0.587960 0.180060 0.595760 -0.534735
O4    O     O_R   0.412040 0.680060 0.404240 -0.534735
C1    C     C_R   0.615056 0.344136 0.616654 0.784926
C2    C     C_R   0.384944 0.844136 0.383346 0.784926
O5    O     O_R   0.452380 0.177430 0.611700 -0.528169
O6    O     O_R   0.547620 0.677430 0.388300 -0.528168
O7    O     O_R   0.413900 0.001890 0.416350 -0.534410
O8    O     O_R   0.586100 0.501890 0.583650 -0.534409
C3    C     C_R   0.437012 0.345354 0.638236 0.912728
C4    C     C_R   0.562988 0.845354 0.361764 0.912728
O9    O     O_3   0.487530 0.337490 0.435890 -0.380936
O10   O     O_3   0.512470 0.837490 0.564110 -0.380937
V1    V     V_3+5 0.502310 0.064660 0.511890 1.669308
V2    V     V_3+5 0.497690 0.564660 0.488110 1.669307
C5    C     C_R   0.620058 0.728832 0.127521 -0.166277
C6    C     C_R   0.379942 0.228831 0.872479 -0.166277
H1    H     H_    0.708859 0.600570 0.030251 0.151815
H2    H     H_    0.291141 0.100570 0.969748 0.151816
C7    C     C_R   0.606020 0.846299 0.288438 -0.304203
C8    C     C_R   0.393980 0.346299 0.711562 -0.304203
C9    C     C_R   0.928430 0.988541 0.302949 -0.163020
C10   C     C_R   0.071569 0.488541 0.697051 -0.163020
C11   C     C_R   0.887209 0.074107 0.357679 -0.104637
C12   C     C_R   0.112791 0.574107 0.642321 -0.104636
C13   C     C_R   0.817987 0.037274 0.335158 0.002702
C14   C     C_R   0.182012 0.537274 0.664842 0.002701
C15   C     C_R   0.789712 0.894919 0.267832 0.125074
C16   C     C_R   0.210288 0.394919 0.732168 0.125074
C17   C     C_R   0.830893 0.819776 0.204972 0.071473
C18   C     C_R   0.169106 0.319776 0.795028 0.071473
C19   C     C_R   0.719667 0.842832 0.251664 -0.036692
C20   C     C_R   0.280333 0.342832 0.748336 -0.036693
C21   C     C_R   0.690273 0.750224 0.159273 -0.005292
C22   C     C_R   0.309727 0.250224 0.840727 -0.005292
C23   C     C_R   0.731048 0.678697 0.098188 -0.067083
C24   C     C_R   0.268952 0.178696 0.901812 -0.067082
C25   C     C_R   0.800653 0.706214 0.123055 -0.055766
C26   C     C_R   0.199347 0.206213 0.876945 -0.055767
C27   C     C_R   0.677520 0.872890 0.322581 0.318909
C28   C     C_R   0.322480 0.372890 0.677419 0.318909
C29   C     C_R   0.577512 0.784988 0.188711 0.411008
C30   C     C_R   0.422488 0.284988 0.811289 0.411005
C31   C     C_R   0.900058 0.873555 0.220704 -0.096619
C32   C     C_R   0.099942 0.373555 0.779296 -0.096619
H3    H     H_    0.981187 0.030873 0.316289 0.115103
H4    H     H_    0.018813 0.530873 0.683710 0.115103
H5    H     H_    0.908200 0.178747 0.413093 0.133284
H6    H     H_    0.091799 0.678747 0.586907 0.133284
C33   C     C_R   0.199489 0.961083 0.271864 -0.183369
C34   C     C_R   0.800511 0.461083 0.728135 -0.183370
C35   C     C_R   0.264160 0.956216 0.337542 -0.075753
C36   C     C_R   0.735840 0.456216 0.662458 -0.075752
H7    H     H_    0.272544 0.029449 0.408659 0.202362
H8    H     H_    0.727456 0.529448 0.591341 0.202362
C37   C     C_R   0.316348 0.850419 0.314024 -0.082096
C38   C     C_R   0.683652 0.350419 0.685976 -0.082096
C39   C     C_R   0.302205 0.745657 0.224698 -0.192927
C40   C     C_R   0.697795 0.245658 0.775302 -0.192928
C41   C     C_R   0.237662 0.749733 0.157526 0.431756
C42   C     C_R   0.762337 0.249734 0.842474 0.431755
C43   C     C_R   0.184915 0.857371 0.181700 -0.156096
C44   C     C_R   0.815085 0.357371 0.818300 -0.156095
O11   O     O_R   0.913920 0.203370 0.916260 -0.498779
O12   O     O_R   0.086080 0.703370 0.083740 -0.498779
O13   O     O_R   0.047620 0.535540 0.888290 -0.512230
O14   O     O_R   0.952380 0.035540 0.111710 -0.512229
C45   C     C_R   0.063357 0.369059 0.861567 0.741692
C46   C     C_R   0.936643 0.869059 0.138433 0.741692
O15   O     O_R   0.912040 0.532780 0.904220 -0.549446
O16   O     O_R   0.087960 0.032780 0.095780 -0.549446
O17   O     O_R   0.949550 0.708160 0.099720 -0.557963
O18   O     O_R   0.050450 0.208160 0.900280 -0.557964
C47   C     C_R   0.884999 0.364751 0.884645 0.737128
C48   C     C_R   0.115000 0.864751 0.115355 0.737127
O19   O     O_3   0.012480 0.375300 0.064060 -0.379136
O20   O     O_3   0.987520 0.875300 0.935940 -0.379136
V3    V     V_3+5 0.997690 0.648180 0.988110 1.588724
V4    V     V_3+5 0.002310 0.148180 0.011890 1.588724
S1    S     S_3+6 0.488631 0.760780 0.140676 0.010694
O21   O     O_2   0.466202 0.580713 0.176699 -0.339385
O22   O     O_2   0.451749 0.916100 0.177986 -0.369454
O23   O     O_3   0.470042 0.762561 0.012835 -0.460725
H9    H     H_    0.419743 0.759027 0.992116 0.388807
S2    S     S_3+6 0.511369 0.260780 0.859324 0.010694
O24   O     O_2   0.533798 0.080714 0.823301 -0.339382
O25   O     O_2   0.548250 0.416101 0.822014 -0.369457
O26   O     O_3   0.529958 0.262560 0.987165 -0.460724
H10   H     H_    0.580257 0.259044 0.007883 0.388805
H11   H     H_    0.342161 0.662207 0.206949 0.195906
H12   H     H_    0.657839 0.162208 0.793052 0.195907
S3    S     S_3+6 0.226067 0.621540 0.043766 -0.029641
O27   O     O_2   0.188501 0.447562 0.055632 -0.367688
O28   O     O_2   0.185205 0.730379 0.956115 -0.345448
O29   O     O_3   0.301518 0.568334 0.018790 -0.494303
H13   H     H_    0.317288 0.456953 0.059721 0.353504
S4    S     S_3+6 0.773933 0.121542 0.956234 -0.029641
O30   O     O_2   0.811499 0.947563 0.944368 -0.367688
O31   O     O_2   0.814795 0.230381 0.043885 -0.345449
O32   O     O_3   0.698482 0.068338 0.981211 -0.494301
H14   H     H_    0.682712 0.956956 0.940280 0.353506
H15   H     H_    0.598188 0.666821 0.054305 0.208381
H16   H     H_    0.401812 0.166821 0.945695 0.208384
S5    S     S_3+6 0.712332 0.909619 0.456720 -0.060221
O33   O     O_2   0.783138 0.832960 0.488945 -0.351657
O34   O     O_2   0.713282 0.112664 0.478539 -0.373174
O35   O     O_3   0.665569 0.809174 0.529255 -0.527267
H17   H     H_    0.681983 0.863390 0.597778 0.352874
S6    S     S_3+6 0.287668 0.409620 0.543280 -0.060221
O36   O     O_2   0.216861 0.332960 0.511055 -0.351657
O37   O     O_2   0.286718 0.612665 0.521462 -0.373174
O38   O     O_3   0.334431 0.309175 0.470745 -0.527267
H18   H     H_    0.318017 0.363391 0.402222 0.352874
H19   H     H_    0.786833 0.127191 0.367793 0.185935
H20   H     H_    0.213167 0.627191 0.632207 0.185935
H21   H     H_    0.829629 0.645216 0.073834 0.158433
H22   H     H_    0.170371 0.145215 0.926165 0.158432
H23   H     H_    0.160115 0.043014 0.292819 0.153839
H24   H     H_    0.839885 0.543013 0.707181 0.153839

loop_
_geom_bond_atom_site_label_1
_geom_bond_atom_site_label_2
_ccdc_geom_bond_type
O14   V4    S    
C26   H22   S    
O32   H14   S    
C9    C31   A    
C13   C15   A    
O1    C3    A    
O16   C48   A    
O2    C4    A    
C2    O7    A    
O15   V3    S    
S1    O21   D    
O5    C3    A    
O12   V3    S    
S5    O34   D    
S3    O27   D    
C27   S5    S    
C1    C38   S    
C21   C23   A    
C10   C12   A    
C12   H6    S    
S2    O25   D    
C37   C39   A    
C43   C48   S    
C38   C40   A    
C15   C19   A    
O35   H17   S    
C40   C42   A    
C41   C43   A    
S6    O36   D    
C32   C45   S    
C42   C44   A    
C14   H20   S    
C7    C29   A    
C8    C30   A    
C20   C28   A    
C33   H23   S    
H1    C23   S    
C40   H12   S    
O5    V1    S    
O6    V2    S    
O11   V4    S    
C42   S4    S    
C2    C37   S    
C30   S2    S    
S1    O22   D    
C34   C36   A    
S6    O37   D    
C35   H7    S    
S3    O28   D    
C23   C25   A    
S5    O35   S    
C36   H8    S    
C39   C41   A    
C9    H3    S    
C16   C20   A    
C10   H4    S    
C33   C43   A    
O23   H9    S    
O4    C2    A    
C34   C44   A    
C35   C37   A    
S2    O24   D    
C6    H16   S    
C25   H21   S    
C4    C7    S    
O13   C45   A    
O4    V2    S    
C5    C29   A    
C6    C30   A    
H2    C24   S    
O6    C4    A    
O12   C48   A    
O29   H13   S    
C46   O17   A    
O17   V3    S    
O13   V3    S    
C45   O18   A    
O1    V2    S    
C39   H11   S    
O2    V1    S    
S6    O38   S    
C7    C27   A    
C34   H24   S    
O14   C46   A    
S3    O29   S    
S4    O31   D    
C29   S1    S    
S1    O23   S    
O3    V1    S    
O38   H18   S    
C36   C38   A    
O19   V4    S    
C31   C46   S    
O20   V3    S    
C18   C32   A    
O15   C47   A    
O3    C1    A    
S2    O26   S    
C11   C13   A    
S4    O32   S    
S5    O33   D    
C3    C8    S    
C12   C14   A    
O11   C47   A    
C19   C27   A    
C22   C24   A    
C28   S6    S    
C10   C32   A    
C1    O8    A    
C15   C17   A    
O8    V2    S    
C16   C18   A    
C8    C28   A    
C24   C26   A    
C14   C16   A    
C19   C21   A    
C44   C47   S    
C17   C25   A    
C20   C22   A    
C18   C26   A    
C5    H15   S    
C11   H5    S    
C9    C11   A    
O16   V4    S    
S4    O30   D    
C17   C31   A    
O9    V2    S    
O10   V1    S    
O18   V4    S    
C5    C21   A    
C33   C35   A    
O26   H10   S    
C41   S3    S    
C6    C22   A    
O7    V1    S    
C13   H19   S    
