data_mof_unit_52859.cif
_audit_creation_date              2012-12-11T15:59:40-0500
_audit_creation_method            fapswitch 2.2
_symmetry_space_group_name_H-M    P1
_symmetry_Int_Tables_number       1
_space_group_crystal_system       triclinic
_cell_length_a                    10.795414
_cell_length_b                    10.747099
_cell_length_c                    17.093431
_cell_angle_alpha                 100.060135
_cell_angle_beta                  99.613128
_cell_angle_gamma                 60.524698
_cell_volume                      1692.32393812

loop_
_atom_site_label
_atom_site_type_symbol
_atom_type_description
_atom_site_fract_x
_atom_site_fract_y
_atom_site_fract_z
_atom_type_partial_charge
C1    C     C_R   0.353794 0.778338 0.402166 0.544672
C2    C     C_R   0.848609 0.319759 0.330327 -0.012957
C3    C     C_R   0.316723 0.862045 0.169092 0.018247
C4    C     C_R   0.369984 0.345981 0.357495 0.559756
C5    C     C_R   0.449904 0.819516 0.214173 0.007110
C6    C     C_R   0.454381 0.830699 0.297758 -0.005736
C7    C     C_R   0.202823 0.895050 0.287307 -0.151391
C8    C     C_R   0.193742 0.903295 0.207333 -0.134785
C9    C     C_R   0.578263 0.764662 0.178884 -0.151556
C10   C     C_R   0.705845 0.735151 0.226256 -0.104825
C11   C     C_R   0.707519 0.769683 0.309089 0.267602
C12   C     C_R   0.808030 0.239984 0.190464 0.012025
C13   C     C_R   0.579371 0.819749 0.344124 -0.062399
C14   C     C_R   0.334105 0.849652 0.332261 -0.002124
C15   C     C_R   0.296337 0.248338 0.795678 -0.000907
C16   C     C_R   0.779458 0.372811 0.404471 0.544797
C17   C     C_R   0.436568 0.172347 0.766924 0.055686
C18   C     C_R   0.456900 0.242633 0.713090 -0.015597
C19   C     C_R   0.201268 0.381950 0.680025 -0.156029
C20   C     C_R   0.180311 0.349916 0.750530 -0.173124
C21   C     C_R   0.561087 0.043201 0.793947 0.309139
C22   C     C_R   0.697843 0.013195 0.775486 -0.115630
C23   C     C_R   0.818103 0.224258 0.271750 0.020717
C24   C     C_R   0.713298 0.109370 0.739945 -0.141233
C25   C     C_R   0.593301 0.227219 0.712470 -0.095584
C26   C     C_R   0.340599 0.328739 0.661387 0.006771
C27   C     C_1   0.846795 0.329604 0.705349 -0.073920
C28   C     C_R   0.357622 0.770050 0.627166 0.547391
C29   C     C_1   0.892784 0.294581 0.771907 -0.074665
C30   C     C_1   0.338183 0.811538 0.709129 -0.017488
C31   C     C_1   0.312215 0.839308 0.777177 -0.015494
C32   C     C_R   0.897395 0.308829 0.089623 0.542855
C33   C     C_R   0.318701 0.300299 0.120129 0.566080
C34   C     C_R   0.907321 0.397036 0.308700 -0.144000
C35   C     C_R   0.291173 0.896047 0.087198 0.540891
C36   C     C_R   0.942340 0.273526 0.854295 0.538087
C37   C     C_R   0.277938 0.244774 0.878054 0.561398
C38   C     C_R   0.278491 0.885499 0.857090 0.535514
C39   C     C_R   0.372017 0.350079 0.586628 0.542213
C40   C     C_R   0.778287 0.378358 0.628830 0.535888
C41   C     C_1   0.343410 0.335614 0.274204 -0.026529
C42   C     C_1   0.330881 0.326841 0.203458 -0.028853
C43   C     C_R   0.860857 0.324791 0.169699 0.002561
C44   C     C_3   0.821101 0.827125 0.428596 -0.052275
C45   C     C_R   0.917192 0.396062 0.229407 -0.138462
C46   C     C_3   0.960838 0.824553 0.463215 -0.322053
C47   C     C_3   0.676314 0.840786 0.867221 -0.000920
C48   C     C_3   0.653116 0.757159 0.921329 -0.333237
C49   C     C_R   0.750163 0.166635 0.132339 -0.093748
C50   C     C_R   0.720030 0.066269 0.153720 -0.111244
C51   C     C_R   0.743115 0.041052 0.232902 -0.117366
C52   C     C_R   0.794481 0.115868 0.291214 -0.084726
Cr1   Cr    Cr6+3 0.608100 0.610860 0.522250 1.011503
Cr2   Cr    Cr6+3 0.288890 0.599990 0.488420 0.995918
Cr3   Cr    Cr6+3 0.603040 0.289190 0.489390 0.988368
Cr4   Cr    Cr6+3 0.053960 0.052250 0.967380 1.000116
Cr5   Cr    Cr6+3 0.059890 0.373160 0.992710 0.995015
Cr6   Cr    Cr6+3 0.373370 0.061690 0.991710 0.999522
H1    H     H_    0.939385 0.463785 0.352950 0.174098
H2    H     H_    0.969603 0.451878 0.214990 0.152442
H3    H     H_    0.680533 0.006581 0.108764 0.130652
H4    H     H_    0.719015 0.965335 0.249870 0.150124
H5    H     H_    0.819168 0.084056 0.350727 0.135020
H6    H     H_    0.108281 0.915794 0.312926 0.135752
H7    H     H_    0.581790 0.741839 0.114869 0.125749
H8    H     H_    0.088165 0.941752 0.175492 0.161115
H9    H     H_    0.795303 0.773530 0.468693 0.138072
H10   H     H_    0.737973 0.941978 0.427074 0.129888
H11   H     H_    0.989588 0.878915 0.425513 0.153702
H12   H     H_    0.802587 0.695670 0.197677 0.130128
H13   H     H_    0.949958 0.881583 0.524525 0.093703
H14   H     H_    0.045893 0.711528 0.465755 0.199896
H15   H     H_    0.736596 0.892302 0.905439 0.106597
H16   H     H_    0.741561 0.760476 0.820077 0.132742
H17   H     H_    0.593536 0.702028 0.887357 0.164102
H18   H     H_    0.758369 0.674309 0.945574 0.112903
H19   H     H_    0.596213 0.829616 0.972845 0.162624
H20   H     H_    0.574499 0.854339 0.407102 0.113429
H21   H     H_    0.110684 0.452783 0.642616 0.135122
H22   H     H_    0.074438 0.406518 0.770683 0.136666
H23   H     H_    0.796008 0.918060 0.790072 0.093627
H24   H     H_    0.818720 0.088295 0.730614 0.138360
H25   H     H_    0.605145 0.304993 0.687475 0.161314
H26   H     H_    0.727784 0.185869 0.070240 0.135663
O1    O     O_R   0.749810 0.499790 0.438040 -0.511090
O2    O     O_R   0.411730 0.181020 0.091530 -0.521076
O3    O     O_R   0.365010 0.944360 0.063320 -0.519530
O4    O     O_R   0.477660 0.726260 0.439290 -0.509104
O5    O     O_R   0.159380 0.906670 0.876210 -0.521952
O6    O     O_R   0.930820 0.177420 0.886730 -0.487725
O7    O     O_R   0.910360 0.395420 0.895720 -0.526876
O8    O     O_R   0.186010 0.361730 0.919870 -0.510336
O9    O     O_R   0.400000 0.173010 0.914630 -0.471079
O10   O     O_R   0.354140 0.936940 0.899340 -0.480213
O11   O     O_3   0.162410 0.162370 0.983930 -0.288302
O12   O     O_R   0.298970 0.468800 0.557390 -0.510718
O13   O     O_R   0.260150 0.743000 0.412270 -0.528103
O14   O     O_R   0.297740 0.466550 0.394720 -0.494736
O15   O     O_R   0.488080 0.253500 0.386430 -0.521131
O16   O     O_R   0.722670 0.303800 0.421940 -0.514736
O17   O     O_R   0.751130 0.502220 0.613520 -0.508272
O18   O     O_R   0.478890 0.728510 0.601960 -0.490138
O19   O     O_R   0.261470 0.745430 0.587750 -0.534384
O20   O     O_3   0.836822 0.751883 0.351178 -0.584368
O21   O     O_3   0.545138 0.945866 0.831274 -0.524973
O22   O     O_R   0.489400 0.255930 0.561910 -0.525807
O23   O     O_R   0.723890 0.306050 0.584610 -0.520232
O24   O     O_3   0.500010 0.500010 0.500020 -0.243184
O25   O     O_R   0.171100 0.914680 0.053100 -0.519876
O26   O     O_R   0.941680 0.184840 0.050710 -0.501633
O27   O     O_R   0.922080 0.403420 0.072610 -0.529397
O28   O     O_R   0.196880 0.369150 0.083850 -0.495501

loop_
_geom_bond_atom_site_label_1
_geom_bond_atom_site_label_2
_ccdc_geom_bond_type
C39   O22   A    
C45   H2    S    
C8    H8    S    
Cr5   O8    S    
C4    O14   A    
C27   C29   T    
C41   C42   T    
C48   H18   S    
C19   C20   A    
C18   C26   A    
Cr6   O11   S    
Cr6   O3    S    
C12   C49   A    
C44   O20   S    
C7    C8    A    
Cr5   O27   S    
C51   H4    S    
C29   C36   S    
C32   O26   A    
C33   C42   S    
C49   H26   S    
C32   O27   A    
Cr6   O9    S    
C16   O1    A    
C12   C43   A    
C30   C31   T    
C26   C39   S    
Cr5   O28   S    
C4    C41   S    
Cr4   O11   S    
C19   C26   A    
C24   H24   S    
C15   C37   S    
C46   H11   S    
C40   O17   A    
C35   O3    A    
C7    C14   A    
Cr1   O17   S    
C47   O21   S    
Cr3   O16   S    
Cr2   O13   S    
C11   O20   S    
C2    C16   S    
C9    C10   A    
C27   C40   S    
C46   H14   S    
C35   O25   A    
C2    C34   A    
C1    O4    A    
Cr4   O6    S    
C21   C22   A    
C48   H17   S    
C18   C25   A    
Cr6   O2    S    
Cr4   O26   S    
C44   C46   S    
C50   C51   A    
C15   C20   A    
C39   O12   A    
C20   H22   S    
Cr3   O22   S    
C51   C52   A    
C22   H23   S    
Cr2   O19   S    
C24   C25   A    
C47   H15   S    
C3    C8    A    
C1    O13   A    
C33   O28   A    
C16   O16   A    
C17   C21   A    
Cr3   O23   S    
C48   H19   S    
C33   O2    A    
C5    C9    A    
C6    C14   A    
C47   C48   S    
C12   C23   A    
C3    C35   S    
Cr1   O18   S    
C38   O10   A    
C17   C18   A    
C37   O9    A    
C34   C45   A    
C19   H21   S    
C43   C45   A    
C46   H13   S    
C40   O23   A    
C10   H12   S    
C36   O7    A    
Cr4   O5    S    
C34   H1    S    
C22   C24   A    
C44   H10   S    
Cr4   O25   S    
C36   O6    A    
C15   C17   A    
C13   H20   S    
Cr5   O7    S    
C37   O8    A    
Cr2   O12   S    
C47   H16   S    
C3    C5    A    
C52   H5    S    
C31   C38   S    
Cr2   O24   S    
Cr3   O24   S    
C38   O5    A    
C28   C30   S    
Cr6   O10   S    
C6    C13   A    
C11   C13   A    
C28   O19   A    
C23   C52   A    
C5    C6    A    
Cr1   O24   S    
C32   C43   S    
Cr1   O4    S    
C9    H7    S    
C7    H6    S    
C10   C11   A    
C28   O18   A    
C49   C50   A    
Cr5   O11   S    
C4    O15   A    
Cr3   O15   S    
C2    C23   A    
C25   H25   S    
C50   H3    S    
Cr2   O14   S    
C44   H9    S    
Cr1   O1    S    
C1    C14   S    
C21   O21   S    
