data_mof_unit_47690.cif
_audit_creation_date              2012-12-10T17:20:25-0500
_audit_creation_method            fapswitch 2.2
_symmetry_space_group_name_H-M    P1
_symmetry_Int_Tables_number       1
_space_group_crystal_system       triclinic
_cell_length_a                    11.675331
_cell_length_b                    10.818986
_cell_length_c                    9.661787
_cell_angle_alpha                 88.466364
_cell_angle_beta                  88.847801
_cell_angle_gamma                 94.165223
_cell_volume                      1216.47380325

loop_
_atom_site_label
_atom_site_type_symbol
_atom_type_description
_atom_site_fract_x
_atom_site_fract_y
_atom_site_fract_z
_atom_type_partial_charge
C1    C     C_R   0.511338 0.263616 0.502416 0.819942
C2    C     C_R   0.426376 0.042189 0.868819 -0.188820
C3    C     C_R   0.361488 0.933111 0.840521 -0.112786
C4    C     C_R   0.378675 0.875550 0.715479 -0.101235
C5    C     C_R   0.451861 0.934131 0.611605 0.036835
C6    C     C_R   0.495409 0.057183 0.629691 0.069088
C7    C     C_R   0.528967 0.130040 0.509416 -0.204433
C8    C     C_R   0.556442 0.071502 0.386539 0.134822
C9    C     C_R   0.526360 0.945006 0.373626 0.127160
C10   C     C_R   0.482828 0.873258 0.490681 -0.184136
C11   C     C_R   0.678431 0.633141 0.135798 -0.131797
C12   C     C_R   0.284126 0.497534 0.501157 0.802471
C13   C     C_R   0.781893 0.668058 0.064719 0.091148
C14   C     C_R   0.791289 0.636107 0.925764 0.094665
C15   C     C_R   0.688975 0.622315 0.853291 0.197662
C16   C     C_R   0.589976 0.563242 0.922269 0.084832
C17   C     C_R   0.588427 0.563996 0.071032 0.156764
C18   C     C_R   0.416834 0.437204 0.079604 -0.018965
C19   C     C_R   0.415644 0.436038 0.932603 0.206768
C20   C     C_R   0.491302 0.737385 0.497303 0.840687
C21   C     C_R   0.715401 0.496457 0.499218 0.822813
C22   C     C_1   0.161891 0.491474 0.503033 -0.167202
C23   C     C_1   0.058993 0.486622 0.502191 0.030257
C24   C     C_1   0.938876 0.484401 0.500124 0.040578
C25   C     C_1   0.836471 0.487871 0.498703 -0.147139
C26   C     C_R   0.501894 0.099990 0.767990 0.185002
Cu1   Cu    Cu3+1 0.499990 0.499990 0.640660 0.947799
Cu2   Cu    Cu3+1 0.500010 0.500010 0.359340 0.972605
H1    H     H_    0.423216 0.077619 0.972490 0.164365
H2    H     H_    0.304621 0.888249 0.919507 0.169250
H3    H     H_    0.332851 0.786644 0.699351 0.152433
H4    H     H_    0.349886 0.384726 0.139892 0.143710
H5    H     H_    0.668232 0.666459 0.238351 0.216200
N1    N     N_R   0.501070 0.501210 0.147910 -0.188634
N2    N     N_R   0.501110 0.501290 0.852040 -0.208193
O1    O     O_R   0.499990 0.319640 0.618810 -0.613373
O2    O     O_R   0.500000 0.319660 0.381240 -0.546315
O3    O     O_R   0.337190 0.500000 0.618790 -0.584456
O4    O     O_R   0.337200 0.500030 0.381210 -0.573062
O5    O     O_R   0.500000 0.680340 0.618760 -0.548978
O6    O     O_R   0.500010 0.680360 0.381190 -0.567945
O7    O     O_R   0.662800 0.499970 0.618790 -0.566121
O8    O     O_R   0.662810 0.500000 0.381210 -0.582212
I1    I     I_    0.666218 0.169132 0.232129 -0.381225
I2    I     I_    0.951417 0.652357 0.814087 -0.427277
I3    I     I_    0.681265 0.805966 0.772527 -0.331429
C27   C     C_3   0.319563 0.354730 0.872495 -0.404337
C28   C     C_3   0.205189 0.414827 0.882523 -0.748927
H6    H     H_    0.213181 0.510481 0.837115 0.280600
H7    H     H_    0.138696 0.358988 0.825947 0.246193
H8    H     H_    0.176419 0.419046 0.992458 0.238461
H9    H     H_    0.337684 0.328866 0.765744 0.255524
H10   H     H_    0.310292 0.264866 0.931517 0.165880
C29   C     C_3   0.602998 0.181105 0.822075 -0.354255
C30   C     C_3   0.714521 0.183742 0.735317 -0.727577
H11   H     H_    0.734351 0.088637 0.707822 0.271701
H12   H     H_    0.709942 0.241641 0.639762 0.237736
H13   H     H_    0.786579 0.225049 0.796261 0.242562
H14   H     H_    0.579053 0.276323 0.840411 0.220225
H15   H     H_    0.624582 0.142872 0.925267 0.238222
I4    I     I_    0.519801 0.878688 0.167442 -0.393560
C31   C     C_3   0.870412 0.756826 0.129323 -0.347334
C32   C     C_3   0.928868 0.697718 0.250576 -0.787757
H16   H     H_    0.868405 0.689373 0.340595 0.247402
H17   H     H_    0.957034 0.605404 0.223131 0.268378
H18   H     H_    0.005203 0.757949 0.279625 0.249163
H19   H     H_    0.937309 0.793671 0.053201 0.240605
H20   H     H_    0.827382 0.838739 0.165873 0.228972

loop_
_geom_bond_atom_site_label_1
_geom_bond_atom_site_label_2
_ccdc_geom_bond_type
C3    H2    S    
C23   C24   S    
C32   H17   S    
C31   C32   S    
C15   I3    S    
C1    O2    A    
Cu1   O1    S    
C21   O8    A    
C11   C13   A    
C9    C10   A    
Cu2   O8    S    
C27   C28   S    
C14   C15   A    
C31   H20   S    
Cu1   O5    S    
C30   H11   S    
Cu1   N2    S    
C12   O4    A    
C28   H7    S    
C2    C3    A    
C6    C26   A    
C32   H18   S    
Cu2   N1    S    
C5    C10   A    
C2    C26   A    
C29   H15   S    
C13   C14   A    
C18   N1    A    
Cu1   O7    S    
C8    I1    S    
C6    C7    A    
C10   C20   S    
C31   H19   S    
C2    H1    S    
C9    I4    S    
C27   H10   S    
C26   C29   S    
C28   H6    S    
C20   O6    A    
C14   I2    S    
C29   H14   S    
C30   H12   S    
C16   N2    A    
C12   O3    A    
C5    C6    A    
C20   O5    A    
C19   C27   S    
C28   H8    S    
C4    H3    S    
C18   H4    S    
C17   N1    A    
Cu1   O3    S    
C3    C4    A    
C16   C17   A    
C12   C22   S    
Cu2   O6    S    
C11   H5    S    
C24   C25   T    
C18   C19   A    
C30   H13   S    
C27   H9    S    
Cu1   Cu2   S    
C7    C8    A    
C21   C25   S    
C29   C30   S    
C4    C5    A    
C19   N2    A    
C21   O7    A    
Cu2   O4    S    
C1    C7    S    
C22   C23   T    
C15   C16   A    
C11   C17   A    
C13   C31   S    
C32   H16   S    
C1    O1    A    
Cu2   O2    S    
C8    C9    A    
