data_mof_unit_38350.cif
_audit_creation_date              2012-12-11T15:44:52-0500
_audit_creation_method            fapswitch 2.2
_symmetry_space_group_name_H-M    P1
_symmetry_Int_Tables_number       1
_space_group_crystal_system       triclinic
_cell_length_a                    6.932576
_cell_length_b                    16.815738
_cell_length_c                    17.056691
_cell_angle_alpha                 100.357927
_cell_angle_beta                  88.203218
_cell_angle_gamma                 91.640006
_cell_volume                      1954.50788956

loop_
_atom_site_label
_atom_site_type_symbol
_atom_type_description
_atom_site_fract_x
_atom_site_fract_y
_atom_site_fract_z
_atom_type_partial_charge
O1    O     O_R   0.494370 0.415690 0.413450 -0.540754
O2    O     O_R   0.819420 0.429360 0.578420 -0.540801
O3    O     O_R   0.994280 0.584310 0.586550 -0.540806
C1    C     C_R   0.646084 0.413216 0.604718 0.702932
O4    O     O_R   0.823790 0.406230 0.413570 -0.543452
O5    O     O_R   0.998670 0.561000 0.420530 -0.536184
C2    C     C_R   0.655079 0.383035 0.384950 0.684905
O6    O     O_R   0.489970 0.439000 0.579470 -0.540927
O7    O     O_3   0.662300 0.550810 0.502470 -0.367451
V1    V     V_3+5 0.935380 0.490570 0.499540 1.399212
O8    O     O_R   0.328650 0.570640 0.421580 -0.539459
C3    C     C_R   0.163686 0.586871 0.395092 0.698618
O9    O     O_R   0.324290 0.593770 0.586430 -0.543801
C4    C     C_R   0.154908 0.617002 0.615043 0.684892
V2    V     V_3+5 0.435930 0.509430 0.500460 1.400878
O10   O     O_3   0.159140 0.449190 0.497530 -0.369221
C5    C     C_R   0.312319 0.723769 0.717530 -0.156361
H1    H     H_    0.453382 0.704476 0.693729 0.116705
C6    C     C_R   0.301277 0.787538 0.782681 -0.151457
H2    H     H_    0.434339 0.815524 0.806914 0.117946
C7    C     C_R   0.121306 0.814798 0.815934 -0.044149
C8    C     C_R   0.952690 0.776556 0.782106 -0.155891
H3    H     H_    0.811622 0.795856 0.805893 0.115837
C9    C     C_R   0.963732 0.712787 0.716961 -0.150283
H4    H     H_    0.830665 0.684810 0.692724 0.118175
C10   C     C_R   0.143702 0.685472 0.683761 -0.046235
C11   C     C_R   0.168189 0.639161 0.333106 -0.074121
C12   C     C_R   0.095372 0.862544 0.168617 -0.210288
C13   C     C_R   0.938523 0.824701 0.288295 0.313864
C14   C     C_R   0.958307 0.877305 0.232463 0.322932
C15   C     C_R   0.218557 0.796745 0.164038 -0.312821
C16   C     C_R   0.200413 0.744047 0.219828 0.094359
C17   C     C_R   0.058397 0.757338 0.281995 -0.004420
C18   C     C_R   0.041775 0.703904 0.337572 -0.197205
C19   C     C_R   0.309495 0.627458 0.271480 -0.170680
C20   C     C_R   0.323760 0.678474 0.214924 -0.161327
H5    H     H_    0.935235 0.713929 0.385944 0.152337
H6    H     H_    0.409590 0.578449 0.267063 0.117739
H7    H     H_    0.434252 0.667524 0.168155 0.113286
H8    H     H_    0.325389 0.785386 0.115797 0.149808
C21   C     C_R   0.617726 0.359280 0.664613 -0.070615
C22   C     C_R   0.647027 0.140720 0.835364 -0.069043
C23   C     C_R   0.864723 0.197257 0.742784 -0.200732
C24   C     C_R   0.827148 0.143006 0.794771 -0.161449
C25   C     C_R   0.503367 0.193470 0.821576 -0.240599
C26   C     C_R   0.541112 0.248859 0.769686 0.160663
C27   C     C_R   0.723538 0.251035 0.730174 0.160431
C28   C     C_R   0.761321 0.306464 0.678326 -0.241159
C29   C     C_R   0.437552 0.356939 0.705153 -0.163052
C30   C     C_R   0.399918 0.302629 0.757073 -0.201913
H9    H     H_    0.900208 0.307060 0.647365 0.124779
H10   H     H_    0.323699 0.396976 0.696324 0.131088
H11   H     H_    0.004910 0.197437 0.712852 0.121341
H12   H     H_    0.259708 0.302427 0.786982 0.120658
H13   H     H_    0.941011 0.102984 0.803623 0.131313
H14   H     H_    0.364485 0.192882 0.852541 0.124765
C31   C     C_R   0.812328 0.279172 0.278950 -0.161761
H15   H     H_    0.953370 0.300496 0.300259 0.115477
C32   C     C_R   0.801011 0.215762 0.213493 -0.150786
H16   H     H_    0.933964 0.189949 0.186687 0.116970
C33   C     C_R   0.620948 0.185778 0.183472 -0.054222
C34   C     C_R   0.452574 0.221167 0.220670 -0.166528
H17   H     H_    0.311499 0.199555 0.199613 0.113408
C35   C     C_R   0.463922 0.284739 0.285976 -0.150174
H18   H     H_    0.330931 0.310377 0.312935 0.118148
C36   C     C_R   0.643953 0.314644 0.316085 -0.045316
O11   O     O_R   0.774880 0.061150 0.920630 -0.543120
O12   O     O_R   0.440980 0.093710 0.086500 -0.546798
O13   O     O_R   0.266190 0.938890 0.079390 -0.538565
C37   C     C_R   0.609731 0.117039 0.114989 0.703138
O14   O     O_R   0.445420 0.070740 0.921670 -0.541615
O15   O     O_R   0.270660 0.915760 0.913380 -0.542642
C38   C     C_R   0.618737 0.086871 0.895343 0.698040
O16   O     O_R   0.770400 0.084270 0.086640 -0.536288
O17   O     O_3   0.602590 0.949210 0.997500 -0.365254
V3    V     V_3+5 0.329470 0.009420 0.000470 1.401615
O18   O     O_R   0.940650 0.906250 0.913470 -0.546670
C39   C     C_R   0.110059 0.883131 0.884788 0.676435
O19   O     O_R   0.936210 0.929220 0.078300 -0.519263
C40   C     C_R   0.100994 0.913459 0.105233 0.758286
V4    V     V_3+5 0.828930 0.990510 0.999490 1.433425
O20   O     O_3   0.105680 0.050790 0.002500 -0.374964
O21   O     O_3   0.817309 0.845187 0.354362 -0.550306
C41   C     C_3   0.629701 0.814934 0.335167 0.116685
H19   H     H_    0.628566 0.747780 0.318793 0.115428
H20   H     H_    0.572408 0.840993 0.285223 0.160239
C42   C     C_3   0.496966 0.838310 0.407849 -0.688845
H21   H     H_    0.495395 0.905155 0.425642 0.220202
H22   H     H_    0.348004 0.815741 0.394005 0.190972
H23   H     H_    0.547852 0.811543 0.458261 0.216295
O22   O     O_3   0.837380 0.942378 0.240114 -0.549550
C43   C     C_3   0.929072 0.011458 0.284550 0.135160
H24   H     H_    0.005422 0.046245 0.242865 0.099750
H25   H     H_    0.035261 0.997151 0.327717 0.112279
C44   C     C_3   0.776272 0.064358 0.332189 -0.680711
H26   H     H_    0.707648 0.032498 0.377899 0.225905
H27   H     H_    0.843571 0.122030 0.362406 0.172683
H28   H     H_    0.663205 0.077816 0.292171 0.220035

loop_
_geom_bond_atom_site_label_1
_geom_bond_atom_site_label_2
_ccdc_geom_bond_type
C33   C37   S    
C42   H21   S    
C18   H5    S    
C44   H26   S    
C41   C42   S    
C31   C36   A    
C1    O6    A    
V4    O20   S    
C44   H28   S    
C25   C26   A    
C34   H17   S    
C5    C10   A    
C16   C20   A    
C6    C7    A    
C9    C10   A    
C13   O21   S    
O5    C3    A    
O14   V3    S    
C31   C32   A    
C1    C21   S    
V2    O10   S    
C13   C17   A    
C15   H8    S    
O13   V3    S    
O15   C39   A    
O8    V2    S    
C23   H11   S    
C28   H9    S    
C15   C16   A    
C25   H14   S    
C7    C39   S    
C37   O16   A    
C34   C35   A    
O11   C38   A    
O7    V1    S    
O15   V3    S    
C32   H16   S    
O9    C4    A    
C22   C24   A    
C21   C29   A    
C5    H1    S    
C20   H7    S    
C11   C18   A    
C32   C33   A    
C3    C11   S    
C27   C28   A    
C19   H6    S    
C9    H4    S    
V3    O20   S    
O22   C43   S    
O4    C2    A    
O17   V4    S    
C11   C19   A    
O18   C39   A    
C43   C44   S    
C4    C10   S    
C19   C20   A    
C35   C36   A    
O2    C1    A    
O17   V3    S    
C13   C14   A    
O21   C41   S    
O18   V4    S    
C29   H10   S    
C43   H25   S    
C17   C18   A    
C30   H12   S    
C41   H19   S    
O3    C4    A    
O1    V2    S    
O11   V4    S    
O6    V2    S    
O9    V2    S    
C23   C24   A    
C8    C9    A    
O16   V4    S    
O2    V1    S    
O19   V4    S    
C26   C27   A    
C22   C38   S    
O1    C2    A    
C12   C15   A    
C41   H20   S    
C14   O22   S    
O5    V1    S    
O8    C3    A    
C44   H27   S    
O12   V3    S    
C26   C30   A    
C16   C17   A    
C6    H2    S    
C12   C14   A    
O7    V2    S    
O4    V1    S    
O3    V1    S    
V1    O10   S    
C35   H18   S    
C2    C36   S    
C24   H13   S    
C31   H15   S    
C43   H24   S    
C5    C6    A    
C21   C28   A    
C33   C34   A    
C12   C40   S    
O19   C40   A    
O12   C37   A    
C29   C30   A    
C42   H23   S    
O14   C38   A    
C42   H22   S    
C8    H3    S    
O13   C40   A    
C7    C8    A    
C23   C27   A    
C22   C25   A    
