data_mof_unit_30397.cif
_audit_creation_date              2012-12-10T20:40:57-0500
_audit_creation_method            fapswitch 2.2
_symmetry_space_group_name_H-M    P1
_symmetry_Int_Tables_number       1
_space_group_crystal_system       triclinic
_cell_length_a                    27.715712
_cell_length_b                    10.729015
_cell_length_c                    9.840262
_cell_angle_alpha                 90.520343
_cell_angle_beta                  89.864399
_cell_angle_gamma                 90.445095
_cell_volume                      2925.90616959

loop_
_atom_site_label
_atom_site_type_symbol
_atom_type_description
_atom_site_fract_x
_atom_site_fract_y
_atom_site_fract_z
_atom_type_partial_charge
C1    C     C_R   0.497330 0.260105 0.498761 0.866653
C2    C     C_R   0.276818 0.461296 0.394243 -0.095828
C3    C     C_R   0.253099 0.509790 0.508343 0.318609
C4    C     C_R   0.101844 0.511656 0.523968 -0.052188
C5    C     C_R   0.127140 0.399275 0.538839 -0.020654
C6    C     C_R   0.101763 0.288109 0.558649 -0.136878
C7    C     C_R   0.127731 0.623518 0.504070 -0.021039
C8    C     C_R   0.353485 0.504357 0.502122 -0.032714
C9    C     C_R   0.646365 0.496326 0.500802 -0.047030
C10   C     C_R   0.974324 0.401020 0.563635 0.045698
C11   C     C_R   0.974705 0.623433 0.500543 0.045761
C12   C     C_R   0.406048 0.500727 0.500311 0.855245
C13   C     C_R   0.949267 0.511897 0.531854 0.071899
C14   C     C_R   0.947325 0.295288 0.604333 -0.217343
C15   C     C_R   0.897314 0.296164 0.605231 -0.136965
C16   C     C_R   0.872391 0.402390 0.566043 -0.020585
C17   C     C_R   0.898168 0.510891 0.530299 -0.052010
C18   C     C_R   0.872745 0.618074 0.492031 -0.023240
C19   C     C_R   0.822319 0.613856 0.487199 0.510298
C20   C     C_R   0.821963 0.402857 0.562006 0.506732
C21   C     C_R   0.724010 0.425436 0.419209 -0.124852
C22   C     C_R   0.673638 0.418843 0.412263 0.076048
C23   C     C_R   0.500228 0.739713 0.500280 0.908387
C24   C     C_R   0.669715 0.574220 0.595548 -0.247547
C25   C     C_R   0.719614 0.577963 0.602073 -0.095700
C26   C     C_R   0.746775 0.504100 0.513716 0.281758
C27   C     C_R   0.025292 0.399301 0.553766 0.046539
C28   C     C_R   0.050767 0.512090 0.528446 0.071107
C29   C     C_R   0.025762 0.625186 0.506795 0.046267
C30   C     C_R   0.051808 0.287820 0.565875 -0.216319
C31   C     C_R   0.102927 0.735330 0.490318 -0.135979
C32   C     C_R   0.948031 0.729096 0.461491 -0.216331
C33   C     C_R   0.898034 0.726168 0.457332 -0.136224
C34   C     C_R   0.593841 0.497496 0.499787 0.879304
C35   C     C_R   0.052907 0.736468 0.491935 -0.216268
C36   C     C_R   0.517112 0.066544 0.604573 0.081356
C37   C     C_R   0.496787 0.127555 0.494154 -0.174285
C38   C     C_R   0.481403 0.059557 0.376441 0.077696
C39   C     C_R   0.485430 0.930646 0.380223 -0.214962
C40   C     C_R   0.501209 0.871342 0.497661 -0.133738
C41   C     C_R   0.519212 0.939465 0.606564 0.071374
C42   C     C_3   0.507135 0.931636 0.754372 -0.479060
C43   C     C_3   0.504025 0.073035 0.752954 -0.089778
C44   C     C_R   0.465952 0.433402 0.070922 0.089042
C45   C     C_R   0.177552 0.400753 0.532613 0.503797
C46   C     C_R   0.535861 0.557398 0.072155 0.631755
C47   C     C_R   0.535906 0.557026 0.928094 -0.250344
C48   C     C_R   0.465868 0.433753 0.928112 0.158651
C49   C     C_3   0.412855 0.454493 0.923053 -0.460642
C50   C     C_3   0.412883 0.453661 0.076885 -0.478639
C51   C     C_R   0.178153 0.620798 0.499032 0.503983
C52   C     C_R   0.279367 0.556151 0.618994 -0.100861
C53   C     C_R   0.329426 0.553395 0.616020 -0.219889
C54   C     C_R   0.326935 0.458804 0.391008 -0.227524
H1    H     H_    0.344788 0.419417 0.303187 0.146305
H2    H     H_    0.260908 0.593719 0.707229 0.140489
H3    H     H_    0.122100 0.822893 0.477793 0.190881
H4    H     H_    0.964686 0.814959 0.429401 0.142414
H5    H     H_    0.649192 0.633088 0.664219 0.159809
H6    H     H_    0.879267 0.809306 0.426013 0.191251
H7    H     H_    0.737281 0.638101 0.675954 0.154510
H8    H     H_    0.036637 0.826920 0.483902 0.139596
H9    H     H_    0.473864 0.874389 0.294731 0.172468
H10   H     H_    0.471703 0.885510 0.773320 0.194646
H11   H     H_    0.256359 0.425168 0.308733 0.140157
H12   H     H_    0.537447 0.893896 0.814762 0.204857
H13   H     H_    0.466461 0.106090 0.768749 0.157057
H14   H     H_    0.564186 0.605697 0.873708 0.176864
H15   H     H_    0.403689 0.547025 0.880931 0.207332
H16   H     H_    0.393155 0.374011 0.877030 0.205283
H17   H     H_    0.403214 0.545148 0.123020 0.217624
H18   H     H_    0.393562 0.372135 0.119667 0.196382
H19   H     H_    0.120427 0.200269 0.568297 0.190269
H20   H     H_    0.745945 0.367657 0.353054 0.143892
H21   H     H_    0.878245 0.212484 0.636048 0.191012
H22   H     H_    0.963739 0.210606 0.638753 0.142731
H23   H     H_    0.035020 0.197649 0.577275 0.139664
H24   H     H_    0.349246 0.590783 0.701907 0.148786
N1    N     N_R   0.201752 0.510436 0.512879 -0.358238
N2    N     N_R   0.798164 0.507152 0.521490 -0.351455
N3    N     N_R   0.499670 0.499140 0.142800 -0.159821
N4    N     N_R   0.499670 0.499180 0.857150 -0.136225
O1    O     O_R   0.500010 0.316790 0.614690 -0.618879
O2    O     O_2   0.796803 0.300149 0.598431 -0.564545
O3    O     O_2   0.203484 0.727154 0.479558 -0.554042
O4    O     O_2   0.797564 0.714930 0.447136 -0.554555
O5    O     O_R   0.500000 0.316760 0.385350 -0.636555
O6    O     O_R   0.428760 0.500040 0.614660 -0.621417
O7    O     O_R   0.428750 0.500000 0.385310 -0.629250
O8    O     O_R   0.500000 0.683240 0.614650 -0.620200
O9    O     O_R   0.499990 0.683210 0.385310 -0.592413
O10   O     O_R   0.571250 0.500000 0.614690 -0.630708
O11   O     O_R   0.571240 0.499960 0.385340 -0.555984
O12   O     O_2   0.202314 0.293834 0.547066 -0.554613
Zn1   Zn    Zn3+2 0.500000 0.500020 0.653130 0.936074
Zn2   Zn    Zn3+2 0.500000 0.499980 0.346870 0.983568
C55   C     C_3   0.458655 0.122223 0.252666 -0.359706
C56   C     C_3   0.434972 0.034497 0.146820 -0.393940
C57   C     C_3   0.409178 0.107022 0.036447 -0.889616
H25   H     H_    0.377795 0.157072 0.080225 0.264897
H26   H     H_    0.434302 0.174720 0.988688 0.256920
H27   H     H_    0.395850 0.041445 0.956802 0.255834
H28   H     H_    0.463139 0.976596 0.096872 0.225983
H29   H     H_    0.408050 0.972814 0.197130 0.236881
H30   H     H_    0.430429 0.187419 0.289842 0.211610
H31   H     H_    0.487061 0.176149 0.198602 0.214312
C58   C     C_3   0.540613 0.141755 0.846243 -0.364269
C59   C     C_3   0.593791 0.131159 0.802531 -0.305845
C60   C     C_3   0.626482 0.207123 0.897033 -0.871413
H32   H     H_    0.616561 0.307244 0.894708 0.266347
H33   H     H_    0.623316 0.172826 0.002699 0.259515
H34   H     H_    0.664576 0.197972 0.863466 0.267049
H35   H     H_    0.605221 0.032205 0.803838 0.223772
H36   H     H_    0.598560 0.167291 0.697971 0.220559
H37   H     H_    0.530917 0.241834 0.849410 0.217603
H38   H     H_    0.536263 0.106041 0.951344 0.196505
F1    F     F_    0.571116 0.619875 0.140017 -0.654639
C61   C     C_3   0.650886 0.323838 0.316215 -0.410077
C62   C     C_3   0.629038 0.214076 0.394896 -0.352612
C63   C     C_3   0.607827 0.115607 0.299025 -0.836478
H39   H     H_    0.578859 0.156538 0.236105 0.255357
H40   H     H_    0.636403 0.077221 0.231729 0.265686
H41   H     H_    0.592217 0.038045 0.359196 0.262147
H42   H     H_    0.657425 0.170326 0.457854 0.239268
H43   H     H_    0.600063 0.247264 0.463738 0.207884
H44   H     H_    0.623390 0.368156 0.251204 0.241172
H45   H     H_    0.678567 0.286474 0.244969 0.201732

loop_
_geom_bond_atom_site_label_1
_geom_bond_atom_site_label_2
_ccdc_geom_bond_type
C10   C27   A    
C1    O5    A    
C15   H21   S    
C21   C26   A    
C41   C42   S    
C34   O11   A    
C32   H4    S    
C2    H11   S    
C3    N1    S    
C51   O3    S    
C55   C56   S    
O8    Zn1   S    
C62   H42   S    
C52   C53   A    
C28   C29   A    
C60   H33   S    
C5    C6    A    
C9    C22   A    
C15   C16   A    
C59   C60   S    
C18   C19   A    
C47   N4    A    
C59   H36   S    
C50   H18   S    
C61   C62   S    
O9    Zn2   S    
C54   H1    S    
C30   H23   S    
C16   C17   A    
C56   H28   S    
C58   C59   S    
C63   H41   S    
C16   C20   A    
C55   H30   S    
C19   O4    S    
O6    Zn1   S    
C49   H15   S    
C21   C22   A    
C27   C30   A    
C36   C41   A    
C38   C55   S    
C45   O12   S    
C4    C28   A    
C63   H40   S    
C34   O10   A    
C7    C31   A    
C20   N2    A    
C12   O7    A    
C24   C25   A    
C44   N3    A    
C10   C14   A    
C60   H34   S    
C8    C54   A    
C39   C40   A    
N3    Zn2   S    
C12   O6    A    
C43   C58   S    
C4    C7    A    
C25   C26   A    
C5    C45   A    
C21   H20   S    
O10   Zn1   S    
C26   N2    S    
C46   F1    S    
C14   H22   S    
C59   H35   S    
C50   H17   S    
C37   C38   A    
C46   N3    A    
C57   H25   S    
C8    C12   S    
O1    Zn1   S    
O5    Zn2   S    
C17   C18   A    
C23   O8    A    
C45   N1    A    
C25   H7    S    
C62   C63   S    
C33   H6    S    
C58   H37   S    
C55   H31   S    
C62   H43   S    
C43   H13   S    
C48   C49   S    
C6    C30   A    
C11   C32   A    
C56   C57   S    
O11   Zn2   S    
C49   H16   S    
C20   O2    S    
C2    C54   A    
C9    C34   S    
C31   C35   A    
C42   C43   S    
C42   H10   S    
C47   H14   S    
C63   H39   S    
C6    H19   S    
C44   C50   S    
C22   C61   S    
C46   C47   A    
C40   C41   A    
N4    Zn1   S    
C57   H26   S    
C4    C5    A    
C10   C13   A    
C8    C53   A    
C3    C52   A    
C9    C24   A    
C1    C37   S    
C1    O1    A    
C39   H9    S    
C29   C35   A    
C13   C17   A    
C32   C33   A    
C31   H3    S    
O7    Zn2   S    
C2    C3    A    
C7    C51   A    
C44   C48   A    
C60   H32   S    
C11   C13   A    
C38   C39   A    
C24   H5    S    
C56   H29   S    
C48   N4    A    
C53   H24   S    
C35   H8    S    
C23   O9    A    
C19   N2    A    
C18   C33   A    
C51   N1    A    
C58   H38   S    
C52   H2    S    
C57   H27   S    
C11   C29   A    
C36   C37   A    
C49   C50   S    
C61   H45   S    
C27   C28   A    
C42   H12   S    
C14   C15   A    
C36   C43   S    
C61   H44   S    
C23   C40   S    
