data_mof_unit_59789.cif
_audit_creation_date              2012-12-10T16:47:25-0500
_audit_creation_method            fapswitch 2.2
_symmetry_space_group_name_H-M    P1
_symmetry_Int_Tables_number       1
_space_group_crystal_system       triclinic
_cell_length_a                    10.58805
_cell_length_b                    8.683945
_cell_length_c                    7.53005
_cell_angle_alpha                 103.190255
_cell_angle_beta                  95.228561
_cell_angle_gamma                 93.49444
_cell_volume                      668.89731233

loop_
_atom_site_label
_atom_site_type_symbol
_atom_type_description
_atom_site_fract_x
_atom_site_fract_y
_atom_site_fract_z
_atom_type_partial_charge
C1    C     C_R   0.495989 0.199843 0.453096 0.858372
C2    C     C_R   0.504011 0.800157 0.546904 0.858372
C3    C     C_R   0.259596 0.499452 0.500313 0.776443
C4    C     C_R   0.740404 0.500548 0.499686 0.776443
C5    C     C_3   0.039836 0.378450 0.567235 -0.155552
C6    C     C_3   0.960164 0.621550 0.432765 -0.155552
C7    C     C_3   0.944244 0.362099 0.394606 -0.180008
C8    C     C_3   0.055756 0.637901 0.605394 -0.180008
C9    C     C_3   0.877392 0.500351 0.499855 0.019727
C10   C     C_3   0.122608 0.499649 0.500145 0.019727
C11   C     C_3   0.970691 0.516730 0.672796 -0.115879
C12   C     C_3   0.029309 0.483270 0.327204 -0.115878
C13   C     C_2   0.493907 0.031495 0.427297 -0.336508
C14   C     C_2   0.506093 0.968505 0.572703 -0.336508
Cu1   Cu    Cu3+1 0.514140 0.517380 0.684380 1.087740
Cu2   Cu    Cu3+1 0.485860 0.482620 0.315620 1.087740
H1    H     H_    0.895291 0.249551 0.308391 0.150393
H2    H     H_    0.104709 0.750449 0.691609 0.150393
H3    H     H_    0.075744 0.279276 0.622343 0.166366
H4    H     H_    0.924256 0.720724 0.377657 0.166366
H5    H     H_    0.944186 0.530452 0.814576 0.164458
H6    H     H_    0.055814 0.469548 0.185424 0.164458
N1    N     N_2   0.464560 0.456420 0.038510 0.117752
N2    N     N_2   0.535440 0.543580 0.961490 0.117752
O1    O     O_R   0.509190 0.286130 0.619780 -0.548613
O2    O     O_R   0.490810 0.713870 0.380220 -0.548613
O3    O     O_R   0.485310 0.256770 0.308360 -0.565405
O4    O     O_R   0.514690 0.743230 0.691640 -0.565404
O5    O     O_R   0.328790 0.514640 0.655680 -0.547299
O6    O     O_R   0.671210 0.485360 0.344320 -0.547299
O7    O     O_R   0.304910 0.485280 0.344260 -0.574120
O8    O     O_R   0.695090 0.514720 0.655740 -0.574120
Cl1   Cl    Cl    0.348802 0.318543 0.906587 -0.527360
Cl2   Cl    Cl    0.651197 0.681457 0.093413 -0.527360
H7    H     H_    0.482253 0.959117 0.287569 0.209492
H8    H     H_    0.517747 0.040883 0.712431 0.209492

loop_
_geom_bond_atom_site_label_1
_geom_bond_atom_site_label_2
_ccdc_geom_bond_type
C3    O7    A    
N1    N2    D    
Cu1   O5    S    
C5    H3    S    
C12   H6    S    
C6    H4    S    
C6    C9    S    
Cu1   O8    S    
C2    O2    A    
C3    C10   S    
C13   C14   D    
Cu2   O7    S    
C1    O1    A    
C9    C11   S    
C3    O5    A    
Cu1   O4    S    
C4    O8    A    
C10   C12   S    
Cu2   O3    S    
C8    C11   S    
C6    C8    S    
C8    C10   S    
Cu1   N2    S    
C5    C11   S    
Cu2   N1    S    
C6    C12   S    
C7    C12   S    
C2    C14   S    
C8    H2    S    
Cu1   O1    S    
C1    C13   S    
Cu2   O6    S    
Cu1   Cu2   S    
C7    C9    S    
C5    C10   S    
C1    O3    A    
C5    C7    S    
C14   H8    S    
C2    O4    A    
N1    Cl1   S    
C4    C9    S    
C11   H5    S    
C13   H7    S    
C4    O6    A    
C7    H1    S    
Cu2   O2    S    
N2    Cl2   S    
