data_mof_unit_20884.cif
_audit_creation_date              2012-12-11T17:05:33-0500
_audit_creation_method            fapswitch 2.2
_symmetry_space_group_name_H-M    P1
_symmetry_Int_Tables_number       1
_space_group_crystal_system       triclinic
_cell_length_a                    6.951137
_cell_length_b                    14.538318
_cell_length_c                    16.005657
_cell_angle_alpha                 90.239336
_cell_angle_beta                  90.027209
_cell_angle_gamma                 89.92888
_cell_volume                      1617.48159053

loop_
_atom_site_label
_atom_site_type_symbol
_atom_type_description
_atom_site_fract_x
_atom_site_fract_y
_atom_site_fract_z
_atom_type_partial_charge
O1    O     O_R   0.494380 0.415640 0.412830 -0.539397
O2    O     O_R   0.823960 0.405540 0.586560 -0.515169
O3    O     O_R   0.994270 0.584360 0.587170 -0.547749
C1    C     C_R   0.655385 0.382871 0.614722 0.725978
O4    O     O_R   0.824090 0.404620 0.413450 -0.544668
O5    O     O_R   0.994400 0.583430 0.412820 -0.543337
C2    C     C_R   0.655294 0.382267 0.384627 0.686430
O6    O     O_R   0.494250 0.416570 0.587180 -0.543589
O7    O     O_3   0.660800 0.558670 0.500000 -0.374238
V1    V     V_3+5 0.935650 0.489120 0.500000 1.408880
O8    O     O_R   0.324110 0.594460 0.413440 -0.536056
C3    C     C_R   0.154934 0.616511 0.384632 0.709791
O9    O     O_R   0.323980 0.595380 0.586550 -0.540920
C4    C     C_R   0.154757 0.617460 0.615522 0.694983
V2    V     V_3+5 0.435660 0.510880 0.500000 1.402564
O10   O     O_3   0.160640 0.441330 0.500000 -0.367127
C5    C     C_3   0.929996 0.702664 0.715356 -0.334645
H1    H     H_    0.831834 0.721445 0.663708 0.123946
H2    H     H_    0.872088 0.636602 0.739698 0.144399
C6    C     C_3   0.917755 0.775667 0.785400 -0.327678
H3    H     H_    0.844857 0.745152 0.840637 0.144211
H4    H     H_    0.827325 0.834224 0.763899 0.129687
H5    H     H_    0.122636 0.913519 0.710034 0.133362
C7    C     C_3   0.240622 0.781317 0.661588 0.328610
C8    C     C_3   0.251449 0.652307 0.764518 -0.408536
C9    C     C_3   0.142474 0.687686 0.685884 0.022207
H6    H     H_    0.404141 0.636587 0.749062 0.136670
H7    H     H_    0.186250 0.586901 0.786641 0.145553
C10   C     C_3   0.121201 0.810549 0.810316 0.072884
C11   C     C_3   0.212754 0.855128 0.731541 -0.381368
C12   C     C_3   0.244343 0.725486 0.835882 -0.329912
H8    H     H_    0.183143 0.693795 0.893155 0.132896
H9    H     H_    0.393489 0.747707 0.851112 0.144444
H10   H     H_    0.397948 0.766496 0.661857 0.089904
H11   H     H_    0.355223 0.885156 0.747917 0.116496
C13   C     C_R   0.271232 0.817113 0.241222 0.093190
C14   C     C_R   0.118237 0.816327 0.184134 -0.113359
C15   C     C_R   0.966985 0.754227 0.199456 -0.179568
H12   H     H_    0.845104 0.751380 0.157621 0.130867
C16   C     C_R   0.977949 0.690485 0.265404 -0.183419
H13   H     H_    0.863714 0.640712 0.272452 0.126555
C17   C     C_R   0.140810 0.686645 0.317850 -0.114477
C18   C     C_R   0.282560 0.753748 0.306183 0.115915
C19   C     C_3   0.494362 0.742976 0.295958 -0.400161
C20   C     C_3   0.482164 0.812380 0.225390 -0.401031
H14   H     H_    0.533753 0.672678 0.274453 0.162519
H15   H     H_    0.515226 0.782605 0.162956 0.169679
C21   C     C_R   0.507983 0.321200 0.745890 0.015344
C22   C     C_R   0.648600 0.314993 0.683453 -0.199659
C23   C     C_R   0.788281 0.244245 0.691013 0.405054
C24   C     C_R   0.777947 0.180741 0.757453 -0.267840
H16   H     H_    0.885338 0.126856 0.761294 0.133446
C25   C     C_R   0.623980 0.182768 0.814692 -0.158062
C26   C     C_R   0.494430 0.256187 0.809040 0.090811
C27   C     C_3   0.279882 0.257047 0.806626 -0.371738
C28   C     C_3   0.295016 0.329115 0.738307 -0.351669
H17   H     H_    0.216336 0.284241 0.865468 0.161469
H18   H     H_    0.219038 0.190664 0.784326 0.182210
H19   H     H_    0.241738 0.398016 0.757933 0.149712
H20   H     H_    0.243771 0.305258 0.676318 0.230757
C29   C     C_R   0.491171 0.314887 0.258196 0.100445
C30   C     C_R   0.647157 0.316320 0.313669 -0.110444
C31   C     C_R   0.799679 0.255026 0.297333 -0.182283
H21   H     H_    0.923296 0.253746 0.338038 0.136975
C32   C     C_R   0.788401 0.190412 0.231630 -0.178322
H22   H     H_    0.904089 0.141377 0.223780 0.129110
C33   C     C_R   0.624076 0.185064 0.180173 -0.111796
C34   C     C_R   0.479643 0.250794 0.193250 0.102311
C35   C     C_3   0.269684 0.236925 0.206648 -0.408829
C36   C     C_3   0.282162 0.307063 0.277014 -0.401853
H23   H     H_    0.236944 0.166266 0.228711 0.167180
H24   H     H_    0.256038 0.277286 0.339844 0.169766
H25   H     H_    0.202954 0.371836 0.263661 0.166989
O11   O     O_R   0.771490 0.080820 0.910070 -0.538326
O12   O     O_R   0.441590 0.092730 0.083780 -0.538807
O13   O     O_R   0.271350 0.913900 0.084390 -0.536450
C37   C     C_R   0.610546 0.114685 0.112967 0.697499
O14   O     O_R   0.441780 0.091820 0.910670 -0.540367
O15   O     O_R   0.271540 0.912980 0.910040 -0.540840
C38   C     C_R   0.610619 0.113446 0.881727 0.720405
O16   O     O_R   0.771300 0.081740 0.084420 -0.538828
O17   O     O_3   0.604960 0.938700 0.997240 -0.372972
V3    V     V_3+5 0.330090 0.008230 0.997220 1.388993
O18   O     O_R   0.941820 0.901930 0.910640 -0.546155
C39   C     C_R   0.110612 0.879961 0.881508 0.672654
O19   O     O_R   0.941630 0.902840 0.083750 -0.543362
C40   C     C_R   0.110467 0.881144 0.112847 0.693995
V4    V     V_3+5 0.830090 0.986410 0.997190 1.378374
O20   O     O_3   0.105080 0.055990 0.997200 -0.365980
H26   H     H_    0.575460 0.768777 0.351144 0.181084
H27   H     H_    0.555587 0.878430 0.239923 0.169197
O21   O     O_3   0.935566 0.236138 0.633644 -0.558725
C41   C     C_3   0.877125 0.176138 0.568999 0.107070
H28   H     H_    0.744460 0.201954 0.537659 0.098858
H29   H     H_    0.850803 0.105642 0.593530 0.111986
C42   C     C_3   0.036396 0.170683 0.504062 -0.732708
H30   H     H_    0.168663 0.141337 0.532441 0.213461
H31   H     H_    0.068994 0.240527 0.480119 0.228076
H32   H     H_    0.990429 0.126232 0.451131 0.170896
H33   H     H_    0.182572 0.260940 0.152703 0.175275
O22   O     O_3   0.208332 0.814586 0.579121 -0.562455
C43   C     C_3   0.013283 0.830146 0.558949 0.106851
H34   H     H_    0.929616 0.860314 0.611362 0.112689
H35   H     H_    0.946333 0.764802 0.537777 0.128419
C44   C     C_3   0.002938 0.897296 0.486516 -0.733822
H36   H     H_    0.078789 0.868472 0.431257 0.226608
H37   H     H_    0.850361 0.910326 0.469636 0.177546
H38   H     H_    0.071471 0.963339 0.504626 0.224561

loop_
_geom_bond_atom_site_label_1
_geom_bond_atom_site_label_2
_ccdc_geom_bond_type
C29   C36   S    
C8    C12   S    
C15   C16   A    
C27   C28   S    
C31   C32   A    
C41   H28   S    
C33   C37   S    
C1    O6    A    
C25   C26   A    
C8    H7    S    
C21   C26   A    
C44   H37   S    
C30   C31   A    
C11   H11   S    
C5    C9    S    
C13   C14   A    
C14   C15   A    
C7    C9    S    
O5    C3    A    
C15   H12   S    
O19   V4    S    
V2    O10   S    
C42   H32   S    
C5    C6    S    
C43   C44   S    
C7    O22   S    
C35   H23   S    
C3    C17   S    
C43   H34   S    
O8    V2    S    
O14   V3    S    
C34   C35   S    
C32   C33   A    
C42   H31   S    
C12   H9    S    
O1    V2    S    
O7    V1    S    
C10   C39   S    
V4    O20   S    
C16   C17   A    
C41   H29   S    
O11   C38   A    
O9    C4    A    
C35   C36   S    
C33   C34   A    
O13   V3    S    
C19   H14   S    
C23   C24   A    
C6    C10   S    
C20   H15   S    
V3    O20   S    
C44   H38   S    
C24   H16   S    
O22   C43   S    
C25   C38   S    
O18   C39   A    
O4    C2    A    
O19   C40   A    
C8    C9    S    
C7    H10   S    
C28   H20   S    
C24   C25   A    
O2    C1    A    
C18   C19   S    
H5    C11   S    
C2    C30   S    
C10   C11   S    
C12   H8    S    
C37   O16   A    
C42   H30   S    
C36   H25   S    
C5    H1    S    
C13   C20   S    
C4    C9    S    
C43   H35   S    
O12   C37   A    
O13   C40   A    
O3    C4    A    
C23   O21   S    
C21   C22   A    
C6    H4    S    
C22   C23   A    
C41   C42   S    
C27   H17   S    
C8    H6    S    
C17   C18   A    
O2    V1    S    
O15   C39   A    
C19   H26   S    
C19   C20   S    
C21   C28   S    
C26   C27   S    
C16   H13   S    
O1    C2    A    
C14   C40   S    
O18   V4    S    
O5    V1    S    
O8    C3    A    
O6    V2    S    
C44   H36   S    
C28   H19   S    
C1    C22   S    
O9    V2    S    
O7    V2    S    
O4    V1    S    
C10   C12   S    
O3    V1    S    
V1    O10   S    
O15   V3    S    
C29   C34   A    
O12   V3    S    
O17   V4    S    
O21   C41   S    
C5    H2    S    
O14   C38   A    
C32   H22   S    
C29   C30   A    
C20   H27   S    
C7    C11   S    
O16   V4    S    
C31   H21   S    
C35   H33   S    
C6    H3    S    
O17   V3    S    
C27   H18   S    
C13   C18   A    
C36   H24   S    
O11   V4    S    
