data_mof_unit_55157.cif
_audit_creation_date              2012-12-10T19:29:38-0500
_audit_creation_method            fapswitch 2.2
_symmetry_space_group_name_H-M    P1
_symmetry_Int_Tables_number       1
_space_group_crystal_system       triclinic
_cell_length_a                    22.265306
_cell_length_b                    22.267438
_cell_length_c                    14.991258
_cell_angle_alpha                 89.999201
_cell_angle_beta                  90.122988
_cell_angle_gamma                 90.000499
_cell_volume                      7432.51848158

loop_
_atom_site_label
_atom_site_type_symbol
_atom_type_description
_atom_site_fract_x
_atom_site_fract_y
_atom_site_fract_z
_atom_type_partial_charge
C1    C     C_R   0.418847 0.918810 0.499929 0.901058
C2    C     C_R   0.581151 0.081192 0.500072 0.901018
C3    C     C_R   0.581151 0.918808 0.500072 0.901055
C4    C     C_R   0.418848 0.081191 0.499927 0.901058
C5    C     C_R   0.918849 0.418808 0.499928 0.901024
C6    C     C_R   0.081153 0.581190 0.500070 0.901060
C7    C     C_R   0.081151 0.418808 0.500073 0.901060
C8    C     C_R   0.918849 0.581192 0.499927 0.901049
C9    C     C_1   0.337283 0.163413 0.499886 -0.059956
C10   C     C_1   0.662715 0.836586 0.500088 -0.059965
C11   C     C_1   0.662709 0.163421 0.500122 -0.059586
C12   C     C_1   0.337276 0.836591 0.499915 -0.059450
C13   C     C_1   0.837287 0.663418 0.499891 -0.059980
C14   C     C_1   0.162708 0.336576 0.500136 -0.059972
C15   C     C_1   0.162732 0.663400 0.500069 -0.059439
C16   C     C_1   0.837289 0.336581 0.499891 -0.059605
C17   C     C_1   0.499998 0.000008 0.190189 0.081896
C18   C     C_1   0.500005 0.999996 0.809811 0.081919
C19   C     C_1   0.999997 0.500001 0.190189 0.081916
C20   C     C_1   0.000003 0.499994 0.809811 0.081898
C21   C     C_3   0.474095 0.949584 0.970186 0.177961
C22   C     C_3   0.525910 0.050425 0.029814 0.177964
C23   C     C_3   0.530703 0.952358 0.029855 0.177617
C24   C     C_3   0.469303 0.047650 0.970144 0.177617
C25   C     C_3   0.971366 0.451072 0.970171 0.177895
C26   C     C_3   0.028634 0.548918 0.029828 0.177891
C27   C     C_3   0.028041 0.450736 0.029841 0.177689
C28   C     C_3   0.971959 0.549253 0.970159 0.177699
C29   C     C_3   0.701750 0.728976 0.545422 0.114329
C30   C     C_3   0.296815 0.269595 0.450104 0.114105
C31   C     C_3   0.298196 0.729050 0.454322 0.114504
C32   C     C_3   0.702734 0.270048 0.548597 0.114452
C33   C     C_3   0.203173 0.230390 0.549933 0.114133
C34   C     C_3   0.798252 0.771029 0.454541 0.114343
C35   C     C_3   0.797264 0.229955 0.451427 0.114489
C36   C     C_3   0.201815 0.770936 0.545648 0.114557
C37   C     C_3   0.227666 0.199696 0.465385 0.202465
C38   C     C_3   0.771235 0.799190 0.539329 0.202360
C39   C     C_3   0.772009 0.200024 0.536082 0.202093
C40   C     C_3   0.228706 0.799240 0.460874 0.201934
C41   C     C_3   0.728767 0.700816 0.460634 0.202317
C42   C     C_3   0.272322 0.300289 0.534652 0.202420
C43   C     C_3   0.271307 0.700745 0.539098 0.201966
C44   C     C_3   0.727990 0.299979 0.463942 0.202081
C45   C     C_1   0.374672 0.125698 0.499816 -0.189035
C46   C     C_1   0.625326 0.874300 0.500177 -0.188991
C47   C     C_1   0.625323 0.125703 0.500186 -0.189025
C48   C     C_1   0.374667 0.874305 0.499827 -0.188939
C49   C     C_1   0.874676 0.625702 0.499816 -0.189006
C50   C     C_1   0.125323 0.374296 0.500191 -0.189048
C51   C     C_1   0.125336 0.625690 0.500168 -0.188929
C52   C     C_1   0.874677 0.374298 0.499819 -0.189026
C53   C     C_3   0.267986 0.240177 0.585215 0.130258
C54   C     C_3   0.734556 0.762375 0.414426 0.130098
C55   C     C_3   0.732774 0.239419 0.414673 0.131409
C56   C     C_3   0.265565 0.762229 0.585542 0.131521
C57   C     C_3   0.765445 0.737630 0.585537 0.130002
C58   C     C_3   0.232003 0.259808 0.414821 0.130160
C59   C     C_3   0.234445 0.737757 0.414430 0.131338
C60   C     C_3   0.767225 0.260585 0.585351 0.131299
C61   C     C_3   0.292038 0.209001 0.500190 -0.093517
C62   C     C_3   0.707965 0.791004 0.499752 -0.093522
C63   C     C_3   0.707955 0.209008 0.499822 -0.093705
C64   C     C_3   0.292030 0.791002 0.500234 -0.093651
C65   C     C_3   0.792037 0.709001 0.500212 -0.093525
C66   C     C_3   0.207950 0.290985 0.499846 -0.093508
C67   C     C_3   0.207981 0.708985 0.499738 -0.093687
C68   C     C_3   0.792044 0.290995 0.500201 -0.093709
C69   C     C_3   0.443373 0.997240 0.029510 0.177279
C70   C     C_3   0.556632 0.002769 0.970490 0.177281
C71   C     C_3   0.943304 0.500337 0.029509 0.177272
C72   C     C_3   0.056696 0.499652 0.970490 0.177274
C73   C     C_3   0.499979 0.000014 0.090602 -0.199041
C74   C     C_3   0.500026 0.999995 0.909398 -0.199054
C75   C     C_3   0.999977 0.500002 0.090602 -0.199060
C76   C     C_3   0.000023 0.499989 0.909398 -0.199049
N1    N     N_1   0.500020 0.000000 0.268010 -0.093899
N2    N     N_1   0.499980 0.000000 0.731990 -0.093890
N3    N     N_1   0.000020 0.500000 0.268010 -0.093891
N4    N     N_1   0.999980 0.500000 0.731990 -0.093900
O1    O     O_R   0.438390 0.938390 0.574460 -0.614815
O2    O     O_R   0.561610 0.061610 0.425540 -0.614815
O3    O     O_R   0.561610 0.938390 0.425540 -0.614315
O4    O     O_R   0.438390 0.061610 0.574460 -0.614298
O5    O     O_R   0.938390 0.438390 0.574460 -0.614789
O6    O     O_R   0.061610 0.561610 0.425540 -0.614793
O7    O     O_R   0.061610 0.438390 0.425540 -0.614245
O8    O     O_R   0.938390 0.561610 0.574460 -0.614263
O9    O     O_R   0.438400 0.938390 0.425520 -0.609400
O10   O     O_R   0.561600 0.061610 0.574480 -0.609521
O11   O     O_R   0.561600 0.938390 0.574480 -0.609944
O12   O     O_R   0.438400 0.061610 0.425520 -0.610079
O13   O     O_R   0.938400 0.438390 0.425520 -0.609549
O14   O     O_R   0.061600 0.561610 0.574480 -0.609421
O15   O     O_R   0.061600 0.438390 0.574480 -0.610132
O16   O     O_R   0.938400 0.561610 0.425520 -0.609999
Zn1   Zn    Zn3+2 0.500000 0.000000 0.599450 0.969345
Zn2   Zn    Zn3+2 0.500000 0.000000 0.400550 0.969323
Zn3   Zn    Zn3+2 0.000000 0.500000 0.599450 0.969323
Zn4   Zn    Zn3+2 0.000000 0.500000 0.400550 0.969339
N5    N     N_2   0.617412 0.006488 0.936547 -0.295686
H1    H     H_    0.624813 0.980029 0.881259 0.226975
C77   C     C_3   0.664974 0.002823 0.002208 -0.780467
H2    H     H_    0.707991 0.016678 0.971108 0.233024
H3    H     H_    0.669866 0.956114 0.026838 0.259461
H4    H     H_    0.656006 0.033043 0.059433 0.245268
N6    N     N_2   0.382593 0.993522 0.063452 -0.295638
H5    H     H_    0.375192 0.019983 0.118737 0.226922
C78   C     C_3   0.335031 0.997183 0.997791 -0.780407
H6    H     H_    0.292014 0.983331 0.028892 0.233039
H7    H     H_    0.343998 0.966960 0.940571 0.245257
H8    H     H_    0.330141 0.043891 0.973154 0.259464
N7    N     N_2   0.117590 0.500032 0.936554 -0.295624
H9    H     H_    0.123529 0.473214 0.881255 0.226910
C79   C     C_3   0.164878 0.493755 0.002214 -0.780369
H10   H     H_    0.208591 0.505231 0.971121 0.233041
H11   H     H_    0.167200 0.446845 0.026824 0.259437
H12   H     H_    0.157582 0.524415 0.059451 0.245253
N8    N     N_2   0.882410 0.499957 0.063445 -0.295667
H13   H     H_    0.876470 0.526772 0.118747 0.226976
C80   C     C_3   0.835122 0.506236 0.997784 -0.780417
H14   H     H_    0.791409 0.494756 0.028875 0.233017
H15   H     H_    0.842421 0.475580 0.940543 0.245262
H16   H     H_    0.832799 0.553148 0.973181 0.259435
N9    N     N_2   0.208798 0.142642 0.427820 -0.291343
H17   H     H_    0.225456 0.105761 0.461248 0.227524
C81   C     C_3   0.146126 0.136646 0.403919 -0.815321
H18   H     H_    0.141231 0.099928 0.354387 0.241872
H19   H     H_    0.128371 0.178480 0.373924 0.247663
H20   H     H_    0.119029 0.124888 0.463357 0.242517
N10   N     N_2   0.788931 0.855038 0.581828 -0.291299
H21   H     H_    0.773244 0.892907 0.549836 0.227719
C82   C     C_3   0.850836 0.860239 0.610172 -0.814879
H22   H     H_    0.854213 0.895343 0.662483 0.241911
H23   H     H_    0.879642 0.873852 0.553441 0.242429
H24   H     H_    0.867758 0.817492 0.638328 0.247662
N11   N     N_2   0.790540 0.143320 0.575158 -0.290862
H25   H     H_    0.774164 0.106133 0.542176 0.227594
C83   C     C_3   0.853001 0.137548 0.600375 -0.814389
H26   H     H_    0.857448 0.101354 0.650843 0.241956
H27   H     H_    0.870528 0.179686 0.629720 0.247808
H28   H     H_    0.880593 0.125154 0.541731 0.242336
N12   N     N_2   0.210960 0.855168 0.418649 -0.290738
H29   H     H_    0.226644 0.892973 0.450806 0.227823
C84   C     C_3   0.149034 0.860405 0.390423 -0.814043
H30   H     H_    0.145579 0.895749 0.338479 0.241936
H31   H     H_    0.120232 0.873709 0.447315 0.242296
H32   H     H_    0.132171 0.817766 0.361836 0.247973
N13   N     N_2   0.711075 0.644967 0.418131 -0.291280
H33   H     H_    0.726766 0.607098 0.450118 0.227726
C85   C     C_3   0.649169 0.639762 0.389793 -0.814832
H34   H     H_    0.645791 0.604651 0.337492 0.241921
H35   H     H_    0.632246 0.682506 0.361626 0.247649
H36   H     H_    0.620365 0.626155 0.446529 0.242426
N14   N     N_2   0.291193 0.357340 0.572224 -0.291332
H37   H     H_    0.274527 0.394226 0.538815 0.227525
C86   C     C_3   0.353868 0.363336 0.596108 -0.815243
H38   H     H_    0.358762 0.400017 0.645700 0.241888
H39   H     H_    0.380949 0.375146 0.536676 0.242496
H40   H     H_    0.371643 0.321483 0.626023 0.247625
N15   N     N_2   0.289039 0.644806 0.581303 -0.290680
H41   H     H_    0.273392 0.607013 0.549071 0.227836
C87   C     C_3   0.350948 0.639570 0.609612 -0.814124
H42   H     H_    0.354403 0.604087 0.661347 0.241934
H43   H     H_    0.367727 0.682149 0.638496 0.248040
H44   H     H_    0.379818 0.626457 0.552701 0.242313
N16   N     N_2   0.709457 0.356682 0.424865 -0.290840
H45   H     H_    0.725839 0.393871 0.457834 0.227602
C88   C     C_3   0.646993 0.362455 0.399665 -0.814362
H46   H     H_    0.642542 0.398635 0.349175 0.241983
H47   H     H_    0.619411 0.374869 0.458311 0.242324
H48   H     H_    0.629455 0.320310 0.370353 0.247770
C89   C     C_3   0.643529 0.710621 0.592611 -0.360644
C90   C     C_3   0.647975 0.649110 0.637108 -0.893903
H49   H     H_    0.668284 0.615506 0.591682 0.261779
H50   H     H_    0.675173 0.651817 0.698932 0.262090
H51   H     H_    0.602314 0.633555 0.655708 0.248104
H52   H     H_    0.631964 0.744827 0.643611 0.206838
H53   H     H_    0.606485 0.710163 0.542958 0.203178
C91   C     C_3   0.353544 0.286460 0.397957 -0.360484
C92   C     C_3   0.347710 0.346582 0.349773 -0.893483
H54   H     H_    0.318692 0.342058 0.290042 0.262082
H55   H     H_    0.328754 0.381535 0.394236 0.261832
H56   H     H_    0.392749 0.361514 0.327160 0.248179
H57   H     H_    0.392031 0.288365 0.445046 0.203231
H58   H     H_    0.363611 0.250749 0.348551 0.207002
C93   C     C_3   0.356361 0.710823 0.406871 -0.360710
C94   C     C_3   0.351915 0.649369 0.362206 -0.895259
H59   H     H_    0.331777 0.615664 0.407634 0.261917
H60   H     H_    0.324566 0.652114 0.300534 0.261864
H61   H     H_    0.397559 0.633922 0.343317 0.248014
H62   H     H_    0.367803 0.745112 0.355929 0.206584
H63   H     H_    0.393489 0.710346 0.456385 0.203072
C95   C     C_3   0.645542 0.287381 0.599268 -0.360568
C96   C     C_3   0.650961 0.347925 0.646377 -0.894905
H64   H     H_    0.679415 0.343920 0.706784 0.261798
H65   H     H_    0.670356 0.382470 0.601627 0.261947
H66   H     H_    0.605722 0.363078 0.667759 0.248038
H67   H     H_    0.607484 0.288874 0.551383 0.203150
H68   H     H_    0.635018 0.252113 0.649165 0.206679
C97   C     C_3   0.146444 0.213532 0.602086 -0.360570
C98   C     C_3   0.152273 0.153409 0.650270 -0.893431
H69   H     H_    0.171202 0.118448 0.605795 0.261849
H70   H     H_    0.181313 0.157924 0.709979 0.262092
H71   H     H_    0.107237 0.138494 0.672917 0.248177
H72   H     H_    0.136385 0.249244 0.651493 0.206904
H73   H     H_    0.107954 0.211632 0.555002 0.203240
C99   C     C_3   0.856472 0.789382 0.407349 -0.360714
C100  C     C_3   0.852029 0.850893 0.362854 -0.893828
H74   H     H_    0.824811 0.848195 0.301051 0.262103
H75   H     H_    0.831745 0.884503 0.408294 0.261789
H76   H     H_    0.897689 0.866436 0.344221 0.248098
H77   H     H_    0.893519 0.789837 0.456999 0.203199
H78   H     H_    0.868033 0.755176 0.356346 0.206748
C101  C     C_3   0.854457 0.212622 0.400757 -0.360652
C102  C     C_3   0.849040 0.152076 0.353652 -0.894843
H79   H     H_    0.829650 0.117531 0.398406 0.261968
H80   H     H_    0.820583 0.156078 0.293248 0.261797
H81   H     H_    0.894278 0.136925 0.332267 0.248028
H82   H     H_    0.864981 0.247888 0.350858 0.206572
H83   H     H_    0.892515 0.211131 0.448643 0.203164
C103  C     C_3   0.143650 0.789182 0.593082 -0.360735
C104  C     C_3   0.148116 0.850631 0.637762 -0.895143
H84   H     H_    0.175410 0.847856 0.699486 0.261841
H85   H     H_    0.168327 0.884319 0.592376 0.261937
H86   H     H_    0.102471 0.866121 0.656566 0.247987
H87   H     H_    0.106533 0.789683 0.543551 0.203114
H88   H     H_    0.132183 0.754893 0.644011 0.206459
C105  C     C_3   0.712574 0.780325 0.321135 -0.364297
C106  C     C_3   0.741135 0.742526 0.247699 -0.856969
H89   H     H_    0.790636 0.747550 0.248092 0.258588
H90   H     H_    0.729615 0.694415 0.256056 0.283518
H91   H     H_    0.723970 0.757664 0.181847 0.240153
H92   H     H_    0.663041 0.775542 0.317657 0.197336
H93   H     H_    0.722777 0.828460 0.309647 0.206457
C107  C     C_3   0.292741 0.225007 0.678070 -0.364535
C108  C     C_3   0.266349 0.264980 0.750759 -0.857017
H94   H     H_    0.277559 0.312785 0.738505 0.283580
H95   H     H_    0.216895 0.259999 0.753939 0.258515
H96   H     H_    0.285465 0.251796 0.816359 0.240036
H97   H     H_    0.282953 0.177270 0.693371 0.206669
H98   H     H_    0.342319 0.229849 0.677973 0.197048
C109  C     C_3   0.287655 0.780057 0.678827 -0.368164
C110  C     C_3   0.259211 0.742131 0.752221 -0.854177
H99   H     H_    0.209710 0.747148 0.752012 0.258773
H100  H     H_    0.270721 0.694035 0.743651 0.284160
H101  H     H_    0.276473 0.757161 0.818070 0.240045
H102  H     H_    0.337196 0.775308 0.682145 0.197722
H103  H     H_    0.277435 0.828168 0.690498 0.204973
C111  C     C_3   0.708857 0.223422 0.321644 -0.367931
C112  C     C_3   0.735898 0.262761 0.248719 -0.853919
H104  H     H_    0.724547 0.310662 0.259794 0.284098
H105  H     H_    0.785381 0.257790 0.246649 0.258778
H106  H     H_    0.717399 0.248979 0.183005 0.239936
H107  H     H_    0.718791 0.175557 0.307473 0.204987
H108  H     H_    0.659282 0.228251 0.320661 0.197660
C113  C     C_3   0.207254 0.274976 0.321963 -0.364391
C114  C     C_3   0.233644 0.234994 0.249283 -0.856911
H109  H     H_    0.283099 0.239961 0.246116 0.258607
H110  H     H_    0.222420 0.187193 0.261535 0.283506
H111  H     H_    0.214540 0.248181 0.183677 0.240207
H112  H     H_    0.157675 0.270142 0.322056 0.197150
H113  H     H_    0.217051 0.322711 0.306658 0.206672
C115  C     C_3   0.787418 0.719687 0.678835 -0.364180
C116  C     C_3   0.758854 0.757496 0.752257 -0.856805
H114  H     H_    0.770380 0.805605 0.743894 0.283454
H115  H     H_    0.709353 0.752478 0.751856 0.258659
H116  H     H_    0.776010 0.742363 0.818116 0.240351
H117  H     H_    0.777209 0.671554 0.690330 0.206432
H118  H     H_    0.836951 0.724466 0.682320 0.197458
C117  C     C_3   0.791144 0.276589 0.678376 -0.367742
C118  C     C_3   0.764105 0.237258 0.751312 -0.853861
H119  H     H_    0.714622 0.242231 0.753385 0.258840
H120  H     H_    0.775453 0.189355 0.740242 0.284060
H121  H     H_    0.782608 0.251044 0.817021 0.239787
H122  H     H_    0.840720 0.271760 0.679358 0.197787
H123  H     H_    0.781211 0.324455 0.692540 0.204994
C119  C     C_3   0.212340 0.719932 0.321151 -0.367919
C120  C     C_3   0.240780 0.757851 0.247746 -0.854017
H124  H     H_    0.229277 0.805949 0.256317 0.284126
H125  H     H_    0.290280 0.752825 0.247939 0.258815
H126  H     H_    0.223506 0.742821 0.181903 0.239888
H127  H     H_    0.222548 0.671819 0.309477 0.204920
H128  H     H_    0.162800 0.724693 0.317845 0.197878
N17   N     N_2   0.564307 0.901618 0.064242 -0.297395
H129  H     H_    0.545060 0.882016 0.119498 0.224395
C121  C     C_3   0.585005 0.858547 0.998940 -0.781956
H130  H     H_    0.618461 0.828237 0.030451 0.231231
H131  H     H_    0.606785 0.881375 0.941790 0.247238
H132  H     H_    0.547020 0.830953 0.974126 0.259842
N18   N     N_2   0.435701 0.098392 0.935755 -0.297312
H133  H     H_    0.454952 0.117993 0.880502 0.224415
C122  C     C_3   0.415003 0.141464 0.001056 -0.782309
H134  H     H_    0.381558 0.171783 0.969536 0.231158
H135  H     H_    0.452989 0.169049 0.025886 0.259872
H136  H     H_    0.393209 0.118637 0.058194 0.247129
N19   N     N_2   0.446941 0.895104 0.935871 -0.297219
H137  H     H_    0.420394 0.901940 0.880402 0.224318
C123  C     C_3   0.419889 0.855733 0.001185 -0.782030
H138  H     H_    0.410278 0.811614 0.969800 0.231421
H139  H     H_    0.377023 0.874910 0.025694 0.260702
H140  H     H_    0.450529 0.848264 0.058522 0.246372
N20   N     N_2   0.553065 0.104903 0.064133 -0.297169
H141  H     H_    0.579610 0.098066 0.119603 0.224317
C124  C     C_3   0.580117 0.144276 0.998823 -0.782295
H142  H     H_    0.589732 0.188394 0.030213 0.231348
H143  H     H_    0.549477 0.151750 0.941488 0.246371
H144  H     H_    0.622982 0.125098 0.974310 0.260669
N21   N     N_2   0.058812 0.398226 0.064204 -0.297280
H145  H     H_    0.038517 0.379701 0.119449 0.224419
C125  C     C_3   0.077120 0.354096 0.998880 -0.782533
H146  H     H_    0.108877 0.322004 0.030371 0.231227
H147  H     H_    0.100107 0.375705 0.941732 0.247004
H148  H     H_    0.037683 0.328617 0.974068 0.259886
N22   N     N_2   0.941186 0.601764 0.935801 -0.297358
H149  H     H_    0.961478 0.620290 0.880555 0.224404
C126  C     C_3   0.922879 0.645892 0.001128 -0.782260
H150  H     H_    0.891111 0.677976 0.969645 0.231341
H151  H     H_    0.962314 0.671378 0.025927 0.259853
H152  H     H_    0.899903 0.624280 0.058284 0.247129
N23   N     N_2   0.941267 0.398164 0.935835 -0.297218
H153  H     H_    0.915136 0.406450 0.880369 0.224297
C127  C     C_3   0.912100 0.360322 0.001128 -0.781940
H154  H     H_    0.900080 0.316802 0.969713 0.231185
H155  H     H_    0.870351 0.381815 0.025655 0.260743
H156  H     H_    0.942287 0.351171 0.058456 0.246384
N24   N     N_2   0.058734 0.601826 0.064161 -0.297273
H157  H     H_    0.084866 0.593542 0.119627 0.224301
C128  C     C_3   0.087901 0.639667 0.998865 -0.781672
H158  H     H_    0.099920 0.683188 0.030276 0.231264
H159  H     H_    0.057714 0.648815 0.941537 0.246399
H160  H     H_    0.129650 0.618173 0.974340 0.260766

loop_
_geom_bond_atom_site_label_1
_geom_bond_atom_site_label_2
_ccdc_geom_bond_type
C115  H117  S    
C88   H47   S    
C104  H84   S    
C102  H81   S    
C84   H30   S    
C104  H86   S    
N20   C124  S    
C86   H38   S    
C94   H61   S    
C87   H43   S    
C83   H28   S    
O15   Zn3   S    
C41   N13   S    
C89   H53   S    
N12   H29   S    
C110  H99   S    
C31   C59   S    
C105  H92   S    
C2    O10   A    
N18   H133  S    
C118  H119  S    
C6    O14   A    
C70   C74   S    
C97   H72   S    
C121  H131  S    
C15   C51   T    
C54   C105  S    
C128  H158  S    
C96   H66   S    
N8    C80   S    
N5    C77   S    
C93   H63   S    
O2    Zn2   S    
C27   C75   S    
C101  H83   S    
N15   C87   S    
C92   H55   S    
C98   H69   S    
C20   N4    T    
C127  H154  S    
C72   N7    S    
C126  H152  S    
C101  C102  S    
C105  C106  S    
C38   C57   S    
N20   H141  S    
C4    O4    A    
C18   N2    T    
C79   H12   S    
C106  H90   S    
C90   H51   S    
C34   C54   S    
C86   H40   S    
C3    O3    A    
C28   C71   S    
C84   H32   S    
C113  H113  S    
C83   H26   S    
C1    C48   S    
C2    C47   S    
C3    C46   S    
C110  H101  S    
C71   N8    S    
C25   C76   S    
N17   C121  S    
C101  H82   S    
C44   C55   S    
C14   C50   T    
C103  H87   S    
C118  H121  S    
C39   C60   S    
C42   N14   S    
C120  H125  S    
C80   H15   S    
C24   N18   S    
C96   H64   S    
C117  H123  S    
C25   N23   S    
C128  H159  S    
C109  H102  S    
C59   C119  S    
C31   C93   S    
N14   H37   S    
N9    C81   S    
C30   C91   S    
C93   C94   S    
C8    O8    A    
C121  H132  S    
C117  C118  S    
N7    C79   S    
C57   C115  S    
C99   H77   S    
C69   N6    S    
C70   N5    S    
N13   H33   S    
N16   C88   S    
C31   C43   S    
C21   N19   S    
N18   C122  S    
C102  H80   S    
C11   C63   S    
N13   C85   S    
C42   C53   S    
C12   C64   S    
C79   H10   S    
C107  C108  S    
C94   H60   S    
C113  C114  S    
C28   N22   S    
C90   H49   S    
C59   C67   S    
C53   C61   S    
C95   H68   S    
C115  C116  S    
C124  H143  S    
O3    Zn2   S    
C55   C63   S    
N6    H5    S    
C56   C64   S    
C25   C71   S    
C5    O5    A    
C85   H35   S    
C108  H94   S    
C17   C73   S    
N19   C123  S    
C23   C70   S    
C33   C66   S    
C100  H74   S    
C4    C45   S    
N21   C125  S    
C111  H108  S    
C117  H122  S    
O8    Zn3   S    
N24   C128  S    
C112  H106  S    
C21   C69   S    
C127  H155  S    
C107  H97   S    
C81   H19   S    
C122  H134  S    
O5    Zn3   S    
C120  H124  S    
C15   C67   S    
N2    Zn1   S    
C26   C75   S    
C77   H3    S    
C116  H115  S    
C53   C107  S    
C93   H62   S    
C91   H58   S    
N23   H153  S    
C119  H127  S    
C125  H147  S    
N4    Zn3   S    
C30   C61   S    
C43   N15   S    
C82   H23   S    
O7    Zn4   S    
C115  H118  S    
C29   C41   S    
C7    C50   S    
C104  H85   S    
C6    O6    A    
O9    Zn2   S    
C114  H109  S    
C26   N24   S    
C83   H27   S    
C89   H52   S    
O16   Zn4   S    
C128  H160  S    
C110  H100  S    
C60   C117  S    
C123  H140  S    
C44   C68   S    
C43   C67   S    
C108  H96   S    
C119  C120  S    
C38   C62   S    
C35   C101  S    
C22   C70   S    
C96   H65   S    
C9    C45   T    
N5    H1    S    
C109  H103  S    
N14   C86   S    
C26   C72   S    
C11   C47   T    
C12   C48   T    
N15   H41   S    
C112  H104  S    
C92   H54   S    
N11   C83   S    
C98   H70   S    
O4    Zn1   S    
C122  H136  S    
C1    O1    A    
C109  C110  S    
C100  H76   S    
C3    O11   A    
N19   H137  S    
C126  H151  S    
C7    O7    A    
C99   C100  S    
C79   H11   S    
C98   H71   S    
C85   H34   S    
C27   N21   S    
C69   C73   S    
O6    Zn4   S    
O10   Zn1   S    
C95   C96   S    
N22   H149  S    
C86   H39   S    
N6    C78   S    
C10   C62   S    
C84   H31   S    
C113  H112  S    
C88   H46   S    
N3    Zn4   S    
C87   H44   S    
N16   H45   S    
C54   C62   S    
C34   C99   S    
C111  C112  S    
N21   H145  S    
C33   C37   S    
C44   N16   S    
C105  H93   S    
C35   C39   S    
C123  H138  S    
N17   H129  S    
C36   C56   S    
C37   C61   S    
C121  H130  S    
C103  H88   S    
C17   N1    T    
C97   H73   S    
C55   C111  S    
O11   Zn1   S    
C19   N3    T    
C80   H14   S    
C29   C57   S    
C21   C23   S    
C82   H22   S    
C9    C61   S    
C2    O2    A    
C32   C60   S    
C81   H18   S    
C28   C76   S    
C7    O15   A    
C91   C92   S    
N7    H9    S    
C92   H56   S    
C99   H78   S    
C16   C52   T    
C57   C65   S    
N8    H13   S    
C78   H7    S    
C22   N20   S    
N24   H157  S    
C78   H6    S    
C106  H89   S    
C90   H50   S    
C112  H105  S    
C60   C68   S    
C124  H142  S    
C77   H2    S    
C30   C42   S    
C8    C49   S    
C27   C72   S    
C4    O12   A    
C125  H146  S    
C39   N11   S    
C97   C98   S    
C87   H42   S    
C8    O16   A    
C72   C76   S    
C36   C67   S    
O12   Zn2   S    
C13   C65   S    
C89   C90   S    
O14   Zn3   S    
C85   H36   S    
C20   C76   S    
C106  H91   S    
C120  H126  S    
C107  H98   S    
C80   H16   S    
C58   C66   S    
N23   C127  S    
C10   C46   T    
C82   H24   S    
C5    C52   S    
C16   C68   S    
C6    C51   S    
C116  H114  S    
C37   C58   S    
C18   C74   S    
C40   C59   S    
C119  H128  S    
C103  C104  S    
C23   C73   S    
C34   C65   S    
C24   C69   S    
C37   N9    S    
C33   C53   S    
N22   C126  S    
C58   C113  S    
C35   C55   S    
C36   C40   S    
C102  H79   S    
C32   C95   S    
C78   H8    S    
C41   C65   S    
C21   C74   S    
C94   H59   S    
C114  H110  S    
C95   H67   S    
O13   Zn4   S    
C124  H144  S    
C14   C66   S    
N1    Zn2   S    
C123  H139  S    
C13   C49   T    
C23   N17   S    
C118  H120  S    
C56   C109  S    
C108  H95   S    
C88   H48   S    
C40   N12   S    
C114  H111  S    
C36   C103  S    
C111  H107  S    
N12   C84   S    
C29   C62   S    
C1    O9    A    
C34   C38   S    
C31   C64   S    
C32   C63   S    
C29   C89   S    
N10   C82   S    
C5    O13   A    
C25   C27   S    
C39   C63   S    
N11   H25   S    
C26   C28   S    
C40   C64   S    
C127  H156  S    
C38   N10   S    
C19   C75   S    
C81   H20   S    
C122  H135  S    
C71   C75   S    
C24   C74   S    
N9    H17   S    
O1    Zn1   S    
C35   C68   S    
C30   C58   S    
C33   C97   S    
C100  H75   S    
C77   H4    S    
C22   C24   S    
C126  H150  S    
C116  H116  S    
C41   C54   S    
C91   H57   S    
C43   C56   S    
C32   C44   S    
C125  H148  S    
C42   C66   S    
C22   C73   S    
N10   H21   S    
