data_mof_unit_8429.cif
_audit_creation_date              2012-12-10T17:46:32-0500
_audit_creation_method            fapswitch 2.2
_symmetry_space_group_name_H-M    P1
_symmetry_Int_Tables_number       1
_space_group_crystal_system       triclinic
_cell_length_a                    20.458333
_cell_length_b                    21.236175
_cell_length_c                    14.75195
_cell_angle_alpha                 89.999974
_cell_angle_beta                  128.13112
_cell_angle_gamma                 90.000027
_cell_volume                      5041.38404931

loop_
_atom_site_label
_atom_site_type_symbol
_atom_type_description
_atom_site_fract_x
_atom_site_fract_y
_atom_site_fract_z
_atom_type_partial_charge
C1    C     C_R   0.603492 0.913091 0.631367 0.849649
C2    C     C_R   0.396508 0.086908 0.368633 0.849650
C3    C     C_R   0.397910 0.912103 0.370437 0.850130
C4    C     C_R   0.602090 0.087896 0.629563 0.850129
C5    C     C_R   0.102090 0.412104 0.629563 0.850130
C6    C     C_R   0.897910 0.587896 0.370437 0.850130
C7    C     C_R   0.896508 0.413092 0.368633 0.849650
C8    C     C_R   0.103492 0.586908 0.631367 0.849649
C9    C     C_R   0.287680 0.806549 0.882868 0.332601
C10   C     C_R   0.712320 0.193451 0.117132 0.332601
C11   C     C_R   0.656265 0.772280 0.061393 0.319780
C12   C     C_R   0.343735 0.227720 0.938607 0.319781
C13   C     C_R   0.843736 0.272280 0.938608 0.319780
C14   C     C_R   0.156264 0.727720 0.061392 0.319780
C15   C     C_R   0.212321 0.306550 0.117133 0.332601
C16   C     C_R   0.787678 0.693450 0.882867 0.332600
C17   C     C_R   0.321796 0.018991 0.665369 -0.150448
C18   C     C_R   0.678203 0.981009 0.334631 -0.150448
C19   C     C_R   0.821797 0.481008 0.665369 -0.150448
C20   C     C_R   0.178203 0.518992 0.334631 -0.150448
C21   C     C_R   0.351123 0.008705 0.602903 0.167095
C22   C     C_R   0.648877 0.991295 0.397097 0.167096
C23   C     C_R   0.851123 0.491295 0.602903 0.167095
C24   C     C_R   0.148877 0.508705 0.397097 0.167095
C25   C     C_R   0.488138 0.995628 0.775498 0.057469
C26   C     C_R   0.511862 0.004372 0.224501 0.057468
C27   C     C_R   0.988138 0.504372 0.775498 0.057469
C28   C     C_R   0.011862 0.495628 0.224501 0.057469
C29   C     C_R   0.461324 0.001818 0.844611 -0.019517
C30   C     C_R   0.538676 0.998182 0.155389 -0.019517
C31   C     C_R   0.961324 0.498182 0.844611 -0.019517
C32   C     C_R   0.038676 0.501818 0.155389 -0.019517
C33   C     C_R   0.376643 0.017385 0.786637 0.101902
C34   C     C_R   0.623356 0.982615 0.213363 0.101902
C35   C     C_R   0.876644 0.482615 0.786637 0.101902
C36   C     C_R   0.123356 0.517385 0.213363 0.101902
C37   C     C_R   0.515294 0.994305 0.968125 0.067687
C38   C     C_R   0.484705 0.005694 0.031875 0.067687
C39   C     C_R   0.015294 0.505695 0.968125 0.067686
C40   C     C_R   0.984705 0.494305 0.031875 0.067686
C41   C     C_R   0.401701 0.025667 0.970434 -0.202633
C42   C     C_R   0.598298 0.974332 0.029565 -0.202633
C43   C     C_R   0.901702 0.474332 0.970435 -0.202633
C44   C     C_R   0.098298 0.525668 0.029565 -0.202633
C45   C     C_R   0.348364 0.030876 0.850682 0.324102
C46   C     C_R   0.651636 0.969124 0.149318 0.324102
C47   C     C_R   0.848365 0.469123 0.850682 0.324102
C48   C     C_R   0.151635 0.530877 0.149318 0.324102
C49   C     C_R   0.661426 0.139341 0.701371 -0.177487
C50   C     C_R   0.338574 0.860659 0.298629 -0.177487
C51   C     C_R   0.339271 0.139699 0.298375 -0.176248
C52   C     C_R   0.660729 0.860301 0.701625 -0.176248
C53   C     C_R   0.160730 0.639699 0.701625 -0.176248
C54   C     C_R   0.839270 0.360301 0.298375 -0.176248
C55   C     C_R   0.838574 0.639341 0.298629 -0.177486
C56   C     C_R   0.161426 0.360659 0.701371 -0.177487
C57   C     C_R   0.757263 0.224118 0.742406 0.289672
C58   C     C_R   0.242737 0.775882 0.257594 0.289672
C59   C     C_R   0.238286 0.221200 0.250828 0.299908
C60   C     C_R   0.761714 0.778800 0.749172 0.299908
C61   C     C_R   0.261715 0.721199 0.749173 0.299909
C62   C     C_R   0.738285 0.278801 0.250827 0.299908
C63   C     C_R   0.742738 0.724118 0.257595 0.289673
C64   C     C_R   0.257262 0.275882 0.742405 0.289672
C65   C     C_R   0.700380 0.176811 0.667694 0.220199
C66   C     C_R   0.299620 0.823189 0.332306 0.220199
C67   C     C_R   0.288902 0.170372 0.320459 0.219920
C68   C     C_R   0.711098 0.829628 0.679541 0.219920
C69   C     C_R   0.211099 0.670372 0.679542 0.219920
C70   C     C_R   0.788902 0.329628 0.320459 0.219920
C71   C     C_R   0.799621 0.676812 0.332307 0.220199
C72   C     C_R   0.200379 0.323188 0.667693 0.220199
C73   C     C_R   0.676055 0.152463 0.804907 -0.243389
C74   C     C_R   0.323945 0.847537 0.195093 -0.243390
C75   C     C_R   0.335909 0.159792 0.205565 -0.233837
C76   C     C_R   0.664091 0.840208 0.794435 -0.233837
C77   C     C_R   0.164091 0.659792 0.794435 -0.233837
C78   C     C_R   0.835909 0.340208 0.205565 -0.233837
C79   C     C_R   0.823944 0.652463 0.195092 -0.243390
C80   C     C_R   0.176056 0.347537 0.804908 -0.243390
C81   C     C_R   0.734328 0.197597 0.882723 0.037723
C82   C     C_R   0.265672 0.802403 0.117277 0.037723
C83   C     C_R   0.294069 0.214953 0.144217 0.036386
C84   C     C_R   0.705931 0.785047 0.855783 0.036386
C85   C     C_R   0.205932 0.714952 0.855783 0.036386
C86   C     C_R   0.794068 0.285047 0.144217 0.036386
C87   C     C_R   0.765671 0.697597 0.117277 0.037723
C88   C     C_R   0.234328 0.302403 0.882723 0.037723
C89   C     C_R   0.779408 0.231595 0.854151 -0.048775
C90   C     C_R   0.220592 0.768405 0.145850 -0.048775
C91   C     C_R   0.247173 0.247855 0.170743 -0.055223
C92   C     C_R   0.752827 0.752145 0.829257 -0.055223
C93   C     C_R   0.252828 0.747855 0.829258 -0.055223
C94   C     C_R   0.747172 0.252145 0.170742 -0.055223
C95   C     C_R   0.720592 0.731595 0.145850 -0.048775
C96   C     C_R   0.279408 0.268405 0.854150 -0.048775
C97   C     C_R   0.745543 0.211637 0.985994 0.052122
C98   C     C_R   0.254457 0.788362 0.014006 0.052122
C99   C     C_R   0.295868 0.236878 0.054452 0.053601
C100  C     C_R   0.704131 0.763122 0.945548 0.053601
C101  C     C_R   0.204132 0.736878 0.945548 0.053601
C102  C     C_R   0.795868 0.263122 0.054452 0.053601
C103  C     C_R   0.754456 0.711637 0.014006 0.052122
C104  C     C_R   0.245544 0.288363 0.985994 0.052123
C105  C     C_R   0.289879 0.825225 0.974885 -0.203359
C106  C     C_R   0.710121 0.174775 0.025115 -0.203360
C107  C     C_R   0.650685 0.788942 0.965704 -0.200099
C108  C     C_R   0.349315 0.211058 0.034296 -0.200100
C109  C     C_R   0.849315 0.288942 0.034296 -0.200100
C110  C     C_R   0.150685 0.711058 0.965704 -0.200100
C111  C     C_R   0.210123 0.325226 0.025116 -0.203359
C112  C     C_R   0.789877 0.674774 0.974884 -0.203359
Cu1   Cu    Cu3+1 0.526640 0.000000 0.436960 1.010960
Cu2   Cu    Cu3+1 0.473360 1.000000 0.563040 1.010960
Cu3   Cu    Cu3+1 0.026640 0.500000 0.436960 1.010960
Cu4   Cu    Cu3+1 0.973360 0.500000 0.563040 1.010960
H1    H     H_    0.376105 0.038149 0.013543 0.145948
H2    H     H_    0.623895 0.961851 0.986457 0.145948
H3    H     H_    0.876106 0.461850 0.013543 0.145948
H4    H     H_    0.123894 0.538150 0.986457 0.145948
H5    H     H_    0.691599 0.989829 0.490199 0.158616
H6    H     H_    0.308401 0.010171 0.509801 0.158616
H7    H     H_    0.191599 0.510171 0.490199 0.158616
H8    H     H_    0.808401 0.489829 0.509801 0.158616
H9    H     H_    0.256228 0.028360 0.617673 0.208562
H10   H     H_    0.743772 0.971640 0.382327 0.208562
H11   H     H_    0.756228 0.471639 0.617673 0.208562
H12   H     H_    0.243771 0.528361 0.382327 0.208562
N1    N     N_R   0.433280 0.000000 0.657760 -0.184196
N2    N     N_R   0.566720 0.000000 0.342240 -0.184196
N3    N     N_R   0.933280 0.500000 0.657760 -0.184196
N4    N     N_R   0.066720 0.500000 0.342240 -0.184196
O1    O     O_R   0.600040 0.935040 0.546740 -0.552824
O2    O     O_R   0.399960 0.064960 0.453260 -0.552824
O3    O     O_R   0.399960 0.935040 0.453260 -0.548362
O4    O     O_R   0.600040 0.064960 0.546740 -0.548362
O5    O     O_R   0.100040 0.435040 0.546740 -0.548362
O6    O     O_R   0.899960 0.564960 0.453260 -0.548362
O7    O     O_R   0.899960 0.435040 0.453260 -0.552824
O8    O     O_R   0.100040 0.564960 0.546740 -0.552824
O9    O     O_R   0.555010 0.935070 0.653220 -0.589347
O10   O     O_R   0.444990 0.064930 0.346780 -0.589348
O11   O     O_R   0.444990 0.935070 0.346780 -0.587389
O12   O     O_R   0.555010 0.064930 0.653220 -0.587388
O13   O     O_R   0.055010 0.435070 0.653220 -0.587388
O14   O     O_R   0.944990 0.564930 0.346780 -0.587389
O15   O     O_R   0.944990 0.435070 0.346780 -0.589348
O16   O     O_R   0.055010 0.564930 0.653220 -0.589347
Br1   Br    Br    0.318512 0.870639 0.823692 -0.413052
Br2   Br    Br    0.681488 0.129360 0.176308 -0.413052
Br3   Br    Br    0.563124 0.798758 0.054541 -0.383477
Br4   Br    Br    0.436876 0.201242 0.945459 -0.383478
Br5   Br    Br    0.936878 0.298757 0.945461 -0.383477
Br6   Br    Br    0.063123 0.701243 0.054540 -0.383477
Br7   Br    Br    0.181490 0.370640 0.176310 -0.413052
Br8   Br    Br    0.818510 0.629360 0.823690 -0.413052
H13   H     H_    0.360974 0.872630 0.178126 0.178876
H14   H     H_    0.639026 0.127370 0.821874 0.178876
H15   H     H_    0.633256 0.868873 0.817898 0.169824
H16   H     H_    0.366744 0.131126 0.182101 0.169824
H17   H     H_    0.866744 0.368874 0.182101 0.169824
H18   H     H_    0.133256 0.631126 0.817899 0.169824
H19   H     H_    0.139027 0.372631 0.821875 0.178876
H20   H     H_    0.860973 0.627369 0.178124 0.178875
Br9   Br    Br    0.327718 0.831511 0.483639 -0.321216
Br10  Br    Br    0.672282 0.168489 0.516362 -0.321217
Br11  Br    Br    0.713569 0.854406 0.555758 -0.358468
Br12  Br    Br    0.286431 0.145594 0.444243 -0.358468
Br13  Br    Br    0.786431 0.354406 0.444243 -0.358468
Br14  Br    Br    0.213570 0.645594 0.555758 -0.358468
Br15  Br    Br    0.172279 0.331510 0.516359 -0.321216
Br16  Br    Br    0.827721 0.668490 0.483640 -0.321216
Br17  Br    Br    0.354122 0.742405 0.749743 -0.263948
Br18  Br    Br    0.645878 0.257595 0.250257 -0.263948
Br19  Br    Br    0.712678 0.785935 0.322437 -0.275837
Br20  Br    Br    0.287321 0.214065 0.677563 -0.275837
Br21  Br    Br    0.787324 0.285933 0.677565 -0.275837
Br22  Br    Br    0.212677 0.714066 0.322436 -0.275837
Br23  Br    Br    0.145879 0.242406 0.250258 -0.263946
Br24  Br    Br    0.854121 0.757594 0.749742 -0.263946
H21   H     H_    0.315651 0.871195 0.009823 0.164076
H22   H     H_    0.684349 0.128805 0.990177 0.164076
H23   H     H_    0.600062 0.819738 0.904302 0.179422
H24   H     H_    0.399938 0.180262 0.095698 0.179422
H25   H     H_    0.899938 0.319738 0.095699 0.179422
H26   H     H_    0.100062 0.680262 0.904302 0.179422
H27   H     H_    0.184351 0.371196 0.990179 0.164076
H28   H     H_    0.815649 0.628804 0.009821 0.164076
Br25  Br    Br    0.236483 0.057743 0.779874 -0.420112
Br26  Br    Br    0.763516 0.942257 0.220126 -0.420112
Br27  Br    Br    0.736484 0.442256 0.779874 -0.420113
Br28  Br    Br    0.263516 0.557744 0.220126 -0.420113
H29   H     H_    0.447372 0.010620 0.186363 0.113011
H30   H     H_    0.552628 0.989380 0.813637 0.113011
H31   H     H_    0.947372 0.489380 0.186363 0.113011
H32   H     H_    0.052628 0.510620 0.813637 0.113011

loop_
_geom_bond_atom_site_label_1
_geom_bond_atom_site_label_2
_ccdc_geom_bond_type
C67   Br12  S    
C75   H16   S    
C57   Br21  S    
C88   C96   A    
C76   H15   S    
C18   H10   S    
Cu3   O15   S    
C27   N3    A    
C12   Br4   S    
C5    C56   S    
C53   C77   A    
C6    C55   S    
C25   N1    A    
C76   C84   A    
C79   C87   A    
C99   C108  A    
Cu3   O14   S    
C9    Br1   S    
C2    O2    A    
C98   C105  A    
C49   C65   A    
C32   C36   A    
C70   Br13  S    
C51   C75   A    
C20   H12   S    
C10   C94   A    
C50   C74   A    
Cu4   O13   S    
C6    O14   A    
C61   C93   A    
C44   H4    S    
C9    C105  A    
Cu3   Cu4   S    
C62   Br18  S    
C63   C95   A    
C37   C42   A    
C28   H31   S    
C33   C45   A    
Cu1   O10   S    
C62   C70   A    
C42   C46   A    
C21   H6    S    
C14   C90   A    
C13   C109  A    
C86   C94   A    
C77   C85   A    
C59   C67   A    
C85   C93   A    
C58   C66   A    
C40   C43   A    
C106  H22   S    
Cu3   O5    S    
C29   C33   A    
C56   C72   A    
Cu1   O4    S    
C87   C95   A    
C16   Br8   S    
Cu2   O3    S    
C34   C46   A    
C64   Br20  S    
C79   H20   S    
Cu4   O6    S    
C97   C102  A    
C26   N2    A    
C4    O4    A    
Cu4   O7    S    
C81   C89   A    
C78   C86   A    
C32   C40   A    
C99   C104  A    
C53   C69   A    
Cu1   O1    S    
C22   N2    A    
C47   Br27  S    
C82   C98   A    
C8    O16   A    
C17   C33   A    
C46   Br26  S    
C1    O1    A    
C73   C81   A    
C88   C104  A    
C3    C50   S    
C7    O15   A    
Cu3   N4    S    
C60   C92   A    
C25   C29   A    
C3    O3    A    
C5    O13   A    
Cu1   N2    S    
C108  H24   S    
C27   C31   A    
C84   C100  A    
C72   Br15  S    
C20   C24   A    
C28   C32   A    
C61   Br17  S    
C64   C96   A    
C38   C41   A    
C39   C40   A    
C12   C108  A    
C30   C34   A    
C42   H2    S    
C51   C67   A    
C109  H25   S    
C101  C110  A    
C65   Br10  S    
C24   H7    S    
C17   C21   A    
Cu1   O11   S    
C107  H23   S    
C103  C112  A    
C28   N4    A    
Cu2   O12   S    
C6    O6    A    
C41   H1    S    
C19   C23   A    
Cu2   O9    S    
C80   H19   S    
C4    O12   A    
C37   C38   A    
C15   C111  A    
C55   C79   A    
C24   N4    A    
C54   C70   A    
C13   Br5   S    
Cu2   O2    S    
C7    C54   S    
C3    O11   A    
C58   Br22  S    
C59   C91   A    
C82   C90   A    
C5    O5    A    
C18   C34   A    
C21   N1    A    
C23   H8    S    
C57   C89   A    
C58   C90   A    
C87   C103  A    
C97   C106  A    
C11   Br3   S    
C63   C71   A    
C26   C30   A    
C62   C94   A    
C11   C107  A    
C2    O10   A    
Cu2   N1    S    
C49   C73   A    
C10   C106  A    
C16   C92   A    
C86   C102  A    
C9    C93   A    
C75   C83   A    
C85   C101  A    
C16   C112  A    
C22   H5    S    
Cu4   O16   S    
Cu1   Cu2   S    
C74   C82   A    
C45   Br25  S    
C77   H18   S    
C14   C110  A    
C110  H26   S    
C100  C107  A    
C66   Br9   S    
C13   C89   A    
C18   C22   A    
C15   Br7   S    
C57   C65   A    
C52   C76   A    
C52   C68   A    
C8    C53   S    
C112  H28   S    
C104  C111  A    
C50   C66   A    
C63   Br19  S    
C39   C44   A    
C60   Br24  S    
C98   C101  A    
C83   C91   A    
C111  H27   S    
C56   C80   A    
C4    C49   S    
C8    O8    A    
C61   C69   A    
C59   Br23  S    
C80   C88   A    
C19   C35   A    
C10   Br2   S    
C7    O7    A    
C17   H9    S    
Cu4   N3    S    
C81   C97   A    
C74   H13   S    
C73   H14   S    
C19   H11   S    
C31   C39   A    
C36   C48   A    
C31   C35   A    
C69   Br14  S    
C64   C72   A    
C100  C103  A    
C1    C52   S    
C55   C71   A    
C48   Br28  S    
C1    O9    A    
C2    C51   S    
C15   C91   A    
C20   C36   A    
C68   Br11  S    
C11   C95   A    
Cu3   O8    S    
C60   C68   A    
C78   H17   S    
C29   C37   A    
C23   N3    A    
C41   C45   A    
C71   Br16  S    
C12   C96   A    
C102  C109  A    
C83   C99   A    
C27   H32   S    
C84   C92   A    
C30   C38   A    
C105  H21   S    
C35   C47   A    
C26   H29   S    
C43   C47   A    
C14   Br6   S    
C25   H30   S    
C44   C48   A    
C43   H3    S    
C54   C78   A    
