data_mof_unit_59913.cif
_audit_creation_date              2012-12-11T14:13:19-0500
_audit_creation_method            fapswitch 2.2
_symmetry_space_group_name_H-M    P1
_symmetry_Int_Tables_number       1
_space_group_crystal_system       triclinic
_cell_length_a                    11.480531
_cell_length_b                    18.961292
_cell_length_c                    10.126694
_cell_angle_alpha                 89.999243
_cell_angle_beta                  109.672221
_cell_angle_gamma                 89.997845
_cell_volume                      2075.77204932

loop_
_atom_site_label
_atom_site_type_symbol
_atom_type_description
_atom_site_fract_x
_atom_site_fract_y
_atom_site_fract_z
_atom_type_partial_charge
C1    C     C_R   0.076866 0.645345 0.142738 0.542282
C2    C     C_R   0.923558 0.354584 0.858078 0.522534
C3    C     C_R   0.923156 0.145352 0.857267 0.542237
C4    C     C_R   0.076438 0.854584 0.141918 0.522559
C5    C     C_R   0.454046 0.475226 0.620513 -0.012880
C6    C     C_R   0.584715 0.533404 0.455179 -0.006739
C7    C     C_R   0.545942 0.975249 0.379373 -0.012722
C8    C     C_R   0.415378 0.033401 0.544839 -0.006696
C9    C     C_2   0.394925 0.926881 0.930300 -0.103766
C10   C     C_2   0.613003 0.068185 0.045307 -0.102185
C11   C     C_2   0.604997 0.426864 0.069743 -0.103765
C12   C     C_2   0.387021 0.568206 0.954670 -0.102071
C13   C     C_2   0.502602 0.958912 0.981165 -0.173131
C14   C     C_2   0.505509 0.035708 0.993975 -0.173097
C15   C     C_2   0.497330 0.458906 0.018794 -0.173186
C16   C     C_2   0.494485 0.535705 0.006031 -0.173075
C17   C     C_2   0.036341 0.928077 0.124600 -0.112076
C18   C     C_2   0.955938 0.070933 0.867653 -0.115941
C19   C     C_2   0.963744 0.428062 0.875407 -0.112116
C20   C     C_2   0.044140 0.570917 0.132355 -0.115931
C21   C     C_2   0.987143 0.959961 0.999353 0.005214
C22   C     C_2   0.013435 0.037437 0.988908 0.001540
C23   C     C_2   0.012887 0.459938 0.000671 0.005119
C24   C     C_2   0.986622 0.537419 0.011107 0.001490
C25   C     C_R   0.464154 0.643923 0.429521 0.556089
C26   C     C_R   0.566136 0.361079 0.628395 0.561811
C27   C     C_R   0.535861 0.143922 0.570488 0.556064
C28   C     C_R   0.433863 0.861082 0.371580 0.561809
C29   C     C_R   0.373945 0.643405 0.969591 0.552234
C30   C     C_R   0.623729 0.354574 0.035790 0.547462
C31   C     C_R   0.626076 0.143391 0.030385 0.552256
C32   C     C_R   0.376254 0.854579 0.964219 0.547411
C33   C     C_R   0.554132 0.437491 0.597546 -0.028101
C34   C     C_R   0.492263 0.573394 0.488299 -0.022013
C35   C     C_R   0.445875 0.937515 0.402350 -0.028153
C36   C     C_R   0.507783 0.073400 0.511700 -0.022020
C37   C     C_R   0.379733 0.445793 0.692827 -0.071919
C38   C     C_R   0.635693 0.553817 0.350736 -0.064190
C39   C     C_R   0.620243 0.945819 0.307052 -0.072026
C40   C     C_R   0.364435 0.053772 0.649341 -0.064211
C41   C     C_R   0.261902 0.470722 0.677824 0.006642
C42   C     C_R   0.751520 0.531986 0.352673 0.011790
C43   C     C_R   0.738080 0.970746 0.322132 0.006639
C44   C     C_R   0.248624 0.031911 0.647410 0.011924
C45   C     C_R   0.234553 0.540942 0.633782 0.017787
C46   C     C_R   0.796878 0.469144 0.421824 0.002150
C47   C     C_R   0.765482 0.040950 0.366258 0.017918
C48   C     C_R   0.203215 0.969131 0.578039 0.002285
C49   C     C_R   0.324975 0.578466 0.597426 -0.074068
C50   C     C_R   0.735553 0.440797 0.508374 -0.110441
C51   C     C_R   0.675044 0.078482 0.402559 -0.074074
C52   C     C_R   0.264459 0.940882 0.491354 -0.110642
C53   C     C_R   0.424721 0.543628 0.569227 -0.026669
C54   C     C_R   0.627342 0.470606 0.525198 -0.023214
C55   C     C_R   0.575286 0.043647 0.430711 -0.026669
C56   C     C_R   0.372707 0.970647 0.474697 -0.023295
Cr1   Cr    Cr6+3 0.187610 0.750000 0.979860 0.969750
Cr2   Cr    Cr6+3 0.812390 0.250000 0.020140 0.969902
Cr3   Cr    Cr6+3 0.245810 0.750000 0.341640 0.957345
Cr4   Cr    Cr6+3 0.754190 0.250000 0.658360 0.957447
Cr5   Cr    Cr6+3 0.485760 0.750000 0.219910 0.963134
Cr6   Cr    Cr6+3 0.514240 0.250000 0.780090 0.963141
O1    O     O_R   0.267710 0.668200 0.902110 -0.532541
O2    O     O_R   0.732290 0.331800 0.097890 -0.526716
O3    O     O_R   0.732290 0.168200 0.097890 -0.532479
O4    O     O_R   0.267710 0.831800 0.902110 -0.526909
O5    O     O_R   0.099480 0.674460 0.038850 -0.493347
O6    O     O_R   0.900520 0.325540 0.961150 -0.499711
O7    O     O_R   0.900520 0.174460 0.961150 -0.493351
O8    O     O_R   0.099480 0.825540 0.038850 -0.499698
O9    O     O_R   0.116720 0.669210 0.267660 -0.547861
O10   O     O_R   0.883280 0.330790 0.732340 -0.578765
O11   O     O_R   0.883280 0.169210 0.732340 -0.547856
O12   O     O_R   0.116720 0.830790 0.267660 -0.578767
O13   O     O_R   0.366710 0.675440 0.427590 -0.511077
O14   O     O_R   0.633290 0.324560 0.572410 -0.513559
O15   O     O_R   0.633290 0.175440 0.572410 -0.511083
O16   O     O_R   0.366710 0.824560 0.427590 -0.513535
O17   O     O_R   0.534870 0.669390 0.371760 -0.538835
O18   O     O_R   0.465130 0.330610 0.628240 -0.530671
O19   O     O_R   0.465130 0.169390 0.628240 -0.538813
O20   O     O_R   0.534870 0.830610 0.371760 -0.530727
O21   O     O_R   0.453080 0.674480 0.075160 -0.522217
O22   O     O_R   0.546920 0.325520 0.924840 -0.541834
O23   O     O_R   0.546920 0.174480 0.924840 -0.522221
O24   O     O_R   0.453080 0.825520 0.075160 -0.541714
O25   O     O_3   0.306390 0.750000 0.180470 -0.257094
O26   O     O_3   0.693610 0.250000 0.819530 -0.257106
C57   C     C_3   0.177340 0.425562 0.730922 -0.296066
C58   C     C_3   0.183342 0.346701 0.700138 -0.437782
H1    H     H_    0.172263 0.338209 0.588015 0.161820
H2    H     H_    0.271692 0.322995 0.767474 0.150591
H3    H     H_    0.108627 0.318339 0.724334 0.150274
H4    H     H_    0.201288 0.432795 0.845317 0.134867
H5    H     H_    0.080117 0.441787 0.681555 0.147047
C59   C     C_3   0.821502 0.574049 0.275643 -0.296667
C60   C     C_3   0.806610 0.653921 0.285879 -0.437191
H6    H     H_    0.712663 0.670976 0.219677 0.160772
H7    H     H_    0.823191 0.669920 0.396155 0.158985
H8    H     H_    0.874017 0.681595 0.247362 0.141946
H9    H     H_    0.921740 0.562684 0.322492 0.152336
H10   H     H_    0.791692 0.558766 0.163874 0.120578
C61   C     C_3   0.822623 0.925464 0.269282 -0.295806
C62   C     C_3   0.817898 0.846835 0.302582 -0.437532
H11   H     H_    0.830344 0.839149 0.415257 0.161363
H12   H     H_    0.729411 0.822586 0.237081 0.151176
H13   H     H_    0.892250 0.818361 0.277881 0.150432
H14   H     H_    0.797667 0.931849 0.154580 0.134534
H15   H     H_    0.919703 0.942198 0.317184 0.146785
C63   C     C_3   0.178558 0.073979 0.724338 -0.296690
C64   C     C_3   0.193339 0.153850 0.713941 -0.437141
H16   H     H_    0.287250 0.170955 0.780147 0.160839
H17   H     H_    0.176786 0.169796 0.603644 0.158966
H18   H     H_    0.125865 0.181523 0.752356 0.141978
H19   H     H_    0.078338 0.062560 0.677494 0.152284
H20   H     H_    0.208374 0.058762 0.836142 0.120571
C65   C     C_3   0.117768 0.576242 0.642642 -0.279126
C66   C     C_3   0.094350 0.652816 0.592789 -0.425823
H21   H     H_    0.169719 0.688735 0.651947 0.166702
H22   H     H_    0.081753 0.655832 0.480555 0.187097
H23   H     H_    0.007855 0.672118 0.606022 0.110719
H24   H     H_    0.036227 0.546349 0.577204 0.128959
H25   H     H_    0.118805 0.573361 0.752309 0.171475
C67   C     C_3   0.897467 0.428481 0.386121 -0.289367
C68   C     C_3   0.896099 0.348434 0.405008 -0.414657
H26   H     H_    0.936609 0.334257 0.516742 0.160239
H27   H     H_    0.800467 0.327359 0.363218 0.179656
H28   H     H_    0.952877 0.322844 0.348796 0.129986
H29   H     H_    0.884586 0.437098 0.273741 0.158445
H30   H     H_    0.990211 0.449148 0.445603 0.130611
C69   C     C_3   0.882295 0.076240 0.357482 -0.279186
C70   C     C_3   0.905670 0.152829 0.407235 -0.425769
H31   H     H_    0.830297 0.188733 0.348017 0.166741
H32   H     H_    0.918249 0.155880 0.519459 0.187122
H33   H     H_    0.992165 0.172119 0.393993 0.110728
H34   H     H_    0.963809 0.046358 0.423046 0.128985
H35   H     H_    0.881316 0.073330 0.247838 0.171421
C71   C     C_3   0.102688 0.928349 0.613565 -0.289483
C72   C     C_3   0.105170 0.848255 0.595785 -0.414344
H36   H     H_    0.064935 0.833644 0.484261 0.159871
H37   H     H_    0.201086 0.827615 0.637770 0.180167
H38   H     H_    0.048732 0.822588 0.652318 0.130304
H39   H     H_    0.114894 0.937284 0.725684 0.158056
H40   H     H_    0.009862 0.948602 0.553226 0.130992
H41   H     H_    0.411115 0.402678 0.762419 0.177703
H42   H     H_    0.585774 0.585339 0.262430 0.175365
H43   H     H_    0.588970 0.902652 0.237549 0.177515
H44   H     H_    0.414327 0.085314 0.737619 0.175353
H45   H     H_    0.318642 0.634490 0.600118 0.158470
H46   H     H_    0.776662 0.396136 0.561751 0.202126
H47   H     H_    0.681401 0.134504 0.399909 0.158493
H48   H     H_    0.223298 0.896309 0.437742 0.202094
H49   H     H_    0.420455 0.066084 0.960795 0.128233
H50   H     H_    0.586381 0.928170 0.023050 0.126694
H51   H     H_    0.579557 0.566061 0.039250 0.128214
H52   H     H_    0.413528 0.428186 0.976801 0.126899
H53   H     H_    0.697258 0.037494 0.078035 0.109674
H54   H     H_    0.312354 0.957797 0.884948 0.112972
H55   H     H_    0.302764 0.537541 0.921951 0.109531
H56   H     H_    0.687537 0.457788 0.115171 0.112811
C73   C     C_3   0.131400 0.071397 0.089317 -0.265172
C74   C     C_3   0.117870 0.105994 0.219520 -0.429614
H57   H     H_    0.104256 0.066666 0.293371 0.138784
H58   H     H_    0.040858 0.144235 0.191043 0.184001
H59   H     H_    0.204280 0.135050 0.276182 0.140857
H60   H     H_    0.206333 0.031316 0.122784 0.136809
H61   H     H_    0.165901 0.112492 0.033209 0.133620
C75   C     C_3   0.902385 0.918547 0.872856 -0.260487
C76   C     C_3   0.765828 0.938046 0.837913 -0.445715
H62   H     H_    0.727631 0.909565 0.909609 0.135574
H63   H     H_    0.751286 0.995362 0.847472 0.158271
H64   H     H_    0.712939 0.921388 0.728994 0.161913
H65   H     H_    0.931630 0.926887 0.780338 0.127831
H66   H     H_    0.906356 0.860832 0.889752 0.168407
C77   C     C_3   0.868642 0.571376 0.910720 -0.265178
C78   C     C_3   0.882140 0.605982 0.780510 -0.429628
H67   H     H_    0.895634 0.566655 0.706587 0.138824
H68   H     H_    0.959209 0.644179 0.808965 0.184015
H69   H     H_    0.795760 0.635089 0.723940 0.140863
H70   H     H_    0.793724 0.531291 0.877263 0.136840
H71   H     H_    0.834144 0.612464 0.966845 0.133642
C79   C     C_3   0.097613 0.418515 0.127181 -0.260517
C80   C     C_3   0.234184 0.437948 0.162044 -0.445793
H72   H     H_    0.272253 0.409510 0.090176 0.135721
H73   H     H_    0.248795 0.495267 0.152655 0.158253
H74   H     H_    0.287121 0.421191 0.270885 0.161937
H75   H     H_    0.068407 0.426900 0.219714 0.127942
H76   H     H_    0.093578 0.360796 0.110327 0.168473
H77   H     H_    0.905310 0.041834 0.773955 0.104268
H78   H     H_    0.075255 0.959508 0.217793 0.089271
H79   H     H_    0.094798 0.541822 0.226052 0.104233
H80   H     H_    0.924990 0.459500 0.782184 0.089422

loop_
_geom_bond_atom_site_label_1
_geom_bond_atom_site_label_2
_ccdc_geom_bond_type
C59   H9    S    
C41   C57   S    
C29   O1    A    
C18   H77   S    
C31   O23   A    
C5    C37   A    
C12   C29   S    
C76   H62   S    
C64   H16   S    
C7    C55   A    
Cr1   O4    S    
C80   H72   S    
C8    C56   A    
C20   H79   S    
C4    O8    A    
C73   C74   S    
Cr4   O26   S    
C75   H66   S    
C1    O9    A    
C21   C75   S    
C42   C59   S    
C5    C53   A    
C3    O7    A    
Cr1   O5    S    
C29   O21   A    
C63   H20   S    
C59   H10   S    
Cr5   O20   S    
C80   H73   S    
C42   C46   A    
C72   H38   S    
Cr4   O10   S    
C15   C16   S    
C60   H6    S    
Cr4   O11   S    
C3    C18   S    
C8    C36   A    
C57   H4    S    
C9    C13   D    
C66   H21   S    
C38   H42   S    
Cr5   O25   S    
C9    C32   S    
C63   C64   S    
C11   C15   D    
C10   C31   S    
C78   H69   S    
C12   C16   D    
C28   C35   S    
C70   H31   S    
C5    C33   A    
C68   H28   S    
C26   O14   A    
C23   C24   S    
C6    C38   A    
C61   H14   S    
Cr1   O8    S    
C17   C21   D    
C28   O16   A    
C4    O12   A    
C73   H60   S    
C48   C52   A    
C25   C34   S    
C77   H71   S    
C46   C50   A    
C78   H68   S    
C61   H15   S    
C2    C19   S    
C51   H47   S    
C18   C22   D    
C21   C22   S    
C37   C41   A    
C76   H63   S    
C46   C67   S    
C6    C54   A    
C2    O10   A    
Cr3   O16   S    
C62   H12   S    
C62   H11   S    
C60   H7    S    
C11   H56   S    
Cr1   O1    S    
C74   H58   S    
Cr2   O2    S    
C75   H65   S    
Cr6   O23   S    
Cr4   O15   S    
C40   H44   S    
C28   O20   A    
Cr5   O24   S    
C20   C24   D    
Cr2   O3    S    
C27   O19   A    
C44   C48   A    
C11   C30   S    
Cr3   O25   S    
C69   H34   S    
Cr5   O21   S    
C80   H74   S    
C22   C73   S    
C47   C51   A    
Cr6   O26   S    
Cr4   O14   S    
C26   O18   A    
C6    C34   A    
C47   C69   S    
C25   O13   A    
C66   H23   S    
C57   H5    S    
C19   C23   D    
C65   H24   S    
C69   H35   S    
C74   H59   S    
C50   H46   S    
C26   C33   S    
C58   H2    S    
C77   C78   S    
Cr3   O12   S    
C45   C49   A    
C52   H48   S    
C32   O24   A    
C59   C60   S    
C16   H51   S    
C15   H52   S    
C67   H30   S    
C64   H17   S    
C79   H76   S    
C10   H53   S    
C30   O2    A    
C73   H61   S    
C23   C79   S    
C4    C17   S    
C66   H22   S    
Cr2   O6    S    
C78   H67   S    
Cr6   O19   S    
Cr6   O18   S    
C14   H49   S    
C10   C14   D    
C68   H26   S    
C27   C36   S    
C76   H64   S    
C69   C70   S    
Cr3   O13   S    
C60   H8    S    
C58   H3    S    
C32   O4    A    
C74   H57   S    
C45   C65   S    
C33   C54   A    
C31   O3    A    
Cr6   O22   S    
C75   C76   S    
C1    C20   S    
C7    C39   A    
C35   C56   A    
C25   O17   A    
C7    C35   A    
C27   O15   A    
Cr2   O26   S    
C39   C43   A    
C72   H36   S    
Cr2   O7    S    
C38   C42   A    
C77   H70   S    
C49   H45   S    
C17   H78   S    
C19   H80   S    
C2    O6    A    
C48   C71   S    
C71   H39   S    
C65   H25   S    
C50   C54   A    
C36   C55   A    
C71   H40   S    
C65   C66   S    
C72   H37   S    
C58   H1    S    
C52   C56   A    
C9    H54   S    
Cr5   O17   S    
C70   H33   S    
C49   C53   A    
C1    O5    A    
C67   H29   S    
C64   H18   S    
C51   C55   A    
C79   H75   S    
C12   H55   S    
C30   O22   A    
C3    O11   A    
C43   C61   S    
C13   H50   S    
C71   C72   S    
Cr1   O25   S    
C40   C44   A    
C34   C53   A    
C70   H32   S    
C39   H43   S    
C61   C62   S    
C68   H27   S    
C41   C45   A    
C8    C40   A    
C37   H41   S    
C57   C58   S    
C13   C14   S    
C24   C77   S    
C43   C47   A    
C63   H19   S    
C62   H13   S    
C79   C80   S    
Cr3   O9    S    
C67   C68   S    
C44   C63   S    
