data_mof_unit_13293.cif
_audit_creation_date              2012-12-11T16:43:14-0500
_audit_creation_method            fapswitch 2.2
_symmetry_space_group_name_H-M    P1
_symmetry_Int_Tables_number       1
_space_group_crystal_system       triclinic
_cell_length_a                    6.923009
_cell_length_b                    23.27925
_cell_length_c                    25.848891
_cell_angle_alpha                 104.769092
_cell_angle_beta                  90.290992
_cell_angle_gamma                 90.453952
_cell_volume                      4027.9998039

loop_
_atom_site_label
_atom_site_type_symbol
_atom_type_description
_atom_site_fract_x
_atom_site_fract_y
_atom_site_fract_z
_atom_type_partial_charge
O1    O     O_R   0.505750 0.453350 0.547660 -0.541032
O2    O     O_R   0.170990 0.432220 0.437590 -0.546651
O3    O     O_R   0.005600 0.546650 0.452340 -0.544814
C1    C     C_R   0.339749 0.415860 0.417051 0.692174
O4    O     O_R   0.175720 0.446240 0.546340 -0.538313
O5    O     O_R   0.010370 0.560770 0.561860 -0.498320
C2    C     C_R   0.344784 0.434189 0.562867 0.734669
O6    O     O_R   0.500990 0.439230 0.438140 -0.544168
O7    O     O_3   0.340820 0.537560 0.504970 -0.358726
V1    V     V_3+5 0.064050 0.493030 0.499080 1.454945
O8    O     O_R   0.680940 0.567780 0.562410 -0.538901
C3    C     C_R   0.850951 0.583916 0.583019 0.778269
O9    O     O_R   0.676210 0.553760 0.453660 -0.548014
C4    C     C_R   0.845132 0.565893 0.437201 0.669967
V2    V     V_3+5 0.564640 0.506970 0.500920 1.442303
O10   O     O_3   0.837740 0.462440 0.495030 -0.379367
C5    C     C_R   0.772710 0.876044 0.115247 -0.159479
H1    H     H_    0.639926 0.888225 0.098620 0.121176
C6    C     C_R   0.761280 0.840411 0.151347 -0.142849
H2    H     H_    0.620326 0.825671 0.160932 0.100188
C7    C     C_R   0.929428 0.823299 0.174105 0.094539
C8    C     C_R   0.109559 0.842543 0.159420 -0.140590
H3    H     H_    0.241938 0.831022 0.176690 0.099019
C9    C     C_R   0.121086 0.878026 0.123122 -0.161342
H4    H     H_    0.262113 0.892345 0.113132 0.117378
C10   C     C_R   0.952720 0.895410 0.100652 -0.055017
C11   C     C_R   0.054056 0.741447 0.212849 -0.150023
H5    H     H_    0.169587 0.733278 0.183891 0.111456
C12   C     C_R   0.041792 0.706178 0.249272 -0.151362
H6    H     H_    0.148309 0.671894 0.247274 0.109799
C13   C     C_R   0.891863 0.714177 0.286952 0.080972
C14   C     C_R   0.754476 0.758444 0.287123 -0.150699
H7    H     H_    0.638948 0.766612 0.316082 0.110679
C15   C     C_R   0.766740 0.793714 0.250700 -0.151720
H8    H     H_    0.660228 0.827999 0.252698 0.109264
C16   C     C_R   0.916690 0.785721 0.213025 0.080853
C17   C     C_R   0.699133 0.657364 0.340599 -0.141375
H9    H     H_    0.566712 0.668864 0.323335 0.099326
C18   C     C_R   0.687719 0.621893 0.376911 -0.162026
H10   H     H_    0.546733 0.607559 0.386917 0.116606
C19   C     C_R   0.856151 0.604537 0.399372 -0.049911
C20   C     C_R   0.036105 0.623923 0.384759 -0.160397
H11   H     H_    0.168937 0.611767 0.401379 0.119920
C21   C     C_R   0.047421 0.659541 0.348647 -0.144075
H12   H     H_    0.188338 0.674295 0.339047 0.100096
C22   C     C_R   0.879213 0.676620 0.325892 0.094547
C23   C     C_R   0.031471 0.637960 0.666366 0.556222
C24   C     C_R   0.866094 0.632539 0.633035 -0.199872
C25   C     C_R   0.716196 0.673887 0.647707 -0.282462
C26   C     C_R   0.731322 0.720714 0.694233 0.088916
C27   C     C_R   0.897078 0.725878 0.727222 -0.026146
C28   C     C_R   0.047170 0.684222 0.713379 -0.022129
C29   C     C_R   0.583771 0.762719 0.708269 -0.151911
C30   C     C_R   0.599000 0.809040 0.754849 -0.196949
C31   C     C_R   0.762424 0.814336 0.788154 0.089960
C32   C     C_R   0.912745 0.772818 0.774193 0.087472
C33   C     C_R   0.078662 0.778165 0.807150 0.097669
C34   C     C_R   0.225880 0.736133 0.793315 -0.209892
C35   C     C_R   0.210412 0.689646 0.746934 -0.130698
C36   C     C_R   0.778173 0.860453 0.835109 -0.219464
C37   C     C_R   0.944014 0.866474 0.867974 -0.087315
C38   C     C_R   0.094284 0.825283 0.853432 -0.224655
H13   H     H_    0.588777 0.670176 0.622464 0.170088
H14   H     H_    0.455748 0.759552 0.683365 0.132444
H15   H     H_    0.482279 0.840590 0.764958 0.131833
H16   H     H_    0.661969 0.892165 0.845712 0.126855
H17   H     H_    0.222144 0.829338 0.878550 0.130621
H18   H     H_    0.353902 0.739388 0.818235 0.139098
H19   H     H_    0.327543 0.658222 0.737241 0.187544
C39   C     C_R   0.604039 0.175515 0.149078 -0.225266
C40   C     C_R   0.455511 0.132931 0.132959 -0.087053
C41   C     C_R   0.287771 0.137475 0.164555 -0.210342
C42   C     C_R   0.267321 0.183529 0.211279 0.087248
C43   C     C_R   0.415175 0.226537 0.226624 0.052781
C44   C     C_R   0.583832 0.222649 0.195337 0.093351
C45   C     C_R   0.101115 0.187403 0.242896 -0.194199
C46   C     C_R   0.080657 0.233813 0.289156 -0.180000
C47   C     C_R   0.225471 0.277459 0.304588 0.093561
C48   C     C_R   0.394122 0.273574 0.273299 0.052610
C49   C     C_R   0.541977 0.316582 0.288646 0.086494
C50   C     C_R   0.708182 0.312708 0.257028 -0.193720
C51   C     C_R   0.728642 0.266297 0.210768 -0.178890
C52   C     C_R   0.205277 0.324584 0.350852 -0.227167
C53   C     C_R   0.353808 0.367167 0.366976 -0.082176
C54   C     C_R   0.521536 0.362631 0.335376 -0.210800
H20   H     H_    0.733351 0.172685 0.125115 0.128273
H21   H     H_    0.172686 0.104777 0.152954 0.125632
H22   H     H_    0.986093 0.154666 0.231679 0.132784
H23   H     H_    0.950651 0.235763 0.312686 0.136601
H24   H     H_    0.075976 0.327406 0.374818 0.126426
H25   H     H_    0.636627 0.395327 0.346982 0.124787
H26   H     H_    0.823205 0.345445 0.268246 0.132949
H27   H     H_    0.858651 0.264344 0.187240 0.137318
C55   C     C_R   0.275022 0.115497 0.877690 -0.158651
H28   H     H_    0.142938 0.096258 0.888398 0.120769
C56   C     C_R   0.263717 0.151063 0.841563 -0.144110
H29   H     H_    0.123754 0.157576 0.825178 0.100278
C57   C     C_R   0.430943 0.176798 0.825949 0.094872
C58   C     C_R   0.610058 0.165864 0.847523 -0.140260
H30   H     H_    0.741583 0.185578 0.837052 0.099639
C59   C     C_R   0.621502 0.130090 0.883596 -0.163039
H31   H     H_    0.761749 0.122741 0.899376 0.119729
C60   C     C_R   0.454024 0.104424 0.899191 -0.055357
C61   C     C_R   0.561691 0.212204 0.748371 -0.150532
H32   H     H_    0.682701 0.182419 0.745584 0.109505
C62   C     C_R   0.548747 0.247236 0.711772 -0.151849
H33   H     H_    0.660371 0.243421 0.681935 0.107397
C63   C     C_R   0.391977 0.285691 0.712945 0.082112
C64   C     C_R   0.248482 0.288062 0.751770 -0.147779
H34   H     H_    0.127464 0.317844 0.754556 0.112887
C65   C     C_R   0.261425 0.253031 0.788369 -0.151326
H35   H     H_    0.149794 0.256844 0.818204 0.109437
C66   C     C_R   0.418173 0.214567 0.787189 0.081501
C67   C     C_R   0.199933 0.334313 0.652586 -0.138741
H36   H     H_    0.068455 0.314599 0.663087 0.098182
C68   C     C_R   0.188368 0.370039 0.616477 -0.150468
H37   H     H_    0.048077 0.377356 0.600704 0.117119
C69   C     C_R   0.355777 0.395697 0.600837 -0.056264
C70   C     C_R   0.534836 0.384674 0.622337 -0.151407
H38   H     H_    0.666865 0.403916 0.611596 0.122381
C71   C     C_R   0.546263 0.349154 0.658501 -0.139373
H39   H     H_    0.686263 0.342673 0.674882 0.102186
C72   C     C_R   0.379103 0.323423 0.674156 0.093202
O11   O     O_R   0.308350 0.060850 0.061810 -0.539137
O12   O     O_R   0.633860 0.053770 0.953650 -0.543387
O13   O     O_R   0.798960 0.939210 0.938150 -0.538910
C73   C     C_R   0.464858 0.065881 0.937122 0.690549
O14   O     O_R   0.638360 0.067800 0.062400 -0.541344
O15   O     O_R   0.803500 0.953330 0.047670 -0.539538
C74   C     C_R   0.469591 0.084209 0.082906 0.711892
O16   O     O_R   0.303810 0.046730 0.952290 -0.539327
O17   O     O_3   0.468430 0.962490 0.995010 -0.368336
V3    V     V_3+5 0.745300 0.006960 0.000930 1.398150
O18   O     O_R   0.132880 0.946160 0.046390 -0.543731
C75   C     C_R   0.963891 0.934059 0.062829 0.689226
O19   O     O_R   0.128380 0.932130 0.937650 -0.542920
C76   C     C_R   0.958459 0.915676 0.917358 0.714994
V4    V     V_3+5 0.244670 0.992930 0.999140 1.397995
O20   O     O_3   0.971670 0.037510 0.005000 -0.367929
F1    F     F_    0.175924 0.597631 0.653754 -0.697690

loop_
_geom_bond_atom_site_label_1
_geom_bond_atom_site_label_2
_ccdc_geom_bond_type
C31   C32   A    
O13   C76   A    
C59   H31   S    
C25   H13   S    
C11   C12   A    
C19   C20   A    
C6    H2    S    
C1    O6    A    
C49   C54   A    
C61   C62   A    
C67   H36   S    
C54   H25   S    
C33   C38   A    
C18   C19   A    
C30   H15   S    
C29   C30   A    
C63   C64   A    
C46   H23   S    
C17   H9    S    
C38   H17   S    
C5    C10   A    
O11   V4    S    
C6    C7    A    
C9    C10   A    
C27   C32   A    
C64   C65   A    
O5    C3    A    
C29   H14   S    
C62   H33   S    
O17   V4    S    
V2    O10   S    
C57   C58   A    
C68   H37   S    
C15   H8    S    
C42   C43   A    
C69   C70   A    
C10   C75   S    
C7    C8    A    
O15   C75   A    
C50   H26   S    
O8    V2    S    
C47   C52   A    
C23   C24   A    
O13   V3    S    
O17   V3    S    
C13   C22   S    
C56   C57   A    
C23   F1    S    
O16   V4    S    
C39   C40   A    
O1    V2    S    
C60   C73   S    
O7    V1    S    
C45   H22   S    
C3    C24   S    
C36   H16   S    
C59   C60   A    
C51   H27   S    
O9    C4    A    
C2    C69   S    
C55   H28   S    
C20   C21   A    
C61   H32   S    
C21   C22   A    
C50   C51   A    
C45   C46   A    
C70   C71   A    
C26   C29   A    
C43   C44   A    
C27   C28   A    
C9    H4    S    
O19   V4    S    
C18   H10   S    
C7    C16   S    
C47   C48   A    
C41   C42   A    
C57   C66   S    
C26   C27   A    
C34   C35   A    
C46   C47   A    
C61   C66   A    
C36   C37   A    
C14   C15   A    
O2    C1    A    
O5    V1    S    
C12   H6    S    
C28   C35   A    
C52   C53   A    
C1    C53   S    
C70   H38   S    
C56   H29   S    
C5    H1    S    
O11   C74   A    
C65   C66   A    
C53   C54   A    
C55   C56   A    
C71   H39   S    
O18   C75   A    
O3    C4    A    
C35   H19   S    
C4    C19   S    
O15   V3    S    
C67   C72   A    
C34   H18   S    
C24   C25   A    
C58   C59   A    
C55   C60   A    
V3    O20   S    
O6    V2    S    
C43   C48   A    
O9    V2    S    
C42   C45   A    
C8    C9    A    
C20   H11   S    
C63   C72   S    
C39   H20   S    
C11   H5    S    
C41   H21   S    
C21   H12   S    
O4    C2    A    
O12   V3    S    
C32   C33   A    
C52   H24   S    
C30   C31   A    
C65   H35   S    
O1    C2    A    
C13   C14   A    
C49   C50   A    
O14   C74   A    
O18   V4    S    
C67   C68   A    
O8    C3    A    
C44   C51   A    
C23   C28   A    
C11   C16   A    
C58   H30   S    
C14   H7    S    
O7    V2    S    
O4    V1    S    
C12   C13   A    
O3    V1    S    
V1    O10   S    
O14   V3    S    
C40   C74   S    
C37   C76   S    
C33   C34   A    
C62   C63   A    
C5    C6    A    
C68   C69   A    
C15   C16   A    
C37   C38   A    
C73   O16   A    
C71   C72   A    
V4    O20   S    
C48   C49   A    
C40   C41   A    
C17   C18   A    
C25   C26   A    
C64   H34   S    
C39   C44   A    
O12   C73   A    
C8    H3    S    
O19   C76   A    
C17   C22   A    
C31   C36   A    
O2    V1    S    
