data_mof_unit_32524.cif
_audit_creation_date              2012-12-11T15:18:04-0500
_audit_creation_method            fapswitch 2.2
_symmetry_space_group_name_H-M    P1
_symmetry_Int_Tables_number       1
_space_group_crystal_system       triclinic
_cell_length_a                    15.724924
_cell_length_b                    15.725008
_cell_length_c                    34.47524
_cell_angle_alpha                 89.999618
_cell_angle_beta                  90.000282
_cell_angle_gamma                 120.000232
_cell_volume                      7382.71910399

loop_
_atom_site_label
_atom_site_type_symbol
_atom_type_description
_atom_site_fract_x
_atom_site_fract_y
_atom_site_fract_z
_atom_type_partial_charge
Br1   Br    Br    0.996071 0.326381 0.919055 -0.391004
Br2   Br    Br    0.680154 0.955514 0.171193 -0.347830
Br3   Br    Br    0.275369 0.319798 0.171181 -0.347821
Br4   Br    Br    0.044451 0.724638 0.171185 -0.347832
Br5   Br    Br    0.673621 0.669708 0.919051 -0.390993
Br6   Br    Br    0.330261 0.003882 0.919045 -0.390976
Br7   Br    Br    0.326380 0.996089 0.419050 -0.391012
Br8   Br    Br    0.669713 0.673614 0.419042 -0.391006
Br9   Br    Br    0.003886 0.330266 0.419045 -0.391010
Br10  Br    Br    0.955498 0.680138 0.671196 -0.347840
Br11  Br    Br    0.319874 0.275344 0.671199 -0.347857
Br12  Br    Br    0.724646 0.044501 0.671196 -0.347856
C1    C     C_R   0.576866 0.442449 0.554495 0.557814
C2    C     C_R   0.501974 0.962190 0.213972 0.370595
C3    C     C_2   0.317177 0.955316 0.098487 0.320637
C4    C     C_2   0.638122 0.682851 0.098501 0.320626
C5    C     C_2   0.044855 0.361923 0.098521 0.320467
C6    C     C_2   0.946200 0.629155 0.580829 0.319002
C7    C     C_2   0.370837 0.317051 0.580827 0.318990
C8    C     C_2   0.682951 0.053793 0.580828 0.318998
C9    C     C_2   0.629163 0.946230 0.080825 0.319012
C10   C     C_2   0.317163 0.370793 0.080796 0.318922
C11   C     C_2   0.053743 0.682901 0.080824 0.319004
C12   C     C_R   0.460171 0.498005 0.213972 0.370587
C13   C     C_R   0.037891 0.539855 0.213985 0.370599
C14   C     C_R   0.986304 0.435981 0.855163 -0.076221
C15   C     C_R   0.564021 0.550331 0.855162 -0.076220
C16   C     C_R   0.449666 0.013689 0.855161 -0.076223
C17   C     C_R   0.435981 0.986302 0.355162 -0.076221
C18   C     C_R   0.550307 0.564007 0.355159 -0.076217
C19   C     C_R   0.013730 0.449709 0.355169 -0.076219
C20   C     C_R   0.022384 0.445014 0.892933 0.157118
C21   C     C_R   0.557551 0.134418 0.554496 0.557809
C22   C     C_R   0.554988 0.577379 0.892932 0.157120
C23   C     C_R   0.422614 0.977603 0.892931 0.157118
C24   C     C_R   0.445013 0.022388 0.392932 0.157119
C25   C     C_R   0.577370 0.554979 0.392928 0.157121
C26   C     C_R   0.977622 0.422633 0.392934 0.157121
C27   C     C_R   0.085199 0.620921 0.889859 -0.144870
C28   C     C_R   0.379082 0.464274 0.889860 -0.144870
C29   C     C_R   0.535745 0.914834 0.889865 -0.144868
C30   C     C_R   0.620920 0.085189 0.389861 -0.144868
C31   C     C_R   0.464263 0.379074 0.389861 -0.144870
C32   C     C_R   0.865582 0.423133 0.554495 0.557811
C33   C     C_R   0.914848 0.535761 0.389870 -0.144866
C34   C     C_R   0.049574 0.611279 0.852328 -0.110892
C35   C     C_R   0.388724 0.438291 0.852328 -0.110891
C36   C     C_R   0.561733 0.950464 0.852334 -0.110890
C37   C     C_R   0.611278 0.049559 0.352331 -0.110889
C38   C     C_R   0.438266 0.388711 0.352331 -0.110891
C39   C     C_R   0.950500 0.561770 0.352342 -0.110886
C40   C     C_R   0.003751 0.519514 0.834036 0.002494
C41   C     C_R   0.480489 0.484239 0.834036 0.002494
C42   C     C_R   0.515774 0.996266 0.834039 0.002493
C43   C     C_R   0.442450 0.576868 0.054496 0.557735
C44   C     C_R   0.519514 0.003740 0.334038 0.002495
C45   C     C_R   0.484205 0.480473 0.334037 0.002496
C46   C     C_R   0.996317 0.515826 0.334049 0.002496
C47   C     C_R   0.076747 0.539182 0.909916 0.025698
C48   C     C_R   0.460820 0.537567 0.909916 0.025698
C49   C     C_R   0.462436 0.923259 0.909917 0.025694
C50   C     C_R   0.539181 0.076746 0.409916 0.025698
C51   C     C_R   0.537563 0.460814 0.409914 0.025697
C52   C     C_R   0.923267 0.462445 0.409919 0.025694
C53   C     C_R   0.577435 0.442458 0.445667 0.570221
C54   C     C_R   0.134426 0.557553 0.054499 0.557747
C55   C     C_R   0.557540 0.134975 0.445668 0.570221
C56   C     C_R   0.865024 0.422565 0.445668 0.570214
C57   C     C_R   0.442460 0.577435 0.945668 0.570218
C58   C     C_R   0.134975 0.557540 0.945669 0.570222
C59   C     C_R   0.422565 0.865025 0.945668 0.570214
C60   C     C_R   0.923383 0.460686 0.591102 -0.034000
C61   C     C_R   0.539311 0.462697 0.591101 -0.034004
C62   C     C_R   0.537304 0.076620 0.591103 -0.034000
C63   C     C_R   0.460681 0.923378 0.091103 -0.034006
C64   C     C_R   0.462701 0.539315 0.091102 -0.034030
C65   C     C_R   0.423132 0.865581 0.054496 0.557784
C66   C     C_R   0.076656 0.537313 0.091113 -0.033992
C67   C     C_R   0.943482 0.398337 0.614274 -0.020948
C68   C     C_R   0.601658 0.545145 0.614273 -0.020943
C69   C     C_R   0.454861 0.056528 0.614276 -0.020951
C70   C     C_R   0.398325 0.943458 0.114278 -0.020967
C71   C     C_R   0.545117 0.601684 0.114284 -0.020960
C72   C     C_R   0.056642 0.454911 0.114299 -0.020998
C73   C     C_R   0.955032 0.414030 0.654155 -0.163698
C74   C     C_R   0.585966 0.541001 0.654154 -0.163697
C75   C     C_R   0.459007 0.044978 0.654157 -0.163695
C76   C     C_R   0.962210 0.501972 0.713970 0.370598
C77   C     C_R   0.414020 0.955003 0.154159 -0.163697
C78   C     C_R   0.540948 0.585980 0.154164 -0.163704
C79   C     C_R   0.045112 0.459084 0.154180 -0.163708
C80   C     C_R   0.954523 0.494224 0.671385 0.011435
C81   C     C_R   0.505776 0.460294 0.671385 0.011434
C82   C     C_R   0.539710 0.045485 0.671387 0.011434
C83   C     C_R   0.494223 0.954506 0.171387 0.011435
C84   C     C_R   0.460251 0.505759 0.171385 0.011421
C85   C     C_R   0.045566 0.539770 0.171400 0.011436
C86   C     C_R   0.950356 0.565611 0.647835 0.180386
C87   C     C_R   0.498029 0.460234 0.713970 0.370598
C88   C     C_R   0.434390 0.384738 0.647836 0.180390
C89   C     C_R   0.615261 0.049647 0.647837 0.180384
C90   C     C_R   0.565616 0.950356 0.147835 0.180379
C91   C     C_R   0.384739 0.434350 0.147826 0.180417
C92   C     C_R   0.049664 0.615277 0.147839 0.180372
C93   C     C_R   0.938579 0.550638 0.607225 -0.016689
C94   C     C_R   0.449360 0.387939 0.607224 -0.016694
C95   C     C_R   0.612060 0.061421 0.607225 -0.016690
C96   C     C_R   0.550641 0.938586 0.107224 -0.016700
C97   C     C_R   0.387969 0.449330 0.107212 -0.016717
C98   C     C_R   0.539775 0.037802 0.713972 0.370595
C99   C     C_R   0.061421 0.612051 0.107228 -0.016688
C100  C     C_R   0.983867 0.513288 0.792134 0.344602
C101  C     C_R   0.486714 0.470579 0.792134 0.344602
C102  C     C_R   0.529436 0.016151 0.792136 0.344598
C103  C     C_R   0.513289 0.983851 0.292136 0.344601
C104  C     C_R   0.470528 0.486693 0.292136 0.344598
C105  C     C_R   0.016221 0.529508 0.292148 0.344599
C106  C     C_2   0.955354 0.317202 0.598479 0.320613
C107  C     C_2   0.682787 0.638157 0.598477 0.320616
C108  C     C_2   0.361854 0.044663 0.598483 0.320596
Cr1   Cr    Cr6+3 0.522350 0.263930 0.500020 1.114364
Cr2   Cr    Cr6+3 0.736070 0.258420 0.500020 1.114379
Cr3   Cr    Cr6+3 0.741580 0.477650 0.500020 1.114374
Cr4   Cr    Cr6+3 0.263930 0.522350 0.000020 1.114305
Cr5   Cr    Cr6+3 0.258420 0.736070 0.000020 1.114402
Cr6   Cr    Cr6+3 0.477650 0.741580 0.000020 1.114378
H1    H     H_    0.965960 0.363564 0.672080 0.153926
H2    H     H_    0.364100 0.948957 0.341739 0.175894
H3    H     H_    0.584841 0.635885 0.341734 0.175895
H4    H     H_    0.051071 0.415172 0.341744 0.175892
H5    H     H_    0.125066 0.694013 0.902175 0.167759
H6    H     H_    0.305990 0.431043 0.902177 0.167753
H7    H     H_    0.568986 0.874985 0.902184 0.167755
H8    H     H_    0.694011 0.125052 0.402179 0.167759
H9    H     H_    0.431035 0.305984 0.402180 0.167754
H10   H     H_    0.874992 0.568994 0.402188 0.167757
H11   H     H_    0.062132 0.676701 0.837003 0.169819
H12   H     H_    0.636430 0.602398 0.672078 0.153926
H13   H     H_    0.323303 0.385422 0.837005 0.169816
H14   H     H_    0.614614 0.937927 0.837013 0.169816
H15   H     H_    0.676699 0.062110 0.337008 0.169818
H16   H     H_    0.385391 0.323288 0.337011 0.169814
H17   H     H_    0.937969 0.614658 0.337023 0.169814
H18   H     H_    0.939279 0.254516 0.616645 0.170432
H19   H     H_    0.745468 0.684780 0.616642 0.170425
H20   H     H_    0.315252 0.060751 0.616648 0.170438
H21   H     H_    0.254485 0.939221 0.116652 0.170431
H22   H     H_    0.684701 0.745535 0.116672 0.170448
H23   H     H_    0.397615 0.034054 0.672083 0.153932
H24   H     H_    0.061060 0.315406 0.116687 0.170419
H25   H     H_    0.978925 0.637398 0.552353 0.121145
H26   H     H_    0.362614 0.341537 0.552349 0.121149
H27   H     H_    0.658463 0.021067 0.552353 0.121146
H28   H     H_    0.637385 0.978946 0.052348 0.121156
H29   H     H_    0.341675 0.362740 0.052298 0.121168
H30   H     H_    0.021000 0.658379 0.052353 0.121144
H31   H     H_    0.363548 0.965919 0.172086 0.153935
H32   H     H_    0.602319 0.636460 0.172097 0.153936
H33   H     H_    0.034243 0.397723 0.172113 0.153944
H34   H     H_    0.948954 0.364100 0.841741 0.175897
H35   H     H_    0.635902 0.584869 0.841738 0.175898
H36   H     H_    0.415120 0.051021 0.841736 0.175898
N1    N     N_R   0.926314 0.425455 0.774624 -0.202720
N2    N     N_R   0.419974 0.915537 0.236259 -0.197912
N3    N     N_R   0.495509 0.580004 0.236259 -0.197923
N4    N     N_R   0.084565 0.504537 0.236274 -0.197944
N5    N     N_R   0.020328 0.589439 0.731483 -0.145179
N6    N     N_R   0.410560 0.430877 0.731483 -0.145177
N7    N     N_R   0.569132 0.979692 0.731487 -0.145175
N8    N     N_R   0.589441 0.020312 0.231485 -0.145159
N9    N     N_R   0.430837 0.410541 0.231485 -0.145149
N10   N     N_R   0.979747 0.569176 0.231495 -0.145156
N11   N     N_R   0.030603 0.595059 0.769801 -0.199124
N12   N     N_R   0.574548 0.500865 0.774623 -0.202719
N13   N     N_R   0.404941 0.435534 0.769802 -0.199124
N14   N     N_R   0.564478 0.969419 0.769805 -0.199121
N15   N     N_R   0.595061 0.030590 0.269803 -0.199118
N16   N     N_R   0.435499 0.404922 0.269803 -0.199118
N17   N     N_R   0.969465 0.564518 0.269813 -0.199114
N18   N     N_R   0.499151 0.073698 0.774625 -0.202718
N19   N     N_R   0.425457 0.926292 0.274626 -0.202721
N20   N     N_R   0.500787 0.574522 0.274626 -0.202718
N21   N     N_R   0.073805 0.499263 0.274641 -0.202725
N22   N     N_R   0.915560 0.419972 0.736257 -0.197890
N23   N     N_R   0.580031 0.495593 0.736256 -0.197888
N24   N     N_R   0.504420 0.084449 0.736258 -0.197893
O1    O     O_R   0.498680 0.159540 0.541860 -0.438943
O2    O     O_R   0.358060 0.532760 0.040030 -0.522020
O3    O     O_R   0.174700 0.641940 0.040030 -0.521899
O4    O     O_R   0.467240 0.825300 0.040030 -0.521935
O5    O     O_R   0.498590 0.161190 0.456930 -0.458686
O6    O     O_R   0.838810 0.337400 0.456930 -0.458678
O7    O     O_R   0.662600 0.501410 0.456930 -0.458678
O8    O     O_R   0.161190 0.498590 0.956930 -0.458686
O9    O     O_R   0.337400 0.838810 0.956930 -0.458680
O10   O     O_R   0.501410 0.662600 0.956930 -0.458683
O11   O     O_R   0.532680 0.359580 0.461300 -0.517588
O12   O     O_R   0.840460 0.339140 0.541860 -0.438932
O13   O     O_R   0.640420 0.173100 0.461300 -0.517584
O14   O     O_R   0.826900 0.467320 0.461300 -0.517591
O15   O     O_R   0.359580 0.532680 0.961300 -0.517581
O16   O     O_R   0.173100 0.640420 0.961300 -0.517573
O17   O     O_R   0.467320 0.826900 0.961300 -0.517583
O18   O     O_3   0.666667 0.333333 0.499990 -0.285650
O19   O     O_3   0.333333 0.666667 0.999990 -0.285641
O20   O     O_2   0.989333 0.322395 0.566149 -0.417742
O21   O     O_2   0.677593 0.666934 0.566145 -0.417751
O22   O     O_2   0.333058 0.010677 0.566155 -0.417739
O23   O     O_R   0.660860 0.501320 0.541860 -0.438923
O24   O     O_2   0.322365 0.989305 0.066159 -0.417676
O25   O     O_2   0.666946 0.677686 0.066175 -0.417685
O26   O     O_2   0.010804 0.333043 0.066208 -0.417659
O27   O     O_2   0.912988 0.682049 0.589465 -0.432138
O28   O     O_2   0.317915 0.230952 0.589465 -0.432128
O29   O     O_2   0.769057 0.086999 0.589463 -0.432142
O30   O     O_2   0.682085 0.913049 0.089459 -0.432097
O31   O     O_2   0.231109 0.317652 0.089443 -0.431933
O32   O     O_2   0.086928 0.769010 0.089447 -0.432084
O33   O     O_R   0.159540 0.498680 0.041860 -0.439024
O34   O     O_R   0.339140 0.840460 0.041860 -0.438938
O35   O     O_R   0.501320 0.660860 0.041860 -0.438913
O36   O     O_R   0.532760 0.358060 0.540030 -0.521943
O37   O     O_R   0.641940 0.174700 0.540030 -0.521928
O38   O     O_R   0.825300 0.467240 0.540030 -0.521932

loop_
_geom_bond_atom_site_label_1
_geom_bond_atom_site_label_2
_ccdc_geom_bond_type
C89   C95   A    
C28   C35   A    
C51   C53   S    
C108  H20   S    
C28   C48   A    
C104  N16   A    
Cr4   O19   S    
N6    N13   A    
Br7   C24   S    
C57   O10   A    
C38   H16   S    
C5    H24   S    
C63   C70   A    
C29   C49   A    
C1    O36   A    
C2    N8    A    
C5    O26   D    
C29   H7    S    
Cr6   O35   S    
C16   H36   S    
C36   C42   A    
C17   C24   A    
C86   C93   A    
C27   H5    S    
Cr3   O18   S    
C11   O32   D    
C65   O4    A    
C52   C56   S    
C19   C46   A    
C106  O20   D    
C19   H4    S    
C55   O13   A    
C12   C84   S    
N12   N23   A    
N5    N11   A    
C55   O5    A    
C76   N22   A    
C40   C100  S    
Cr6   O19   S    
C54   O3    A    
C34   C40   A    
C48   C57   S    
Br6   C23   S    
C56   O6    A    
Br10  C86   S    
Cr2   O18   S    
Cr6   O4    S    
C12   N9    A    
C98   N7    A    
C85   C92   A    
C68   C74   A    
N2    N19   A    
C103  N19   A    
C62   C95   A    
C32   C60   S    
C29   C36   A    
C76   C80   S    
C16   C23   A    
C64   C97   A    
C37   H15   S    
Cr1   O36   S    
N9    N16   A    
C90   C96   A    
C66   C99   A    
C32   O38   A    
C72   C79   A    
Cr2   O13   S    
C45   C104  S    
C81   C87   S    
C79   H33   S    
C83   C90   A    
C35   C41   A    
C8    C95   S    
C75   C82   A    
C10   C97   S    
C102  N14   A    
C100  N11   A    
C28   H6    S    
Cr4   O33   S    
C63   C96   A    
C91   C97   A    
C11   H30   S    
C22   C48   A    
N7    N14   A    
C24   C50   A    
C100  N1    A    
C64   C71   A    
Br2   C90   S    
C25   C51   A    
C73   C80   A    
C41   C101  S    
C3    C70   S    
C53   O7    A    
C10   H29   S    
C15   C22   A    
C57   O15   A    
C54   C66   S    
Cr5   O16   S    
C8    H27   S    
C36   H14   S    
N8    N15   A    
C31   C51   A    
C108  O22   D    
C8    O29   D    
C1    O23   A    
Cr3   O14   S    
C82   C89   A    
C21   O1    A    
Cr4   O2    S    
C16   C42   A    
C14   C20   A    
C67   C106  S    
C47   C58   S    
C58   O16   A    
C82   C98   S    
C46   C105  S    
Cr2   O12   S    
C18   C25   A    
C104  N20   A    
Br11  C88   S    
C4    H22   S    
C77   C83   A    
C59   O17   A    
Cr5   O34   S    
C54   O33   A    
C74   C81   A    
C14   C40   A    
Cr1   O1    S    
Cr3   O38   S    
C59   O9    A    
C69   C108  S    
Cr5   O9    S    
C87   N23   A    
C58   O8    A    
C76   N5    A    
C27   C47   A    
Br5   C22   S    
C105  N21   A    
C7    H26   S    
C9    O30   D    
C77   H31   S    
C23   C49   A    
C39   C46   A    
C69   C75   A    
C43   O2    A    
C79   C85   A    
C107  H19   S    
C31   H9    S    
C63   C65   S    
C81   C88   A    
Cr1   O11   S    
C103  N15   A    
N18   N24   A    
C27   C34   A    
C53   O11   A    
C43   C64   S    
C50   C55   S    
N10   N17   A    
C13   C85   S    
C60   C93   A    
C10   O31   D    
C1    C61   S    
C102  N18   A    
Cr2   O37   S    
C34   H11   S    
Cr6   O17   S    
C73   H1    S    
C6    O27   D    
C107  O21   D    
Br8   C25   S    
N3    N20   A    
C62   C69   A    
C35   H13   S    
C6    H25   S    
C37   C44   A    
C21   O37   A    
C2    C83   S    
C67   C73   A    
C13   N10   A    
C87   N6    A    
C14   H34   S    
Br3   C91   S    
C71   C78   A    
C30   C50   A    
C98   N24   A    
C33   H10   S    
C101  N13   A    
N1    N22   A    
Cr3   O23   S    
C38   C45   A    
C88   C94   A    
C4    O25   D    
C44   C103  S    
N4    N21   A    
Cr1   O18   S    
Cr1   O5    S    
C92   C99   A    
C15   C41   A    
C31   C38   A    
C78   C84   A    
C17   C44   A    
C39   H17   S    
C13   N4    A    
C60   C67   A    
C18   H3    S    
C11   C99   S    
C9    H28   S    
C33   C52   A    
C106  H18   S    
C19   C26   A    
C43   O35   A    
Cr4   O15   S    
C56   O14   A    
C5    C72   S    
C7    O28   D    
C12   N3    A    
C6    C93   S    
Br12  C89   S    
C15   H35   S    
C3    H21   S    
C49   C59   S    
C61   C94   A    
Cr6   O10   S    
C70   C77   A    
Cr2   O6    S    
C65   O34   A    
C42   C102  S    
Cr5   O19   S    
Br9   C26   S    
C61   C68   A    
C30   H8    S    
Br4   C92   S    
C18   C45   A    
C4    C71   S    
C2    N2    A    
C68   C107  S    
C9    C96   S    
C74   H12   S    
C30   C37   A    
C7    C94   S    
C66   C72   A    
C21   C62   S    
Br1   C20   S    
C78   H32   S    
C80   C86   A    
C75   H23   S    
C17   H2    S    
Cr4   O8    S    
C3    O24   D    
C26   C52   A    
C33   C39   A    
C32   O12   A    
Cr3   O7    S    
Cr5   O3    S    
C20   C47   A    
C84   C91   A    
C105  N17   A    
C101  N12   A    
