data_mof_unit_58439.cif
_audit_creation_date              2012-12-11T15:21:45-0500
_audit_creation_method            fapswitch 2.2
_symmetry_space_group_name_H-M    P1
_symmetry_Int_Tables_number       1
_space_group_crystal_system       triclinic
_cell_length_a                    19.160327
_cell_length_b                    7.146598
_cell_length_c                    17.673915
_cell_angle_alpha                 90.031626
_cell_angle_beta                  109.013801
_cell_angle_gamma                 89.953937
_cell_volume                      2288.06787023

loop_
_atom_site_label
_atom_site_type_symbol
_atom_type_description
_atom_site_fract_x
_atom_site_fract_y
_atom_site_fract_z
_atom_type_partial_charge
O1    O     O_R   0.562310 0.505770 0.439670 -0.537502
O2    O     O_R   0.437690 0.005770 0.560330 -0.538750
O3    O     O_R   0.411650 0.169150 0.405330 -0.543727
O4    O     O_R   0.588350 0.669150 0.594670 -0.543468
C1    C     C_R   0.383668 0.345025 0.384285 0.623060
C2    C     C_R   0.616325 0.844974 0.615726 0.625170
O5    O     O_R   0.560140 0.175610 0.430010 -0.539034
O6    O     O_R   0.439860 0.675610 0.569990 -0.539088
O7    O     O_R   0.587240 0.012100 0.585200 -0.536926
O8    O     O_R   0.412760 0.512100 0.414800 -0.537065
C3    C     C_R   0.581035 0.344525 0.414863 0.697039
C4    C     C_R   0.418657 0.844707 0.584789 0.697985
O9    O     O_3   0.508720 0.341420 0.550890 -0.370428
O10   O     O_3   0.491280 0.841420 0.449110 -0.370900
V1    V     V_3+5 0.498380 0.063930 0.490560 1.375886
V2    V     V_3+5 0.501620 0.563930 0.509440 1.376478
C5    C     C_R   0.174984 0.756516 0.869468 -0.192408
C6    C     C_R   0.820493 0.561126 0.134230 -0.230569
C7    C     C_R   0.130514 0.915496 0.865310 -0.104176
C8    C     C_R   0.870458 0.416107 0.135690 -0.089028
C9    C     C_R   0.133714 0.063211 0.813918 -0.208153
C10   C     C_R   0.872882 0.258797 0.184340 -0.198462
C11   C     C_R   0.180082 0.053077 0.766247 0.075502
C12   C     C_R   0.825704 0.243812 0.230955 0.071168
C13   C     C_R   0.225135 0.893070 0.771938 -0.003024
C14   C     C_R   0.775078 0.390059 0.228135 0.006868
C15   C     C_R   0.222545 0.744954 0.823832 0.114577
C16   C     C_R   0.772861 0.549266 0.179956 0.105052
C17   C     C_R   0.182482 0.199088 0.713076 0.197719
C18   C     C_R   0.828107 0.086535 0.280486 0.197239
C19   C     C_R   0.231042 0.185794 0.668238 -0.228295
C20   C     C_R   0.778654 0.074969 0.324369 -0.220025
C21   C     C_R   0.276157 0.028210 0.674240 0.056737
C22   C     C_R   0.727993 0.218784 0.321227 0.055078
C23   C     C_R   0.272874 0.880521 0.725697 0.046909
C24   C     C_R   0.726786 0.378102 0.273818 0.048616
C25   C     C_R   0.317378 0.720044 0.730988 0.099191
C26   C     C_R   0.677442 0.526105 0.272291 0.104214
C27   C     C_R   0.314411 0.574561 0.783080 -0.193120
C28   C     C_R   0.676170 0.683692 0.224552 -0.191754
C29   C     C_R   0.267639 0.587199 0.829286 -0.145320
C30   C     C_R   0.723086 0.694619 0.178447 -0.190595
C31   C     C_R   0.324225 0.015723 0.629074 -0.196829
C32   C     C_R   0.679201 0.206839 0.365739 -0.204248
C33   C     C_R   0.368521 0.855927 0.633525 -0.084766
C34   C     C_R   0.630441 0.354625 0.365289 -0.081184
C35   C     C_R   0.364272 0.707985 0.684371 -0.224362
C36   C     C_R   0.630308 0.514313 0.318608 -0.220203
H1    H     H_    0.173421 0.642213 0.909204 0.124289
H2    H     H_    0.818059 0.682581 0.096702 0.119129
H3    H     H_    0.099319 0.185223 0.810716 0.161041
H4    H     H_    0.912243 0.148857 0.185924 0.154012
H5    H     H_    0.233286 0.298603 0.628107 0.130606
H6    H     H_    0.780120 0.953641 0.361650 0.132618
H7    H     H_    0.326328 0.129889 0.589491 0.127924
H8    H     H_    0.680401 0.084231 0.402260 0.123693
H9    H     H_    0.398221 0.584472 0.688590 0.128647
H10   H     H_    0.592832 0.628788 0.317570 0.127507
H11   H     H_    0.348170 0.450528 0.787971 0.129521
H12   H     H_    0.638821 0.798771 0.222839 0.129208
H13   H     H_    0.266195 0.472406 0.868792 0.126598
H14   H     H_    0.720926 0.817942 0.142098 0.125470
C37   C     C_3   0.801613 0.700756 0.781806 -0.267727
C38   C     C_3   0.198101 0.201052 0.218675 -0.267851
H15   H     H_    0.852041 0.648368 0.770411 0.152561
H16   H     H_    0.147638 0.149827 0.230261 0.153532
H17   H     H_    0.794597 0.613237 0.830949 0.110611
H18   H     H_    0.204942 0.112450 0.169704 0.111033
C39   C     C_3   0.732512 0.673732 0.706211 0.070524
C40   C     C_3   0.267241 0.174218 0.294264 0.070563
H19   H     H_    0.696326 0.565878 0.719893 0.097763
H20   H     H_    0.303270 0.065506 0.280747 0.097904
H21   H     H_    0.862068 0.979559 0.716589 0.142892
H22   H     H_    0.138079 0.482125 0.283356 0.146489
H23   H     H_    0.753031 0.970844 0.610417 0.151142
H24   H     H_    0.247154 0.473389 0.389453 0.152508
C41   C     C_3   0.815644 0.027746 0.736539 -0.329724
C42   C     C_3   0.184529 0.529123 0.263251 -0.327610
C43   C     C_3   0.745058 0.970872 0.831608 -0.341792
C44   C     C_3   0.254948 0.469253 0.168214 -0.343487
C45   C     C_3   0.813547 0.910157 0.809451 0.081373
C46   C     C_3   0.186423 0.410138 0.190575 0.080562
H25   H     H_    0.748960 0.122523 0.846761 0.144994
H26   H     H_    0.251211 0.620684 0.152723 0.143679
H27   H     H_    0.743401 0.893409 0.885598 0.128696
H28   H     H_    0.256470 0.390779 0.114376 0.128969
C47   C     C_3   0.689200 0.862511 0.685175 0.112971
C48   C     C_3   0.310783 0.362626 0.314853 0.113158
C49   C     C_3   0.741601 0.009674 0.666188 -0.274108
C50   C     C_3   0.258584 0.511041 0.333582 -0.274149
C51   C     C_3   0.672741 0.932691 0.761126 -0.382754
C52   C     C_3   0.327261 0.431133 0.238725 -0.382422
H29   H     H_    0.639162 0.826375 0.779733 0.128869
H30   H     H_    0.360693 0.323909 0.220310 0.129022
H31   H     H_    0.639471 0.063566 0.747371 0.153772
H32   H     H_    0.360685 0.561679 0.252183 0.152304
H33   H     H_    0.825784 0.177530 0.753819 0.134986
H34   H     H_    0.174567 0.678775 0.245665 0.136297
H35   H     H_    0.714306 0.149192 0.655398 0.135167
H36   H     H_    0.286034 0.650295 0.344054 0.135586
O11   O     O_R   0.087220 0.271820 0.085230 -0.542379
O12   O     O_R   0.912780 0.771820 0.914770 -0.542456
O13   O     O_R   0.939860 0.595540 0.069990 -0.538292
O14   O     O_R   0.060140 0.095540 0.930010 -0.541365
C53   C     C_R   0.919224 0.426591 0.085422 0.700373
C54   C     C_R   0.081065 0.926449 0.914871 0.700322
O15   O     O_R   0.088340 0.601930 0.094680 -0.538290
O16   O     O_R   0.911660 0.101930 0.905320 -0.538197
O17   O     O_R   0.062310 0.765410 0.939660 -0.535313
O18   O     O_R   0.937690 0.265410 0.060340 -0.538508
C55   C     C_R   0.115454 0.431382 0.118691 0.649980
C56   C     C_R   0.884529 0.931409 0.881325 0.650204
O19   O     O_3   0.991270 0.429630 0.949130 -0.371684
O20   O     O_3   0.008730 0.929630 0.050870 -0.372398
V3    V     V_3+5 0.001620 0.707150 0.009440 1.386009
V4    V     V_3+5 0.998380 0.207150 0.990560 1.382286
N1    N     N_3   0.755860 0.606411 0.639548 -0.677886
H37   H     H_    0.782117 0.477122 0.655748 0.216234
H38   H     H_    0.709642 0.578761 0.589813 0.232709
N2    N     N_3   0.243925 0.108484 0.361139 -0.677381
H39   H     H_    0.217766 0.979010 0.345358 0.218687
H40   H     H_    0.290154 0.081697 0.410994 0.228764
N3    N     N_3   0.135497 0.360161 0.704529 -0.670838
H41   H     H_    0.081463 0.317103 0.674169 0.223502
H42   H     H_    0.148545 0.461439 0.668606 0.238762
N4    N     N_3   0.881765 0.940993 0.287563 -0.665665
H43   H     H_    0.869206 0.875273 0.231983 0.227171
H44   H     H_    0.877451 0.838386 0.327964 0.238013

loop_
_geom_bond_atom_site_label_1
_geom_bond_atom_site_label_2
_ccdc_geom_bond_type
C26   C28   A    
C53   O18   A    
C18   N4    S    
C44   C52   S    
N4    H43   S    
C28   H12   S    
C47   C51   S    
O12   C56   A    
O1    C3    A    
C29   H13   S    
C44   H26   S    
C40   C48   S    
C2    O7    A    
C37   H15   S    
O20   V3    S    
N3    H41   S    
C27   C29   A    
C42   C50   S    
O5    C3    A    
C41   C49   S    
C49   H35   S    
C11   C17   A    
C7    C9    A    
C12   C14   A    
N1    H38   S    
N3    H42   S    
C9    H3    S    
C51   H29   S    
C52   H32   S    
C6    C8    A    
C50   H36   S    
C39   H19   S    
C42   C46   S    
C44   H28   S    
O12   V3    S    
C5    C7    A    
O14   V4    S    
C1    C48   S    
C48   C52   S    
C32   C34   A    
C42   H34   S    
C40   N2    S    
C19   C21   A    
C41   H33   S    
C38   C40   S    
C25   C35   A    
C30   H14   S    
C43   C51   S    
C39   C47   S    
O19   V4    S    
C28   C30   A    
O2    C4    A    
O6    V2    S    
O15   C55   A    
C20   H6    S    
N2    H40   S    
C34   C36   A    
C33   C35   A    
C37   H17   S    
C21   C31   A    
C37   C39   S    
C22   C32   A    
C44   C46   S    
C5    H1    S    
C43   C45   S    
O17   V3    S    
O5    V1    S    
C2    C47   S    
O16   C56   A    
C5    C15   A    
O4    V2    S    
O13   V3    S    
C18   C20   A    
C35   H9    S    
C15   C29   A    
C45   C56   S    
C41   C45   S    
O6    C4    A    
C27   H11   S    
C52   H30   S    
C6    C16   A    
O13   C53   A    
O1    V2    S    
C19   H5    S    
O2    V1    S    
C31   C33   A    
C38   C46   S    
C13   C23   A    
C14   C24   A    
C8    C10   A    
C47   C49   S    
C10   C12   A    
O4    C2    A    
C13   C15   A    
C24   C26   A    
C38   H18   S    
O18   V4    S    
C43   H27   S    
O3    V1    S    
N2    H39   S    
C6    H2    S    
C10   H4    S    
C8    C53   S    
C31   H7    S    
N4    H44   S    
C37   C45   S    
C23   C25   A    
C26   C36   A    
C48   C50   S    
C4    C33   S    
O3    C1    A    
C36   H10   S    
O14   C54   A    
O11   C55   A    
C14   C16   A    
C46   C55   S    
O16   V4    S    
C9    C11   A    
O7    V1    S    
C1    O8    A    
C17   C19   A    
C38   H16   S    
O8    V2    S    
N1    H37   S    
C43   H25   S    
C32   H8    S    
C39   N1    S    
C17   N3    S    
C16   C30   A    
C21   C23   A    
O15   V3    S    
C22   C24   A    
C11   C13   A    
C12   C18   A    
H23   C49   S    
C51   H31   S    
C7    C54   S    
C25   C27   A    
H22   C42   S    
O9    V2    S    
H24   C50   S    
O11   V4    S    
H21   C41   S    
O10   V1    S    
C3    C34   S    
C40   H20   S    
C20   C22   A    
C54   O17   A    
