data_mof_unit_65785.cif
_audit_creation_date              2013-03-05T16:23:47-0500
_audit_creation_method            fapswitch 2.2
_symmetry_space_group_name_H-M    P1
_symmetry_Int_Tables_number       1
_space_group_crystal_system       triclinic
_cell_length_a                    18.776888
_cell_length_b                    18.815551
_cell_length_c                    18.821755
_cell_angle_alpha                 109.431754
_cell_angle_beta                  109.440897
_cell_angle_gamma                 109.335055
_cell_volume                      5131.89105054

loop_
_atom_site_label
_atom_site_type_symbol
_atom_site_description
_atom_site_fract_x
_atom_site_fract_y
_atom_site_fract_z
_atom_type_partial_charge
O1    O     O_R   0.090190 0.947810 0.538000 -0.573413
O2    O     O_R   0.090150 0.052180 0.642350 -0.583239
C1    C     C_R   0.118696 0.000067 0.618596 0.790187
O3    O     O_R   0.090200 0.037990 0.447830 -0.583827
O4    O     O_R   0.090160 0.142360 0.552180 -0.571929
C2    C     C_R   0.117319 0.118578 0.498426 0.798645
Cu1   Cu    Cu3+1 0.000020 0.938200 0.438220 0.981240
Cu2   Cu    Cu3+1 0.999980 0.061800 0.561780 0.990222
O5    O     O_R   0.909850 0.947820 0.357650 -0.582531
O6    O     O_R   0.909810 0.052190 0.462000 -0.586932
O7    O     O_R   0.909840 0.857640 0.447820 -0.584264
O8    O     O_R   0.909800 0.962010 0.552170 -0.586238
C3    C     C_R   0.880751 0.999914 0.381188 0.800126
C4    C     C_R   0.881090 0.881403 0.499948 0.791252
H1    H     H_    0.891417 0.964201 0.103949 0.168774
C5    C     C_R   0.006774 0.984078 0.202176 -0.165785
H2    H     H_    0.997113 0.920904 0.163301 0.150384
C6    C     C_R   0.079543 0.040820 0.285142 -0.083860
H3    H     H_    0.126557 0.021591 0.309527 0.146553
C7    C     C_R   0.092198 0.122581 0.335750 0.060456
C8    C     C_R   0.031651 0.147279 0.302501 -0.203044
H4    H     H_    0.042616 0.211123 0.341606 0.193157
C9    C     C_R   0.958842 0.090994 0.218603 0.024028
C10   C     C_R   0.947062 0.009103 0.168667 -0.169566
C11   C     C_R   0.238077 0.251863 0.423544 -0.210163
H5    H     H_    0.229932 0.252324 0.363890 0.154873
C12   C     C_R   0.313865 0.316553 0.502520 -0.028978
C13   C     C_R   0.323808 0.316672 0.580310 0.159940
C14   C     C_R   0.258624 0.250407 0.576963 -0.125787
H6    H     H_    0.266006 0.250272 0.636592 0.134702
C15   C     C_R   0.183678 0.185069 0.497723 -0.072355
C16   C     C_R   0.172715 0.185890 0.420245 0.011679
C17   C     C_R   0.467531 0.374843 0.709723 0.283174
C18   C     C_R   0.537892 0.442208 0.791832 -0.258103
H7    H     H_    0.590411 0.432458 0.824215 0.221917
C19   C     C_R   0.542093 0.522116 0.831829 0.292333
C20   C     C_R   0.473757 0.533988 0.789312 -0.277185
H8    H     H_    0.475708 0.594837 0.820919 0.220839
C21   C     C_R   0.401783 0.467879 0.707489 0.262269
C22   C     C_R   0.398996 0.387667 0.666601 -0.147409
C23   C     C_R   0.162983 0.941361 0.713235 0.091232
C24   C     C_R   0.185393 0.001398 0.685805 -0.052027
C25   C     C_R   0.271283 0.070239 0.732422 -0.189547
H9    H     H_    0.288913 0.121092 0.716038 0.156211
C26   C     C_R   0.335731 0.071165 0.797837 -0.183308
H10   H     H_    0.402395 0.122767 0.830586 0.186349
C27   C     C_R   0.314079 0.003885 0.817825 -0.098868
C28   C     C_R   0.226306 0.942510 0.778142 0.126671
C29   C     C_3   0.182276 0.845676 0.733678 -0.407996
C30   C     C_3   0.112680 0.844538 0.662199 -0.477067
H11   H     H_    0.221101 0.819699 0.712141 0.209515
H12   H     H_    0.157915 0.819847 0.771080 0.200314
H13   H     H_    0.111001 0.817989 0.598931 0.234852
H14   H     H_    0.048423 0.818189 0.658703 0.187951
C31   C     C_R   0.808625 0.735966 0.483035 0.120734
C32   C     C_R   0.813778 0.815639 0.499806 -0.095056
C33   C     C_R   0.750973 0.830365 0.517656 -0.192907
H15   H     H_    0.751514 0.891180 0.530765 0.167226
C34   C     C_R   0.685630 0.765153 0.516864 -0.199958
H16   H     H_    0.637238 0.776889 0.529549 0.155005
C35   C     C_R   0.684338 0.685925 0.501010 -0.073262
C36   C     C_R   0.748009 0.674889 0.485414 0.110823
C37   C     C_3   0.779286 0.612049 0.462980 -0.470922
C38   C     C_3   0.849031 0.682004 0.460866 -0.437626
H17   H     H_    0.806246 0.599698 0.516968 0.213845
H18   H     H_    0.730883 0.553161 0.398247 0.202089
H19   H     H_    0.916220 0.710121 0.513710 0.192810
H20   H     H_    0.841096 0.663212 0.394979 0.216792
C39   C     C_R   0.793225 0.958502 0.227964 0.095731
C40   C     C_R   0.816136 0.003011 0.314962 -0.099322
C41   C     C_R   0.778467 0.054159 0.337549 -0.185190
H21   H     H_    0.796810 0.092418 0.404627 0.176056
C42   C     C_R   0.712801 0.052409 0.272676 -0.163235
H22   H     H_    0.681514 0.088726 0.290625 0.163861
C43   C     C_R   0.685648 0.001024 0.185141 -0.051415
C44   C     C_R   0.730175 0.958770 0.164194 0.097443
C45   C     C_3   0.695652 0.866385 0.100754 -0.441738
C46   C     C_3   0.764135 0.865665 0.171357 -0.367487
H23   H     H_    0.627794 0.822972 0.082151 0.218959
H24   H     H_    0.707819 0.860543 0.045789 0.214145
H25   H     H_    0.736208 0.822809 0.194986 0.207999
H26   H     H_    0.814200 0.857806 0.155955 0.211491
O9    O     O_R   0.447790 0.590200 0.538040 -0.581383
O10   O     O_R   0.552160 0.590170 0.642390 -0.596623
C47   C     C_R   0.500531 0.619674 0.619057 0.806738
O11   O     O_R   0.357620 0.409850 0.447860 -0.585121
O12   O     O_R   0.461990 0.409820 0.552210 -0.561840
C48   C     C_R   0.381094 0.382614 0.501600 0.806388
Cu3   Cu    Cu3+1 0.438190 0.500040 0.438260 0.979163
Cu4   Cu    Cu3+1 0.561780 0.500000 0.561820 1.009922
O13   O     O_R   0.447810 0.409860 0.357690 -0.589234
O14   O     O_R   0.552180 0.409830 0.462050 -0.575144
O15   O     O_R   0.537970 0.590210 0.447870 -0.584645
O16   O     O_R   0.642350 0.590180 0.552220 -0.583829
C49   C     C_R   0.500276 0.381358 0.381546 0.808449
C50   C     C_R   0.618513 0.618548 0.499981 0.788969
O17   O     O_R   0.552210 0.142430 0.090170 -0.546848
O18   O     O_R   0.447820 0.038100 0.090220 -0.593056
C51   C     C_R   0.502348 0.118610 0.120711 0.830674
O19   O     O_R   0.462030 0.052220 0.909860 -0.572979
O20   O     O_R   0.357640 0.947890 0.909900 -0.595092
C52   C     C_R   0.381041 0.000369 0.881325 0.796865
Cu5   Cu    Cu3+1 0.561810 0.061820 0.000020 1.063277
Cu6   Cu    Cu3+1 0.438190 0.938280 0.000080 0.977629
O21   O     O_R   0.552180 0.962000 0.909880 -0.551756
O22   O     O_R   0.447790 0.857670 0.909930 -0.586352
O23   O     O_R   0.642360 0.052210 0.090200 -0.531776
O24   O     O_R   0.537970 0.947880 0.090240 -0.597435
C53   C     C_R   0.499630 0.881567 0.880981 0.794794
C54   C     C_R   0.618624 0.999467 0.118058 0.814348
C55   C     C_R   0.459936 0.733502 0.665365 0.076467
C56   C     C_R   0.505093 0.690823 0.686453 -0.054103
C57   C     C_R   0.557971 0.720396 0.774990 -0.170588
H27   H     H_    0.597788 0.692634 0.794718 0.185764
C58   C     C_R   0.555616 0.782665 0.839011 -0.174202
H28   H     H_    0.593617 0.802138 0.906407 0.151339
C59   C     C_R   0.501429 0.816592 0.815252 -0.061262
C60   C     C_R   0.458660 0.795843 0.728971 0.107360
C61   C     C_3   0.365274 0.765834 0.671704 -0.239801
C62   C     C_3   0.367149 0.698077 0.600998 -0.425211
H29   H     H_    0.321933 0.737271 0.694706 0.156076
H30   H     H_    0.324342 0.630296 0.582684 0.241592
H31   H     H_    0.361465 0.708516 0.545001 0.201352
C63   C     C_R   0.431989 0.257653 0.234253 0.135226
C64   C     C_R   0.502986 0.316096 0.316682 -0.124599
C65   C     C_R   0.578681 0.308693 0.336376 -0.228955
H32   H     H_    0.635727 0.354034 0.400189 0.205062
C66   C     C_R   0.582076 0.244640 0.273609 -0.040316
C67   C     C_R   0.506100 0.185499 0.189839 -0.154241
C68   C     C_R   0.433142 0.194732 0.174568 0.101537
C69   C     C_3   0.341765 0.158768 0.107484 -0.474805
C70   C     C_3   0.340155 0.230274 0.176098 -0.436904
H33   H     H_    0.337866 0.167621 0.051037 0.198567
H34   H     H_    0.298314 0.092014 0.091161 0.210746
H35   H     H_    0.334748 0.280110 0.158993 0.209202
H36   H     H_    0.296158 0.204834 0.199793 0.197592
N1    N     N_R   0.615364 0.590927 0.915686 0.143042
O25   O     O_R   0.678723 0.579966 0.955678 -0.347745
O26   O     O_R   0.619681 0.665410 0.952726 -0.397953
N2    N     N_R   0.332273 0.483356 0.668221 0.126255
O27   O     O_R   0.252217 0.420143 0.616936 -0.349805
O28   O     O_R   0.347029 0.562481 0.692208 -0.387251
C71   C     C_2   0.351837 0.832755 0.651127 0.849844
O29   O     O_2   0.282121 0.810689 0.591649 -0.583386
O30   O     O_R   0.417630 0.919851 0.700933 -0.745899
H37   H     H_    0.399650 0.958334 0.681496 0.346777
C72   C     C_2   0.664721 0.241665 0.299832 0.811512
O31   O     O_2   0.683168 0.209243 0.245732 -0.590490
O32   O     O_R   0.723119 0.278183 0.387957 -0.759090
H38   H     H_    0.777027 0.272555 0.398012 0.343708
C73   C     C_2   0.895857 0.118079 0.183400 0.837302
O33   O     O_2   0.838642 0.073951 0.107038 -0.595582
O34   O     O_R   0.901383 0.194049 0.237622 -0.750305
H39   H     H_    0.854072 0.204861 0.206358 0.360185
N3    N     N_R   0.467058 0.294241 0.671471 0.133962
O35   O     O_R   0.505622 0.268922 0.720970 -0.349885
O36   O     O_R   0.436196 0.250186 0.588181 -0.345507

loop_
_geom_bond_atom_site_label_1
_geom_bond_atom_site_label_2
_geom_bond_distance
_ccdc_geom_bond_type
C4    C32   1.445181 S    
C31   C32   1.387461 A    
C37   H17   1.111505 S    
C1    C24   1.439739 S    
O20   C52   1.296417 A    
N3    O36   1.301170 A    
C61   C71   1.506296 S    
C23   C24   1.391964 A    
C72   O31   1.220789 D    
O12   C48   1.293907 A    
C69   H34   1.111500 S    
C66   C67   1.429519 A    
Cu6   O22   1.970861 S    
O30   H37   1.013930 S    
C35   C50   1.437133 S    
C53   C59   1.440511 S    
Cu1   Cu2   2.687119 S    
C45   C46   1.518427 S    
Cu1   O7    1.970737 S    
N1    O26   1.301432 A    
C30   H14   1.111401 S    
C65   H32   1.083716 S    
C55   C60   1.383119 A    
C38   H20   1.111514 S    
C12   C13   1.412147 A    
C13   C14   1.393720 A    
C72   O32   1.399195 S    
N2    O28   1.301303 A    
C6    H3    1.083105 S    
O4    C2    1.295090 A    
O7    C4    1.294022 A    
O11   C48   1.295262 A    
C33   C34   1.410645 A    
C3    C40   1.455197 S    
C13   C22   1.482134 S    
C58   H28   1.080569 S    
C31   C36   1.349133 A    
C32   C33   1.413681 A    
C63   C70   1.488980 S    
C39   C44   1.379969 A    
C71   O30   1.398874 S    
C18   H7    1.082453 S    
C42   H22   1.081903 S    
O5    C3    1.297065 A    
C60   C61   1.495545 S    
O21   C53   1.290748 A    
C57   H27   1.082839 S    
C55   C56   1.400105 A    
C5    H2    1.082290 S    
C29   H11   1.111532 S    
C73   O33   1.223418 D    
C40   C41   1.409195 A    
Cu3   O13   1.970945 S    
C14   H6    1.085074 S    
C19   N1    1.440681 S    
C6    C7    1.400949 A    
C35   C36   1.384203 A    
C62   H31   1.112460 S    
Cu2   O8    1.972363 S    
C47   C56   1.459591 S    
C11   C16   1.392898 A    
C26   C27   1.409690 A    
C2    C15   1.451769 S    
C37   H18   1.111740 S    
C34   H16   1.083330 S    
C5    C10   1.397518 A    
C27   C52   1.456396 S    
C8    H4    1.083616 S    
C73   O34   1.398631 S    
C14   C15   1.397639 A    
C42   C43   1.401320 A    
C39   C46   1.492398 S    
C12   C48   1.458988 S    
O10   Cu4   1.970823 S    
O3    Cu1   1.972363 S    
C56   C57   1.410037 A    
O17   C51   1.288275 A    
C62   H30   1.111601 S    
Cu4   O16   1.971444 S    
N3    O35   1.301524 A    
C44   C45   1.491686 S    
C61   H29   1.112786 S    
O9    Cu3   1.972224 S    
C34   C35   1.409668 A    
C17   C22   1.419038 A    
C51   C67   1.439637 S    
C30   H13   1.112382 S    
C38   H19   1.110594 S    
O10   C47   1.294610 A    
O3    C2    1.292472 A    
C21   C22   1.421572 A    
C41   C42   1.398753 A    
C58   C59   1.399948 A    
C11   H5    1.084979 S    
C26   H10   1.083007 S    
O11   Cu3   1.971566 S    
O19   Cu5   1.969290 S    
C55   C62   1.495370 S    
O1    C1    1.293451 A    
C43   C44   1.391962 A    
C20   H8    1.081942 S    
C46   H26   1.111111 S    
Cu4   O14   1.972202 S    
C27   C28   1.397892 A    
C70   H36   1.111722 S    
C29   H12   1.111661 S    
C31   C38   1.489801 S    
C36   C37   1.487914 S    
O19   C52   1.295417 A    
C17   C18   1.403218 A    
C45   H23   1.112132 S    
C63   C68   1.346217 A    
Cu5   O21   1.972146 S    
N2    O27   1.300887 A    
O16   C50   1.290899 A    
C25   C26   1.400215 A    
O17   Cu5   1.970861 S    
Cu2   O6    1.970033 S    
H1    C10   1.082940 S    
O9    C47   1.296901 A    
O8    C4    1.292663 A    
O15   C50   1.290016 A    
O18   C51   1.294527 A    
O20   Cu6   1.969180 S    
C8    C9    1.405585 A    
C25   H9    1.083844 S    
C64   C65   1.411279 A    
O23   C54   1.291236 A    
C24   C25   1.402556 A    
C69   C70   1.541340 S    
C23   C30   1.491966 S    
Cu6   O24   1.969289 S    
C67   C68   1.384979 A    
C7    C16   1.476591 S    
C45   H24   1.110344 S    
Cu1   O5    1.968629 S    
C9    C73   1.483090 S    
C21   N2    1.444764 S    
C19   C20   1.400703 A    
C43   C54   1.439491 S    
C65   C66   1.416293 A    
O1    Cu1   1.970033 S    
C15   C16   1.409416 A    
O2    Cu2   1.968628 S    
C69   H33   1.111721 S    
O6    C3    1.294385 A    
O4    Cu2   1.970737 S    
C61   C62   1.526317 S    
C17   N3    1.441782 S    
C66   C72   1.490296 S    
C11   C12   1.399031 A    
N1    O25   1.301579 A    
O2    C1    1.290152 A    
O34   H39   1.013980 S    
C41   H21   1.082796 S    
C20   C21   1.404350 A    
O32   H38   1.014114 S    
C46   H25   1.112143 S    
C33   H15   1.083106 S    
C70   H35   1.111482 S    
C28   C29   1.493636 S    
C23   C28   1.380260 A    
O24   C54   1.292453 A    
C68   C69   1.488831 S    
C18   C19   1.400829 A    
O14   C49   1.289925 A    
C49   C64   1.444351 S    
Cu3   O15   1.971482 S    
C39   C40   1.395620 A    
C9    C10   1.406697 A    
O13   C49   1.294343 A    
C37   C38   1.541817 S    
C7    C8    1.403491 A    
C5    C6    1.396318 A    
C29   C30   1.519916 S    
O12   Cu4   1.971700 S    
Cu5   Cu6   2.687336 S    
Cu5   O23   1.969180 S    
Cu3   Cu4   2.683952 S    
C59   C60   1.391762 A    
O18   Cu6   1.972143 S    
C71   O29   1.222531 D    
C63   C64   1.382302 A    
C57   C58   1.398949 A    
O22   C53   1.293366 A    
