data_mof_unit_64161.cif
_audit_creation_date              2012-12-10T20:16:47-0500
_audit_creation_method            fapswitch 2.2
_symmetry_space_group_name_H-M    P1
_symmetry_Int_Tables_number       1
_space_group_crystal_system       triclinic
_cell_length_a                    19.335596
_cell_length_b                    18.424771
_cell_length_c                    19.124905
_cell_angle_alpha                 90.00021
_cell_angle_beta                  90.14264
_cell_angle_gamma                 90.004933
_cell_volume                      6813.30139836

loop_
_atom_site_label
_atom_site_type_symbol
_atom_type_description
_atom_site_fract_x
_atom_site_fract_y
_atom_site_fract_z
_atom_type_partial_charge
C1    C     C_R   0.365623 0.499996 0.499881 0.872572
C2    C     C_R   0.634376 0.500003 0.500114 0.870548
C3    C     C_R   0.853150 0.500033 0.500398 0.107489
C4    C     C_R   0.146840 0.499947 0.499449 0.107444
C5    C     C_R   0.709476 0.500013 0.500308 -0.044731
C6    C     C_R   0.290517 0.499983 0.499647 -0.046607
C7    C     C_R   0.963930 0.544685 0.453268 -0.170402
C8    C     C_R   0.036057 0.455283 0.546557 -0.170423
C9    C     C_R   0.035558 0.544632 0.452999 -0.172789
C10   C     C_R   0.964430 0.455336 0.546827 -0.172677
C11   C     C_R   0.071736 0.499930 0.499642 0.101105
C12   C     C_R   0.928253 0.500039 0.500185 0.101151
C13   C     C_R   0.543336 0.725979 0.543830 -0.016502
C14   C     C_R   0.456676 0.273985 0.456187 -0.016758
C15   C     C_R   0.456676 0.726007 0.456188 -0.016797
C16   C     C_R   0.543335 0.274029 0.543831 -0.016550
C17   C     C_R   0.544190 0.802112 0.544665 -0.185901
C18   C     C_R   0.455851 0.197852 0.455385 -0.186086
C19   C     C_R   0.455850 0.802140 0.455385 -0.186259
C20   C     C_R   0.544189 0.197896 0.544666 -0.186076
C21   C     C_R   0.500026 0.841387 0.500034 0.285617
C22   C     C_R   0.500026 0.158613 0.500034 0.285618
C23   C     C_R   0.437581 0.961873 0.504329 0.496487
C24   C     C_R   0.562482 0.038127 0.495787 0.496325
C25   C     C_R   0.562482 0.961884 0.495787 0.496195
C26   C     C_R   0.437581 0.038115 0.504329 0.496357
C27   C     C_R   0.500030 0.077313 0.500053 -0.368069
C28   C     C_R   0.500031 0.922687 0.500053 -0.368068
C29   C     C_R   0.501052 0.500000 0.365137 0.869002
C30   C     C_R   0.501248 0.500000 0.634858 0.870971
C31   C     C_R   0.516772 0.565877 0.253593 -0.187082
C32   C     C_R   0.517565 0.434127 0.746394 -0.188988
C33   C     C_R   0.517552 0.565878 0.746395 -0.188470
C34   C     C_R   0.516789 0.434127 0.253594 -0.186559
C35   C     C_R   0.530501 0.565887 0.182467 -0.153478
C36   C     C_R   0.531405 0.434122 0.817567 -0.154440
C37   C     C_R   0.531392 0.565888 0.817569 -0.154114
C38   C     C_R   0.530518 0.434122 0.182468 -0.153148
C39   C     C_R   0.537352 0.500006 0.146374 0.082174
C40   C     C_R   0.538185 0.500006 0.853708 0.082906
C41   C     C_R   0.509969 0.500001 0.289566 -0.041314
C42   C     C_R   0.510554 0.500001 0.710425 -0.039671
C43   C     C_R   0.547165 0.500007 0.929525 0.291871
C44   C     C_R   0.546664 0.500007 0.070644 0.292297
C45   C     C_R   0.745608 0.434038 0.500319 -0.179613
C46   C     C_R   0.254377 0.565955 0.499598 -0.179996
C47   C     C_R   0.254394 0.433994 0.499456 -0.179686
C48   C     C_R   0.745603 0.565998 0.500480 -0.179331
C49   C     C_R   0.817233 0.434089 0.500376 -0.163901
C50   C     C_R   0.182750 0.565895 0.499486 -0.163766
C51   C     C_R   0.182768 0.434018 0.499386 -0.164391
C52   C     C_R   0.817229 0.565966 0.500494 -0.164440
H1    H     H_    0.512181 0.617425 0.280422 0.161012
H2    H     H_    0.512981 0.382576 0.719543 0.159585
H3    H     H_    0.512958 0.617428 0.719545 0.159708
H4    H     H_    0.512213 0.382577 0.280424 0.161138
H5    H     H_    0.535147 0.617508 0.155822 0.155644
H6    H     H_    0.536094 0.382502 0.844229 0.155106
H7    H     H_    0.536070 0.617510 0.844231 0.155189
H8    H     H_    0.535178 0.382502 0.155824 0.155729
H9    H     H_    0.718678 0.382482 0.500098 0.165836
H10   H     H_    0.281301 0.617513 0.499831 0.165967
H11   H     H_    0.281330 0.382448 0.499264 0.165849
H12   H     H_    0.718671 0.617547 0.500698 0.165709
H13   H     H_    0.844616 0.382796 0.499613 0.143696
H14   H     H_    0.155360 0.617185 0.500225 0.143719
H15   H     H_    0.155387 0.382717 0.498622 0.143526
H16   H     H_    0.844616 0.617264 0.501248 0.143513
H17   H     H_    0.936363 0.578774 0.416409 0.142300
H18   H     H_    0.063623 0.421198 0.583420 0.142310
H19   H     H_    0.062730 0.578697 0.415953 0.140961
H20   H     H_    0.937259 0.421274 0.583875 0.141056
H21   H     H_    0.577255 0.695959 0.578375 0.131250
H22   H     H_    0.422740 0.303974 0.421638 0.132259
H23   H     H_    0.422739 0.696012 0.421639 0.131971
H24   H     H_    0.577253 0.304055 0.578377 0.130972
H25   H     H_    0.578523 0.830057 0.580469 0.176994
H26   H     H_    0.421525 0.169878 0.419595 0.177163
H27   H     H_    0.421523 0.830107 0.419596 0.176972
H28   H     H_    0.578521 0.169958 0.580471 0.176802
N1    N     N_R   0.547904 0.436596 0.034768 -0.173439
N2    N     N_R   0.548135 0.563419 0.965415 -0.173568
N3    N     N_R   0.548144 0.436596 0.965415 -0.173630
N4    N     N_R   0.547895 0.563419 0.034768 -0.173506
N5    N     N_R   0.500000 0.689440 0.500000 -0.092316
N6    N     N_R   0.500000 0.310560 0.500000 -0.092318
O1    O     O_R   0.398180 0.560840 0.499980 -0.621141
O2    O     O_R   0.601820 0.439160 0.500020 -0.622450
O3    O     O_R   0.601820 0.560840 0.500020 -0.622511
O4    O     O_R   0.398180 0.439160 0.499980 -0.621212
O5    O     O_R   0.499990 0.560830 0.398130 -0.622180
O6    O     O_R   0.500010 0.439170 0.601870 -0.621746
O7    O     O_R   0.500010 0.560830 0.601870 -0.621581
O8    O     O_R   0.499990 0.439170 0.398130 -0.622019
Zn1   Zn    Zn3+2 0.500000 0.581210 0.500000 0.958512
Zn2   Zn    Zn3+2 0.500000 0.418790 0.500000 0.958506
F1    F     F_    0.376398 0.926330 0.510593 -0.605937
F2    F     F_    0.623664 0.073672 0.489523 -0.606170
F3    F     F_    0.623664 0.926351 0.489522 -0.606255
F4    F     F_    0.376398 0.073647 0.510593 -0.606024

loop_
_geom_bond_atom_site_label_1
_geom_bond_atom_site_label_2
_ccdc_geom_bond_type
C33   H3    S    
C15   H23   S    
O2    Zn2   S    
C34   H4    S    
C1    O4    A    
C43   N3    A    
C14   C18   A    
C24   C27   A    
C3    C49   A    
C25   C28   A    
C15   C19   A    
C26   C27   A    
C49   H13   S    
C46   H10   S    
C24   F2    S    
C33   C42   A    
C32   C36   A    
C19   C21   A    
C37   C40   A    
C36   H6    S    
C47   H11   S    
C38   C39   A    
C48   H12   S    
O6    Zn2   S    
C23   C26   A    
C1    O1    A    
C3    C12   S    
C25   F3    S    
C40   C43   S    
O1    Zn1   S    
C2    O2    A    
C31   C41   A    
C52   H16   S    
C18   H26   S    
C15   N5    A    
O7    Zn1   S    
C16   H24   S    
C16   N6    A    
C34   C41   A    
C10   C12   A    
C32   H2    S    
N1    N3    A    
C7    C12   A    
C5    C48   A    
C6    C47   A    
C20   H28   S    
C4    C51   A    
C1    C6    S    
C36   C40   A    
C24   C25   A    
C14   N6    A    
C30   O6    A    
C44   N1    A    
C47   C51   A    
C5    C45   A    
C17   C21   A    
C4    C50   A    
O3    Zn1   S    
C2    O3    A    
C35   C39   A    
C50   H14   S    
C45   C49   A    
C16   C20   A    
C17   H25   S    
C51   H15   S    
C23   C28   A    
C31   H1    S    
C4    C11   S    
O8    Zn2   S    
C9    C11   A    
C37   H7    S    
N6    Zn2   S    
C38   H8    S    
C23   F1    S    
C21   C28   S    
C20   C22   A    
N2    N4    A    
C22   C27   S    
C31   C35   A    
C2    C5    S    
C14   H22   S    
C29   O5    A    
C7    C9    A    
C6    C46   A    
C29   C41   S    
C34   C38   A    
C9    H19   S    
C13   H21   S    
C44   N4    A    
C7    H17   S    
C3    C52   A    
O4    Zn2   S    
C39   C44   S    
C30   O7    A    
C46   C50   A    
C8    H18   S    
C13   C17   A    
C35   H5    S    
C18   C22   A    
N5    Zn1   S    
C29   O8    A    
C8    C11   A    
C45   H9    S    
C33   C37   A    
O5    Zn1   S    
C48   C52   A    
C8    C10   A    
C13   N5    A    
C43   N2    A    
C32   C42   A    
C30   C42   S    
C19   H27   S    
C26   F4    S    
C10   H20   S    
