data_mof_unit_21926.cif
_audit_creation_date              2012-12-11T14:58:21-0500
_audit_creation_method            fapswitch 2.2
_symmetry_space_group_name_H-M    P1
_symmetry_Int_Tables_number       1
_space_group_crystal_system       triclinic
_cell_length_a                    11.165873
_cell_length_b                    11.183095
_cell_length_c                    18.783613
_cell_angle_alpha                 90.874041
_cell_angle_beta                  90.022306
_cell_angle_gamma                 59.64948
_cell_volume                      2023.73425823

loop_
_atom_site_label
_atom_site_type_symbol
_atom_type_description
_atom_site_fract_x
_atom_site_fract_y
_atom_site_fract_z
_atom_type_partial_charge
C1    C     C_R   0.356439 0.777361 0.398825 0.613723
C2    C     C_R   0.617106 0.132832 0.164514 0.057876
C3    C     C_R   0.360005 0.330735 0.162408 -0.039715
C4    C     C_R   0.483744 0.237088 0.272441 0.381892
C5    C     C_R   0.483841 0.236845 0.198828 -0.048326
C6    C     C_R   0.111851 0.660414 0.339837 0.053057
C7    C     C_R   0.016313 0.735740 0.395346 0.012542
C8    C     C_R   0.634294 0.008078 0.137847 -0.045846
C9    C     C_R   0.759267 0.907166 0.107229 -0.026953
C10   C     C_R   0.249077 0.437146 0.201494 0.399294
C11   C     C_R   0.250627 0.437041 0.275539 -0.074920
C12   C     C_R   0.388230 0.353653 0.387726 0.576863
C13   C     C_R   0.910623 0.709907 0.409659 0.258573
C14   C     C_R   0.910344 0.602569 0.372428 -0.024981
C15   C     C_R   0.028639 0.504274 0.335885 -0.123192
C16   C     C_R   0.125490 0.537872 0.315018 0.084131
C17   C     C_R   0.368662 0.337168 0.311730 -0.048810
C18   C     C_R   0.970364 0.241506 0.316084 -0.136445
C19   C     C_R   0.016215 0.215975 0.244687 -0.180100
C20   C     C_R   0.933084 0.309798 0.192721 -0.029450
C21   C     C_R   0.822594 0.436071 0.215161 0.305882
C22   C     C_R   0.756551 0.437555 0.277933 0.227563
C23   C     C_R   0.778499 0.377777 0.403559 0.567115
C24   C     C_R   0.834843 0.346105 0.331589 0.013450
C25   C     C_R   0.448308 0.842131 0.290681 0.250724
C26   C     C_R   0.445883 0.838960 0.215569 0.184965
C27   C     C_R   0.332643 0.852825 0.180055 -0.001900
C28   C     C_R   0.226909 0.853211 0.220053 0.365356
C29   C     C_R   0.216268 0.881073 0.291876 0.127363
C30   C     C_R   0.335268 0.851266 0.330192 -0.036824
C31   C     C_R   0.401495 0.203125 0.694749 -0.153730
C32   C     C_R   0.393435 0.190583 0.766726 -0.134278
C33   C     C_R   0.300714 0.305329 0.808715 -0.038144
C34   C     C_R   0.344647 0.768791 0.604404 0.564959
C35   C     C_R   0.208262 0.430620 0.776607 -0.096289
C36   C     C_R   0.217849 0.444075 0.703587 0.372125
C37   C     C_R   0.320474 0.331143 0.663135 0.027021
C38   C     C_R   0.734551 0.471591 0.733549 -0.173031
C39   C     C_R   0.750216 0.456381 0.806331 -0.145790
C40   C     C_R   0.821696 0.323955 0.835014 -0.029229
C41   C     C_R   0.865712 0.206829 0.790112 -0.093183
C42   C     C_R   0.847304 0.222518 0.716531 0.371506
C43   C     C_R   0.786452 0.355560 0.687712 0.038986
C44   C     C_R   0.209314 0.822867 0.714532 -0.098523
C45   C     C_R   0.368871 0.351454 0.595185 0.550091
C46   C     C_R   0.202609 0.831855 0.787766 -0.141517
C47   C     C_R   0.304695 0.842229 0.825564 -0.019292
C48   C     C_R   0.415889 0.839436 0.789297 -0.121964
C49   C     C_R   0.422360 0.832930 0.715798 0.177521
C50   C     C_R   0.320559 0.819709 0.677687 0.039201
C51   C     C_R   0.972535 0.290725 0.117658 0.539800
C52   C     C_R   0.329186 0.294743 0.091792 0.562834
C53   C     C_R   0.304547 0.900181 0.105623 0.586948
C54   C     C_R   0.882560 0.308641 0.905444 0.552773
C55   C     C_R   0.292678 0.283140 0.883889 0.555635
C56   C     C_R   0.756168 0.380957 0.611893 0.561651
C57   C     C_R   0.276133 0.893950 0.898326 0.557819
C58   C     C_R   0.875126 0.921311 0.112968 0.468461
C59   C     C_R   0.864755 0.034842 0.150775 0.016155
C60   C     C_R   0.735709 0.143384 0.173476 -0.089547
Cr1   Cr    Cr6+3 0.601770 0.606860 0.505860 1.175972
Cr2   Cr    Cr6+3 0.291380 0.601660 0.495070 1.077638
Cr3   Cr    Cr6+3 0.606880 0.291510 0.499120 1.199826
Cr4   Cr    Cr6+3 0.062440 0.063090 0.008210 1.075128
Cr5   Cr    Cr6+3 0.062880 0.375170 0.998920 1.134582
Cr6   Cr    Cr6+3 0.374700 0.061720 0.992470 1.018523
H1    H     H_    0.815123 0.607340 0.362911 0.238222
H2    H     H_    0.037498 0.412628 0.313861 0.132648
H3    H     H_    0.040005 0.184342 0.358800 0.175574
H4    H     H_    0.118246 0.131715 0.230704 0.105646
H5    H     H_    0.767363 0.816658 0.080863 0.196515
H6    H     H_    0.479971 0.115169 0.664710 0.231732
H7    H     H_    0.462012 0.090199 0.789329 0.185990
H8    H     H_    0.131840 0.518230 0.807992 0.158515
H9    H     H_    0.681278 0.575093 0.713070 0.206908
H10   H     H_    0.714434 0.548228 0.839794 0.159238
H11   H     H_    0.922582 0.103228 0.811212 0.152786
H12   H     H_    0.128935 0.813661 0.687125 0.242725
H13   H     H_    0.019455 0.816083 0.426261 0.209333
H14   H     H_    0.114248 0.836492 0.814368 0.164074
H15   H     H_    0.494508 0.850061 0.817789 0.161239
H16   H     H_    0.956041 0.039307 0.163209 0.213546
H17   H     H_    0.728839 0.232053 0.201099 0.165603
H18   H     H_    0.189601 0.680806 0.321119 0.206861
H19   H     H_    0.546563 0.994213 0.138841 0.210182
O1    O     O_R   0.748800 0.497470 0.428000 -0.517804
O2    O     O_R   0.300070 0.471040 0.567100 -0.443627
O3    O     O_R   0.491670 0.258900 0.574910 -0.502722
O4    O     O_R   0.718780 0.304180 0.577850 -0.453892
O5    O     O_3   0.500010 0.500010 0.500020 -0.323049
O6    O     O_R   0.186690 0.923650 0.086970 -0.429009
O7    O     O_R   0.957250 0.194250 0.084630 -0.547925
O8    O     O_R   0.934970 0.407490 0.085330 -0.403987
O9    O     O_R   0.203780 0.365190 0.067090 -0.418951
O10   O     O_R   0.417600 0.174890 0.067840 -0.565829
O11   O     O_R   0.375320 0.946260 0.070860 -0.500914
O12   O     O_R   0.476420 0.724060 0.429470 -0.417337
O13   O     O_R   0.160600 0.919630 0.926660 -0.495194
O14   O     O_R   0.933060 0.190520 0.936020 -0.505966
O15   O     O_R   0.908880 0.403460 0.925020 -0.506660
O16   O     O_R   0.179600 0.361450 0.918490 -0.499106
O17   O     O_R   0.391510 0.170860 0.907530 -0.521015
O18   O     O_R   0.351130 0.942530 0.922260 -0.511084
O19   O     O_3   0.166667 0.166667 0.999870 -0.319488
O20   O     O_R   0.264580 0.744340 0.416750 -0.540062
O21   O     O_R   0.309380 0.472470 0.418200 -0.550139
O22   O     O_R   0.501710 0.260430 0.414300 -0.385821
O23   O     O_R   0.728090 0.305600 0.428960 -0.436217
O24   O     O_R   0.738760 0.495930 0.588610 -0.486298
O25   O     O_R   0.467110 0.722640 0.578360 -0.445043
O26   O     O_R   0.254530 0.742800 0.577360 -0.492592
F1    F     F_    0.599842 0.137617 0.305184 -0.531055
Cl1   Cl    Cl    0.779053 0.813555 0.471354 -0.425739
Cl2   Cl    Cl    0.865806 0.566466 0.207177 -0.419051
Cl3   Cl    Cl    0.574933 0.521917 0.280757 -0.606877
Cl4   Cl    Cl    0.585932 0.846275 0.332374 -0.413704
Cl5   Cl    Cl    0.592947 0.759821 0.163567 -0.509592
F2    F     F_    0.136883 0.820465 0.190363 -0.522842
Cl6   Cl    Cl    0.050309 0.953798 0.329690 -0.608033
F3    F     F_    0.133314 0.568949 0.673965 -0.606330
F4    F     F_    0.894053 0.108434 0.673708 -0.610738
Cl7   Cl    Cl    0.559099 0.844202 0.675363 -0.586878
F5    F     F_    0.996951 0.823302 0.083371 -0.520285
F6    F     F_    0.136306 0.538363 0.167876 -0.490026

loop_
_geom_bond_atom_site_label_1
_geom_bond_atom_site_label_2
_ccdc_geom_bond_type
C33   C55   S    
C12   O21   A    
C35   H8    S    
Cr3   O3    S    
C41   C42   A    
Cr6   O17   S    
C35   C36   A    
C26   Cl5   S    
Cr5   O16   S    
Cr1   O24   S    
Cr2   O20   S    
C29   Cl6   S    
C55   O17   A    
C28   C29   A    
C26   C27   A    
C18   C24   A    
C8    H19   S    
Cr6   O11   S    
C36   C37   A    
C45   O2    A    
C18   C19   A    
C20   C51   S    
C10   F6    S    
C41   H11   S    
C38   C39   A    
C60   H17   S    
C2    C60   A    
C49   Cl7   S    
C15   C16   A    
C48   H15   S    
C52   O10   A    
C9    C58   A    
C33   C35   A    
Cr4   O14   S    
C11   C17   A    
Cr2   O26   S    
C19   C20   A    
C8    C9    A    
C23   O1    A    
C12   C17   S    
C53   O6    A    
C14   H1    S    
C59   H16   S    
C52   O9    A    
C23   O23   A    
C18   H3    S    
Cr5   O8    S    
C4    F1    S    
C59   C60   A    
C21   C22   A    
C53   O11   A    
C34   O26   A    
C54   O15   A    
Cr1   O25   S    
C44   C46   A    
C38   H9    S    
C57   O18   A    
Cr1   O12   S    
C34   C50   S    
C6    H18   S    
Cr6   O19   S    
C45   O3    A    
C31   H6    S    
Cr1   O1    S    
C25   Cl4   S    
C1    O12   A    
C39   C40   A    
C21   Cl2   S    
C58   C59   A    
C31   C37   A    
C29   C30   A    
C51   O7    A    
C47   C57   S    
C11   C16   S    
C47   C48   A    
C23   C24   S    
Cr3   O4    S    
C58   F5    S    
C39   H10   S    
C51   O8    A    
C4    C17   A    
C40   C41   A    
C40   C54   S    
C34   O25   A    
C22   C24   A    
C54   O14   A    
C2    C5    S    
C42   C43   A    
Cr4   O7    S    
C37   C45   S    
C56   O24   A    
C32   H7    S    
Cr1   O5    S    
C7    H13   S    
C44   C50   A    
C25   C30   A    
Cr4   O19   S    
C56   O4    A    
C46   C47   A    
C22   Cl3   S    
Cr6   O18   S    
C31   C32   A    
C2    C8    A    
C9    H5    S    
Cr5   O15   S    
C4    C5    A    
C3    C5    A    
C12   O22   A    
C3    C52   S    
C27   C53   S    
C6    C7    A    
Cr2   O21   S    
Cr2   O2    S    
C55   O16   A    
C15   H2    S    
Cr5   O19   S    
C32   C33   A    
C44   H12   S    
C25   C26   A    
C38   C43   A    
C3    C10   A    
C28   F2    S    
C46   H14   S    
C48   C49   A    
C57   O13   A    
Cr2   O5    S    
Cr3   O5    S    
Cr4   O13   S    
C1    C30   S    
Cr5   O9    S    
C36   F3    S    
C10   C11   A    
C6    C16   A    
C43   C56   S    
C7    C13   A    
C20   C21   A    
C49   C50   A    
C27   C28   A    
C14   C15   A    
C19   H4    S    
Cr4   O6    S    
Cr3   O23   S    
C13   C14   A    
Cr3   O22   S    
C13   Cl1   S    
C42   F4    S    
C1    O20   A    
Cr6   O10   S    
