data_mof_unit_49716.cif
_audit_creation_date              2013-03-05T15:45:31-0500
_audit_creation_method            fapswitch 2.2
_symmetry_space_group_name_H-M    P1
_symmetry_Int_Tables_number       1
_space_group_crystal_system       triclinic
_cell_length_a                    10.992797
_cell_length_b                    10.954515
_cell_length_c                    18.786038
_cell_angle_alpha                 89.922142
_cell_angle_beta                  89.391252
_cell_angle_gamma                 59.813747
_cell_volume                      1955.32933202

loop_
_atom_site_label
_atom_site_type_symbol
_atom_site_description
_atom_site_fract_x
_atom_site_fract_y
_atom_site_fract_z
_atom_type_partial_charge
O1    O     O_R   0.507430 0.255570 0.581420 -0.499843
O2    O     O_R   0.280190 0.527390 0.578910 -0.493888
C1    C     C_R   0.298396 0.620992 0.615309 0.564473
O3    O     O_R   0.260310 0.739740 0.584580 -0.460103
O4    O     O_R   0.532250 0.695150 0.573830 -0.524908
C2    C     C_R   0.652664 0.619661 0.601374 0.552737
O5    O     O_R   0.744930 0.503430 0.576380 -0.501636
O6    O     O_R   0.699250 0.276390 0.571950 -0.520970
C3    C     C_R   0.628778 0.225460 0.601962 0.543857
O7    O     O_R   0.499020 0.256400 0.419850 -0.521074
O8    O     O_R   0.272400 0.528160 0.429140 -0.501706
C4    C     C_R   0.223735 0.648171 0.401199 0.556161
O9    O     O_R   0.251910 0.740570 0.423020 -0.506941
O10   O     O_R   0.524460 0.695920 0.424060 -0.502137
C5    C     C_R   0.644443 0.625961 0.393634 0.550161
O11   O     O_R   0.736530 0.504260 0.414810 -0.518315
O12   O     O_R   0.691460 0.277160 0.422180 -0.503856
C6    C     C_R   0.618290 0.228491 0.395119 0.546594
Cr1   Cr    Cr6+3 0.392930 0.397900 0.502230 1.031176
Cr2   Cr    Cr6+3 0.398240 0.708600 0.501260 1.036504
Cr3   Cr    Cr6+3 0.708800 0.393470 0.496460 1.020559
O13   O     O_3   0.499990 0.499990 0.499980 -0.286757
C7    C     C_3   0.588847 0.815066 0.778744 -0.316779
H1    H     H_    0.623620 0.893511 0.778891 0.190716
H2    H     H_    0.488934 0.862364 0.810283 0.130632
C8    C     C_3   0.558253 0.790315 0.701875 -0.318533
H3    H     H_    0.455897 0.794693 0.701201 0.166248
H4    H     H_    0.548559 0.873505 0.665087 0.167963
C9    C     C_3   0.848931 0.622702 0.769207 0.398413
C10   C     C_3   0.641993 0.571303 0.800871 -0.049644
C11   C     C_3   0.702942 0.671732 0.811670 0.044742
H5    H     H_    0.527059 0.631336 0.814256 0.110566
C12   C     C_3   0.673829 0.642551 0.675679 0.008642
C13   C     C_3   0.823069 0.627090 0.685657 0.199642
C14   C     C_3   0.656429 0.532137 0.721206 -0.194000
H6    H     H_    0.560745 0.529849 0.705082 0.073272
H7    H     H_    0.744326 0.423926 0.711211 0.188336
C15   C     C_R   0.785828 0.152906 0.706801 -0.155147
H8    H     H_    0.865030 0.162270 0.676540 0.132239
C16   C     C_R   0.800228 0.134735 0.780509 -0.089164
H9    H     H_    0.895611 0.117720 0.805723 0.168747
C17   C     C_R   0.688254 0.143903 0.821016 0.011163
C18   C     C_R   0.567199 0.162885 0.786369 -0.144948
H10   H     H_    0.477958 0.170782 0.815584 0.147234
C19   C     C_R   0.564257 0.153122 0.713679 0.067254
C20   C     C_R   0.666759 0.164440 0.672968 0.054405
C21   C     C_R   0.312294 0.517337 0.736914 -0.143392
H11   H     H_    0.360077 0.415759 0.712668 0.117923
C22   C     C_R   0.279921 0.531330 0.810201 -0.091400
H12   H     H_    0.300697 0.439478 0.841012 0.147340
C23   C     C_R   0.211933 0.665685 0.841522 0.046646
C24   C     C_R   0.202978 0.778981 0.801968 -0.093381
H13   H     H_    0.157942 0.883724 0.824972 0.139657
C25   C     C_R   0.228635 0.767879 0.729121 0.110112
C26   C     C_R   0.277199 0.635638 0.694213 0.080899
C27   C     C_R   0.804136 0.594629 0.294959 -0.113758
H14   H     H_    0.890400 0.512247 0.324724 0.140881
C28   C     C_R   0.825959 0.609677 0.223601 0.090988
C29   C     C_R   0.713341 0.711454 0.182349 0.060039
C30   C     C_R   0.582930 0.801265 0.215435 -0.160737
H15   H     H_    0.495416 0.880536 0.185234 0.144070
C31   C     C_R   0.561456 0.782217 0.286966 -0.145282
H16   H     H_    0.457396 0.845514 0.310234 0.147159
C32   C     C_R   0.671052 0.674526 0.326021 0.004140
C33   C     C_R   0.558167 0.142438 0.289471 -0.160614
H17   H     H_    0.484148 0.124359 0.319653 0.152986
C34   C     C_R   0.554059 0.139801 0.216587 -0.189005
H18   H     H_    0.481852 0.112155 0.192746 0.152562
C35   C     C_R   0.647712 0.162901 0.175484 0.010171
C36   C     C_R   0.741164 0.197681 0.208579 0.192147
C37   C     C_R   0.743269 0.201561 0.282329 -0.130194
H19   H     H_    0.811548 0.232936 0.307609 0.169583
C38   C     C_R   0.649596 0.177463 0.322735 -0.025797
C39   C     C_R   0.060556 0.780566 0.306034 -0.136341
H20   H     H_    0.994561 0.865630 0.342474 0.123889
C40   C     C_R   0.031280 0.793937 0.234365 -0.096684
H21   H     H_    0.940011 0.889215 0.215560 0.138439
C41   C     C_R   0.121269 0.686479 0.186778 0.057217
C42   C     C_R   0.236977 0.562841 0.210324 -0.151039
H22   H     H_    0.305839 0.480299 0.173386 0.128196
C43   C     C_R   0.264446 0.548053 0.282346 -0.132316
H23   H     H_    0.357388 0.454000 0.300774 0.148105
C44   C     C_R   0.177454 0.658026 0.329677 0.031375
O14   O     O_R   0.089490 0.825610 0.930610 -0.528253
O15   O     O_R   0.818370 0.054540 0.929880 -0.465176
C45   C     C_R   0.701987 0.101058 0.895620 0.583164
O16   O     O_R   0.605870 0.077310 0.915530 -0.524360
O17   O     O_R   0.646440 0.806700 0.917570 -0.501912
C46   C     C_R   0.722860 0.687026 0.888536 0.592565
O18   O     O_R   0.837200 0.593290 0.915250 -0.430822
O19   O     O_R   0.065330 0.635370 0.931590 -0.435224
C47   C     C_R   0.126830 0.702980 0.908295 0.586612
O20   O     O_R   0.068300 0.828790 0.091860 -0.502954
O21   O     O_R   0.798730 0.057480 0.079370 -0.458607
C48   C     C_R   0.673522 0.108918 0.103422 0.555436
O22   O     O_R   0.584680 0.080480 0.076790 -0.544746
O23   O     O_R   0.626790 0.809640 0.067050 -0.520289
C49   C     C_R   0.733293 0.718428 0.105325 0.572783
O24   O     O_R   0.816010 0.596460 0.076500 -0.445358
O25   O     O_R   0.045680 0.638310 0.081070 -0.513477
C50   C     C_R   0.090390 0.710624 0.113009 0.525453
Cr4   Cr    Cr6+3 0.937620 0.938540 0.007640 1.106137
Cr5   Cr    Cr6+3 0.625150 0.937450 0.994520 1.035346
Cr6   Cr    Cr6+3 0.937990 0.625080 0.001190 1.126836
O26   O     O_3   0.833590 0.833690 0.001120 -0.290388
N1    N     N_R   0.957699 0.478130 0.792187 0.092577
O27   O     O_R   0.943877 0.368142 0.783316 -0.384713
O28   O     O_R   0.069623 0.458331 0.824717 -0.317604
N2    N     N_3   0.938082 0.500509 0.650169 -0.548290
H24   H     H_    0.938111 0.407541 0.661808 0.260376
H25   H     H_    0.035801 0.488356 0.663378 0.282465
N3    N     N_3   0.454736 0.135522 0.682036 -0.613586
H26   H     H_    0.364421 0.233344 0.674969 0.254271
H27   H     H_    0.422534 0.083878 0.717732 0.212187
N4    N     N_3   0.187902 0.896086 0.690825 -0.585592
H28   H     H_    0.227483 0.953288 0.716499 0.205430
H29   H     H_    0.078398 0.957023 0.693606 0.251541
N5    N     N_3   0.960054 0.512818 0.192374 -0.570740
H30   H     H_    0.965913 0.415021 0.188237 0.298223
H31   H     H_    0.038449 0.498639 0.227828 0.217623
N6    N     N_R   0.834095 0.228653 0.168344 0.081743
O29   O     O_R   0.788907 0.309342 0.112544 -0.322907
O30   O     O_R   0.961907 0.183053 0.189880 -0.375202
N7    N     N_R   0.904008 0.718758 0.783740 0.072591
O31   O     O_R   0.005118 0.709473 0.743922 -0.334678
O32   O     O_R   0.849544 0.819086 0.831021 -0.370063
N8    N     N_3   0.823253 0.748423 0.650515 -0.536223
H32   H     H_    0.791714 0.757553 0.597521 0.237457
H33   H     H_    0.759908 0.844703 0.676314 0.246861
N9    N     N_3   0.703418 0.446085 0.846260 -0.541951
H34   H     H_    0.646161 0.395604 0.836990 0.209754
H35   H     H_    0.680315 0.477809 0.899482 0.239009

loop_
_geom_bond_atom_site_label_1
_geom_bond_atom_site_label_2
_geom_bond_distance
_ccdc_geom_bond_type
C15   C16   1.397930 A    
O11   Cr3   2.067777 S    
O14   Cr4   2.070804 S    
C48   O22   1.271968 A    
O25   Cr6   1.971085 S    
C39   C44   1.387931 A    
C22   C23   1.399209 A    
N3    H27   1.044215 S    
C43   H23   1.083144 S    
C19   N3    1.445322 S    
C21   C22   1.407472 A    
O4    Cr2   1.968329 S    
C19   C20   1.411319 A    
O8    Cr1   1.951680 S    
C8    H3    1.102055 S    
C39   C40   1.378053 A    
C10   C14   1.541836 S    
C21   C26   1.404546 A    
C14   H7    1.104066 S    
C40   C41   1.405871 A    
N2    H25   1.046406 S    
O15   C45   1.292935 A    
C10   C11   1.563700 S    
C33   C34   1.371259 A    
N1    O27   1.299132 A    
C5    O11   1.268978 A    
C9    N7    1.480975 S    
C28   N5    1.432945 S    
C33   C38   1.396295 A    
C27   H14   1.084269 S    
Cr4   O26   1.991545 S    
C30   C31   1.395362 A    
C7    C8    1.541096 S    
C22   H12   1.081534 S    
N5    H30   1.043388 S    
Cr6   O26   1.975343 S    
C31   C32   1.403084 A    
C1    C26   1.494303 S    
C14   H6    1.109977 S    
C27   C28   1.383498 A    
C13   N8    1.484163 S    
C11   C46   1.485084 S    
C5    C32   1.459002 S    
C27   C32   1.393713 A    
C36   C37   1.386980 A    
C17   C45   1.462451 S    
O19   Cr6   1.949660 S    
C16   C17   1.400116 A    
O24   Cr6   2.068609 S    
C3    C20   1.459203 S    
Cr3   O13   1.984521 S    
C41   C50   1.422824 S    
C35   C36   1.412391 A    
N3    H26   1.041222 S    
C43   C44   1.408085 A    
C24   C25   1.387396 A    
O23   C49   1.313625 A    
C15   H8    1.082073 S    
O1    Cr1   2.070835 S    
C15   C20   1.408650 A    
C39   H20   1.083796 S    
C34   H18   1.082604 S    
O10   Cr2   1.952375 S    
Cr1   O13   1.989959 S    
O1    C3    1.266991 A    
C40   H21   1.083614 S    
O20   C50   1.255779 A    
O19   C47   1.301329 A    
C42   C43   1.380920 A    
C41   C42   1.387738 A    
O6    C3    1.285995 A    
N4    H29   1.043097 S    
C28   C29   1.416422 A    
C10   N9    1.463626 S    
C9    C13   1.594441 S    
O12   Cr3   1.965106 S    
C23   C24   1.406552 A    
C4    C44   1.426436 S    
C30   H15   1.082411 S    
C34   C35   1.401675 A    
C7    C11   1.566688 S    
N9    H35   1.044857 S    
C18   H10   1.083712 S    
N8    H33   1.042998 S    
C31   H16   1.083026 S    
C23   C47   1.485839 S    
C8    C12   1.548305 S    
C21   H11   1.063057 S    
O7    Cr1   2.075596 S    
C7    H1    1.102235 S    
C25   N4    1.436053 S    
O12   C6    1.276840 A    
Cr5   O26   1.985984 S    
C4    O9    1.267906 A    
C18   C19   1.371880 A    
O18   Cr6   2.093546 S    
N6    O29   1.301501 A    
O23   Cr5   1.946047 S    
O16   Cr5   2.065961 S    
C16   H9    1.082723 S    
Cr2   O13   1.975611 S    
C33   H17   1.083838 S    
C6    C38   1.441745 S    
C9    N1    1.492986 S    
C17   C18   1.406239 A    
N8    H32   1.045712 S    
O17   Cr5   1.964005 S    
C24   H13   1.083491 S    
N7    O32   1.298045 A    
C29   C49   1.468850 S    
C25   C26   1.425148 A    
O9    Cr2   2.086349 S    
O2    Cr1   1.955223 S    
C45   O16   1.261638 A    
C35   C48   1.445046 S    
O6    Cr3   1.947932 S    
O20   Cr4   2.078129 S    
O8    C4    1.259707 A    
C2    O5    1.250278 A    
C8    H4    1.105286 S    
C2    C12   1.460168 S    
O2    C1    1.330483 A    
C37   H19   1.083741 S    
C9    C11   1.614752 S    
O5    Cr3   2.088431 S    
N2    H24   1.041181 S    
C10   H5    1.118094 S    
C36   N6    1.435783 S    
N4    H28   1.045973 S    
O4    C2    1.271356 A    
N1    O28   1.296743 A    
O7    C6    1.269911 A    
O25   C50   1.276002 A    
C12   C14   1.567605 S    
C12   C13   1.575531 S    
N9    H34   1.041584 S    
C7    H2    1.113805 S    
O21   C48   1.274232 A    
N5    H31   1.042925 S    
N6    O30   1.301146 A    
C42   H22   1.083681 S    
O3    Cr2   2.072739 S    
C29   C30   1.404920 A    
O17   C46   1.267497 A    
O21   Cr4   1.950664 S    
C49   O24   1.294202 A    
O22   Cr5   2.081471 S    
C37   C38   1.400863 A    
C13   N2    1.478949 S    
O10   C5    1.273711 A    
O14   C47   1.261822 A    
C46   O18   1.264979 A    
O15   Cr4   1.956429 S    
C1    O3    1.286885 A    
N7    O31   1.293884 A    
