data_mof_unit_60205.cif
_audit_creation_date              2013-03-05T16:05:52-0500
_audit_creation_method            fapswitch 2.2
_symmetry_space_group_name_H-M    P1
_symmetry_Int_Tables_number       1
_space_group_crystal_system       triclinic
_cell_length_a                    38.742142
_cell_length_b                    45.088219
_cell_length_c                    29.604082
_cell_angle_alpha                 90.018384
_cell_angle_beta                  130.445858
_cell_angle_gamma                 89.972905
_cell_volume                      39354.4588604

loop_
_atom_site_label
_atom_site_type_symbol
_atom_site_description
_atom_site_fract_x
_atom_site_fract_y
_atom_site_fract_z
_atom_type_partial_charge
O1    O     O_R   0.798060 0.763370 0.096070 -0.623794
O2    O     O_R   0.201940 0.763370 0.903930 -0.623655
O3    O     O_R   0.298060 0.263370 0.096070 -0.625067
O4    O     O_R   0.701940 0.263370 0.903930 -0.625282
O5    O     O_R   0.763350 0.798040 0.026640 -0.607007
O6    O     O_R   0.236650 0.798040 0.973360 -0.607200
O7    O     O_R   0.263350 0.298040 0.026640 -0.608753
O8    O     O_R   0.736650 0.298040 0.973360 -0.608730
C1    C     C_R   0.790406 0.790592 0.081127 0.907695
C2    C     C_R   0.209588 0.790594 0.918873 0.907089
C3    C     C_R   0.290547 0.290598 0.081134 0.911382
C4    C     C_R   0.709451 0.290598 0.918865 0.911037
O9    O     O_R   0.716420 0.732650 0.034650 -0.624016
O10   O     O_R   0.283580 0.732650 0.965350 -0.624004
O11   O     O_R   0.216420 0.232650 0.034650 -0.624210
O12   O     O_R   0.783580 0.232650 0.965350 -0.624174
O13   O     O_R   0.681710 0.767330 0.965220 -0.622948
O14   O     O_R   0.318290 0.767330 0.034780 -0.622924
O15   O     O_R   0.181710 0.267330 0.965220 -0.623536
O16   O     O_R   0.818290 0.267330 0.034780 -0.623532
C5    C     C_R   0.682597 0.749950 0.000032 0.865578
C6    C     C_R   0.317396 0.749945 0.999952 0.865563
C7    C     C_R   0.182597 0.249950 0.000032 0.864665
C8    C     C_R   0.817396 0.249945 0.999952 0.864738
Zn1   Zn    Zn3+2 0.773170 0.726840 0.046290 0.948983
Zn2   Zn    Zn3+2 0.226830 0.726840 0.953710 0.950873
Zn3   Zn    Zn3+2 0.273170 0.226840 0.046290 0.943387
Zn4   Zn    Zn3+2 0.726830 0.226840 0.953710 0.943069
Zn5   Zn    Zn3+2 0.726820 0.773140 0.953570 0.956014
Zn6   Zn    Zn3+2 0.273180 0.773140 0.046430 0.955124
Zn7   Zn    Zn3+2 0.226820 0.273140 0.953570 0.958993
Zn8   Zn    Zn3+2 0.773180 0.273140 0.046430 0.958938
O17   O     O_R   0.736630 0.701940 0.973210 -0.617172
O18   O     O_R   0.263370 0.701940 0.026790 -0.616531
O19   O     O_R   0.236630 0.201940 0.973210 -0.619034
O20   O     O_R   0.763370 0.201940 0.026790 -0.618916
O21   O     O_R   0.701920 0.736610 0.903790 -0.617847
O22   O     O_R   0.298080 0.736610 0.096210 -0.618506
O23   O     O_R   0.201920 0.236610 0.903790 -0.615103
O24   O     O_R   0.798080 0.236610 0.096210 -0.615046
O25   O     O_R   0.818270 0.732650 0.034640 -0.621856
O26   O     O_R   0.181730 0.732650 0.965360 -0.620830
O27   O     O_R   0.318270 0.232650 0.034640 -0.627911
O28   O     O_R   0.681730 0.232650 0.965360 -0.627729
O29   O     O_R   0.783570 0.767330 0.965210 -0.626999
O30   O     O_R   0.216430 0.767330 0.034790 -0.626745
O31   O     O_R   0.283570 0.267330 0.965210 -0.625457
O32   O     O_R   0.716430 0.267330 0.034790 -0.625901
C9    C     C_R   0.709384 0.709380 0.918708 0.919518
C10   C     C_R   0.290614 0.709379 0.081293 0.919256
C11   C     C_R   0.209380 0.209378 0.918709 0.920819
C12   C     C_R   0.790621 0.209378 0.081291 0.921086
C13   C     C_R   0.817449 0.750174 0.000056 0.902874
C14   C     C_R   0.182560 0.750182 0.999970 0.901349
C15   C     C_R   0.317561 0.250163 0.000107 0.908686
C16   C     C_R   0.682434 0.250187 0.999875 0.908255
C17   C     C_R   0.615592 0.774277 0.977700 -0.192700
C18   C     C_R   0.384340 0.774272 0.022195 -0.192707
C19   C     C_R   0.115583 0.274272 0.977686 -0.194110
C20   C     C_R   0.884346 0.274269 0.022204 -0.194109
H1    H     H_    0.620486 0.793448 0.960361 0.155172
H2    H     H_    0.379446 0.793443 0.039559 0.155167
H3    H     H_    0.120472 0.293442 0.960337 0.154134
H4    H     H_    0.879455 0.293439 0.039574 0.154127
C21   C     C_R   0.579907 0.774309 0.978126 -0.163068
C22   C     C_R   0.419993 0.774308 0.021705 -0.163041
C23   C     C_R   0.079899 0.274303 0.978112 -0.163088
C24   C     C_R   0.919998 0.274303 0.021715 -0.163139
H5    H     H_    0.557670 0.793414 0.960651 0.147155
H6    H     H_    0.442206 0.793413 0.039160 0.147178
H7    H     H_    0.057657 0.293405 0.960627 0.146970
H8    H     H_    0.942215 0.293407 0.039175 0.146932
C25   C     C_R   0.572685 0.749707 0.000065 0.087721
C26   C     C_R   0.427214 0.749707 0.999732 0.087724
C27   C     C_R   0.072684 0.249703 0.000063 0.088043
C28   C     C_R   0.927216 0.249703 0.999735 0.088049
C29   C     C_R   0.601838 0.725180 0.022082 -0.163387
C30   C     C_R   0.398093 0.725179 0.977744 -0.163398
C31   C     C_R   0.101843 0.225179 0.022092 -0.163764
C32   C     C_R   0.898090 0.225177 0.977740 -0.163700
H9    H     H_    0.596999 0.706023 0.039503 0.146357
H10   H     H_    0.402934 0.706023 0.960299 0.146327
H11   H     H_    0.097009 0.206024 0.039522 0.146072
H12   H     H_    0.902929 0.206022 0.960291 0.146094
C33   C     C_R   0.638018 0.725370 0.022623 -0.195504
C34   C     C_R   0.361944 0.725366 0.977268 -0.195478
C35   C     C_R   0.138023 0.225371 0.022633 -0.195771
C36   C     C_R   0.861941 0.225365 0.977263 -0.195766
H13   H     H_    0.660238 0.706259 0.039967 0.153070
H14   H     H_    0.339746 0.706254 0.959945 0.153086
H15   H     H_    0.160250 0.206262 0.039987 0.152732
H16   H     H_    0.839740 0.206255 0.959934 0.152731
C37   C     C_R   0.644950 0.749863 0.000170 -0.033083
C38   C     C_R   0.355014 0.749857 0.999757 -0.033103
C39   C     C_R   0.144949 0.249861 0.000168 -0.032596
C40   C     C_R   0.855015 0.249855 0.999759 -0.032609
N1    N     N_R   0.517188 0.723736 0.000046 -0.179491
N2    N     N_R   0.482717 0.723736 0.999705 -0.179460
N3    N     N_R   0.017189 0.223732 0.000049 -0.179649
N4    N     N_R   0.982719 0.223732 0.999708 -0.179653
C41   C     C_R   0.464991 0.749670 0.999755 0.281799
C42   C     C_R   0.534887 0.749669 0.999999 0.281796
C43   C     C_R   0.964992 0.249666 0.999757 0.281803
C44   C     C_R   0.034887 0.249665 0.999998 0.281803
N5    N     N_R   0.482805 0.775596 0.999928 -0.178818
N6    N     N_R   0.517043 0.775596 0.999822 -0.178790
N7    N     N_R   0.982804 0.275592 0.999926 -0.178969
N8    N     N_R   0.017042 0.275592 0.999819 -0.178976
C45   C     C_3   0.904941 0.858979 0.232953 0.355203
C46   C     C_3   0.095068 0.858909 0.766792 0.355156
C47   C     C_3   0.404993 0.344563 0.263079 0.350388
C48   C     C_3   0.594918 0.344660 0.737073 0.350415
C49   C     C_3   0.826887 0.883984 0.184641 0.385023
C50   C     C_3   0.173045 0.884066 0.815553 0.385678
C51   C     C_3   0.351516 0.385331 0.181861 0.367157
C52   C     C_3   0.648738 0.385375 0.818198 0.367130
C53   C     C_3   0.851875 0.908768 0.232851 -0.507811
C54   C     C_3   0.148075 0.908834 0.767283 -0.508399
C55   C     C_3   0.378855 0.409278 0.231111 -0.488524
C56   C     C_3   0.621401 0.409329 0.768962 -0.488458
H17   H     H_    0.934326 0.904039 0.260457 0.186027
H18   H     H_    0.065384 0.903895 0.739020 0.185883
H19   H     H_    0.457695 0.379157 0.309838 0.189860
H20   H     H_    0.542374 0.379381 0.690492 0.189790
H21   H     H_    0.796520 0.878841 0.179856 0.115217
H22   H     H_    0.203580 0.879012 0.820663 0.114680
H23   H     H_    0.315495 0.392158 0.155992 0.126158
H24   H     H_    0.684771 0.392103 0.843894 0.126176
H25   H     H_    0.859212 0.928879 0.218845 0.169568
H26   H     H_    0.140534 0.928931 0.781093 0.169514
H27   H     H_    0.407559 0.418151 0.235351 0.173803
H28   H     H_    0.592812 0.418307 0.764896 0.173768
H29   H     H_    0.829591 0.916559 0.241924 0.159103
H30   H     H_    0.170470 0.916671 0.758437 0.158936
H31   H     H_    0.356481 0.428616 0.219384 0.158939
H32   H     H_    0.643828 0.428602 0.780573 0.158953
C57   C     C_1   0.937665 0.937229 0.374496 -0.194550
C58   C     C_1   0.062387 0.937231 0.625498 -0.194609
C59   C     C_1   0.437532 0.437294 0.374421 -0.193436
C60   C     C_1   0.562496 0.437292 0.625575 -0.193424
C61   C     C_3   0.855294 0.854532 0.208407 0.168142
C62   C     C_3   0.144801 0.854561 0.791624 0.169209
C63   C     C_3   0.355182 0.354243 0.209036 0.156828
C64   C     C_3   0.644824 0.354242 0.790962 0.156738
C65   C     C_3   0.927212 0.885254 0.277706 -0.434966
C66   C     C_3   0.072761 0.885150 0.721973 -0.435435
C67   C     C_3   0.429925 0.370505 0.308060 -0.432617
C68   C     C_3   0.570022 0.370611 0.692101 -0.432625
C69   C     C_3   0.896242 0.895890 0.290648 0.238640
C70   C     C_3   0.103871 0.895902 0.709358 0.239321
C71   C     C_3   0.396281 0.395842 0.290858 0.229899
C72   C     C_3   0.603742 0.395839 0.709136 0.229852
C73   C     C_3   0.884439 0.868892 0.311019 -0.415925
C74   C     C_3   0.115975 0.868973 0.689188 -0.415882
C75   C     C_3   0.355602 0.382860 0.283388 -0.415048
C76   C     C_3   0.644256 0.382696 0.716367 -0.415007
C77   C     C_3   0.859801 0.844583 0.262338 -0.595640
C78   C     C_3   0.140606 0.844676 0.737891 -0.596046
C79   C     C_3   0.331281 0.358195 0.235251 -0.588655
C80   C     C_3   0.668559 0.358028 0.764495 -0.588501
C81   C     C_1   0.919180 0.918551 0.336784 -0.059933
C82   C     C_1   0.080916 0.918556 0.663213 -0.060095
C83   C     C_1   0.418979 0.418607 0.336747 -0.059406
C84   C     C_1   0.581051 0.418604 0.663247 -0.059402
C85   C     C_1   0.831694 0.831581 0.162951 -0.031529
C86   C     C_1   0.168358 0.831601 0.837075 -0.030917
C87   C     C_1   0.331788 0.331508 0.163162 -0.040496
C88   C     C_1   0.668214 0.331507 0.836837 -0.040664
C89   C     C_1   0.812618 0.812807 0.125521 -0.195999
C90   C     C_1   0.187396 0.812816 0.874486 -0.195869
C91   C     C_1   0.312812 0.312814 0.125562 -0.198058
C92   C     C_1   0.687189 0.312813 0.874439 -0.198273
H33   H     H_    0.879043 0.823385 0.281026 0.194885
H34   H     H_    0.121496 0.823444 0.719128 0.195055
H35   H     H_    0.331707 0.337063 0.255060 0.194200
H36   H     H_    0.667946 0.336854 0.744617 0.194243
H37   H     H_    0.825782 0.840292 0.248413 0.196582
H38   H     H_    0.174729 0.840475 0.752064 0.196529
H39   H     H_    0.294909 0.364137 0.199824 0.195625
H40   H     H_    0.704980 0.363882 0.799794 0.195658
H41   H     H_    0.916002 0.859488 0.352672 0.184175
H42   H     H_    0.084539 0.859528 0.647445 0.184196
H43   H     H_    0.367812 0.373471 0.326329 0.186367
H44   H     H_    0.631878 0.373270 0.673365 0.186419
H45   H     H_    0.925249 0.838896 0.259397 0.068688
H46   H     H_    0.074931 0.838781 0.740373 0.068078
H47   H     H_    0.403076 0.326403 0.287156 0.074211
H48   H     H_    0.596642 0.326436 0.712906 0.074265
H49   H     H_    0.960605 0.878008 0.319749 0.142067
H50   H     H_    0.039494 0.877833 0.679832 0.141813
H51   H     H_    0.446189 0.362198 0.353380 0.139899
H52   H     H_    0.553602 0.362274 0.646745 0.139897
H53   H     H_    0.862378 0.876057 0.320791 0.188242
H54   H     H_    0.138140 0.876219 0.679645 0.188194
H55   H     H_    0.330982 0.400803 0.270614 0.187876
H56   H     H_    0.668932 0.400559 0.729028 0.187946
C93   C     C_R   0.847579 0.757588 0.948658 -0.282407
C94   C     C_R   0.152390 0.757869 0.051185 -0.302812
C95   C     C_R   0.355451 0.270462 0.964163 -0.281806
C96   C     C_R   0.644498 0.270562 0.035774 -0.279634
H57   H     H_    0.813370 0.761291 0.907463 0.168625
H58   H     H_    0.186751 0.761074 0.092373 0.163304
H59   H     H_    0.326870 0.285109 0.934265 0.179922
H60   H     H_    0.673199 0.285064 0.065964 0.179674
C97   C     C_R   0.883598 0.759227 0.948938 0.486181
C98   C     C_R   0.116346 0.759687 0.051151 0.474253
C99   C     C_R   0.392153 0.271823 0.965834 0.486384
C100  C     C_R   0.607668 0.272037 0.033873 0.479484
C101  C     C_R   0.928063 0.753534 0.001956 -0.054896
C102  C     C_R   0.071658 0.754089 0.998087 -0.043650
C103  C     C_R   0.428948 0.252159 0.002893 -0.052997
C104  C     C_R   0.570694 0.252557 0.996373 -0.039902
C105  C     C_R   0.936316 0.747417 0.054955 0.082475
C106  C     C_R   0.063648 0.748100 0.944938 0.077052
C107  C     C_R   0.429784 0.232477 0.040623 0.083899
C108  C     C_R   0.569912 0.233076 0.958527 0.073956
C109  C     C_R   0.899641 0.746086 0.053804 -0.243773
C110  C     C_R   0.100420 0.746327 0.946347 -0.236842
C111  C     C_R   0.393237 0.232195 0.039713 -0.240354
C112  C     C_R   0.606511 0.232554 0.959712 -0.257526
H61   H     H_    0.905545 0.741361 0.094224 0.154540
H62   H     H_    0.094544 0.741824 0.905873 0.153918
H63   H     H_    0.393714 0.217024 0.068480 0.164800
H64   H     H_    0.605662 0.217374 0.930622 0.168001
C113  C     C_R   0.855435 0.751071 0.000821 -0.125376
C114  C     C_R   0.144557 0.751195 0.999189 -0.116240
C115  C     C_R   0.355872 0.250879 0.001194 -0.139005
C116  C     C_R   0.644054 0.251021 0.998623 -0.131740
N9    N     N_R   0.002258 0.770921 0.039554 -0.167081
N10   N     N_R   0.996860 0.736899 0.960534 -0.145531
N11   N     N_R   0.509622 0.252215 0.052338 -0.158021
N12   N     N_R   0.490001 0.252037 0.946903 -0.161501
N13   N     N_R   0.035824 0.771274 0.038104 -0.148429
N14   N     N_R   0.963091 0.736703 0.961575 -0.131748
N15   N     N_R   0.543088 0.252366 0.050716 -0.130793
N16   N     N_R   0.456531 0.251987 0.948520 -0.131191
C117  C     C_R   0.033840 0.754251 0.998643 0.318176
C118  C     C_R   0.965402 0.753605 0.001295 0.297046
C119  C     C_R   0.533795 0.252194 0.997983 0.303279
C120  C     C_R   0.465834 0.251984 0.001258 0.284844
C121  C     C_3   0.644024 0.616063 0.816871 -0.391359
C122  C     C_3   0.355824 0.616029 0.183090 -0.391055
C123  C     C_3   0.143905 0.116067 0.816874 -0.392018
C124  C     C_3   0.856145 0.116068 0.183160 -0.392008
C125  C     C_3   0.596121 0.655156 0.738579 -0.391922
C126  C     C_3   0.403893 0.655100 0.261354 -0.392001
C127  C     C_3   0.096166 0.155169 0.738529 -0.391308
C128  C     C_3   0.903783 0.155172 0.261525 -0.391356
C129  C     C_3   0.571797 0.630847 0.690065 -0.393790
C130  C     C_3   0.428211 0.630792 0.309867 -0.393590
C131  C     C_3   0.071851 0.130856 0.690024 -0.393743
C132  C     C_3   0.928091 0.130859 0.310030 -0.393763
H65   H     H_    0.589865 0.583393 0.762224 0.168861
H66   H     H_    0.409921 0.583290 0.237651 0.168922
H67   H     H_    0.089692 0.083438 0.762136 0.168696
H68   H     H_    0.910386 0.083443 0.237958 0.168699
H69   H     H_    0.625879 0.619385 0.834055 0.168245
H70   H     H_    0.373916 0.619280 0.165821 0.168263
H71   H     H_    0.125695 0.119436 0.833957 0.168095
H72   H     H_    0.874394 0.119441 0.166139 0.168093
H73   H     H_    0.596231 0.676319 0.719317 0.169026
H74   H     H_    0.403871 0.676289 0.280647 0.168701
H75   H     H_    0.096362 0.176314 0.719293 0.169594
H76   H     H_    0.903534 0.176315 0.280739 0.169627
H77   H     H_    0.577132 0.659167 0.754383 0.168467
H78   H     H_    0.422832 0.659041 0.245464 0.168572
H79   H     H_    0.077115 0.159228 0.754229 0.168497
H80   H     H_    0.922872 0.159234 0.245886 0.168460
H81   H     H_    0.541118 0.623175 0.682554 0.169197
H82   H     H_    0.458837 0.623050 0.317293 0.169347
H83   H     H_    0.041113 0.123231 0.682413 0.169230
H84   H     H_    0.958862 0.123237 0.317702 0.169189
H85   H     H_    0.560218 0.640328 0.647489 0.166529
H86   H     H_    0.439875 0.640299 0.352475 0.166430
H87   H     H_    0.060362 0.140317 0.647478 0.166844
H88   H     H_    0.939523 0.140320 0.352553 0.166855
C133  C     C_1   0.562708 0.562790 0.625944 -0.182771
C134  C     C_1   0.437261 0.562792 0.374060 -0.182848
C135  C     C_1   0.062723 0.062772 0.625979 -0.183252
C136  C     C_1   0.937246 0.062772 0.374022 -0.183210
C137  C     C_3   0.645401 0.645522 0.791147 0.353327
C138  C     C_3   0.354569 0.645525 0.208860 0.354041
C139  C     C_3   0.145403 0.145500 0.791189 0.354270
C140  C     C_3   0.854574 0.145499 0.208812 0.354047
C141  C     C_3   0.619700 0.591754 0.768357 -0.393795
C142  C     C_3   0.380142 0.591720 0.231604 -0.393892
C143  C     C_3   0.119588 0.091753 0.768367 -0.393832
C144  C     C_3   0.880454 0.091754 0.231666 -0.393803
C145  C     C_3   0.604259 0.604405 0.709090 0.355050
C146  C     C_3   0.395701 0.604409 0.290917 0.355372
C147  C     C_3   0.104275 0.104375 0.709146 0.355647
C148  C     C_3   0.895690 0.104376 0.290855 0.355530
C149  C     C_3   0.646506 0.615827 0.719166 -0.390707
C150  C     C_3   0.353530 0.615927 0.280961 -0.390961
C151  C     C_3   0.146604 0.115733 0.719358 -0.391135
C152  C     C_3   0.853312 0.115728 0.280558 -0.391082
C153  C     C_3   0.670828 0.640134 0.767675 -0.391545
C154  C     C_3   0.329214 0.640234 0.232451 -0.392635
C155  C     C_3   0.170918 0.140043 0.767859 -0.392624
C156  C     C_3   0.829006 0.140039 0.232057 -0.392317
C157  C     C_1   0.581407 0.581547 0.663453 -0.122378
C158  C     C_1   0.418552 0.581550 0.336553 -0.122510
C159  C     C_1   0.081426 0.081520 0.663506 -0.122682
C160  C     C_1   0.918535 0.081520 0.336495 -0.122627
C161  C     C_1   0.668288 0.668383 0.836776 -0.119702
C162  C     C_1   0.331690 0.668385 0.163229 -0.120167
C163  C     C_1   0.168281 0.168368 0.836802 -0.120147
C164  C     C_1   0.831704 0.168368 0.163199 -0.119994
C165  C     C_1   0.687096 0.687150 0.874261 -0.184937
C166  C     C_1   0.312891 0.687151 0.125742 -0.185524
C167  C     C_1   0.187087 0.187145 0.874270 -0.185731
C168  C     C_1   0.812906 0.187144 0.125731 -0.185578
H89   H     H_    0.706397 0.633173 0.804725 0.170261
H90   H     H_    0.293615 0.633318 0.195457 0.170046
H91   H     H_    0.206457 0.133056 0.804977 0.168645
H92   H     H_    0.793485 0.133049 0.194900 0.168870
H93   H     H_    0.672257 0.661032 0.748927 0.169883
H94   H     H_    0.327873 0.661161 0.251233 0.168558
H95   H     H_    0.172436 0.160921 0.749141 0.169921
H96   H     H_    0.827435 0.160915 0.250750 0.170105
H97   H     H_    0.670388 0.597185 0.732903 0.169730
H98   H     H_    0.329615 0.597329 0.267279 0.169461
H99   H     H_    0.170461 0.097062 0.733169 0.168918
H100  H     H_    0.829471 0.097055 0.266708 0.169031
H101  H     H_    0.679120 0.608677 0.854789 0.169574
H102  H     H_    0.320695 0.608684 0.145225 0.169732
H103  H     H_    0.178966 0.108656 0.854857 0.168656
H104  H     H_    0.821104 0.108655 0.145140 0.168730
H105  H     H_    0.643107 0.572686 0.782960 0.167632
H106  H     H_    0.356700 0.572694 0.217053 0.167649
H107  H     H_    0.142964 0.072657 0.783039 0.167154
H108  H     H_    0.857095 0.072657 0.216957 0.167193
H109  H     H_    0.636248 0.625044 0.677105 0.168600
H110  H     H_    0.363874 0.625173 0.323057 0.168023
H111  H     H_    0.136440 0.124926 0.677333 0.168457
H112  H     H_    0.863420 0.124922 0.322559 0.168576
O33   O     O_R   0.059430 0.969340 0.561280 -0.617355
O34   O     O_R   0.940570 0.969340 0.438720 -0.617312
O35   O     O_R   0.559430 0.469340 0.561280 -0.617395
O36   O     O_R   0.440570 0.469340 0.438720 -0.617518
O37   O     O_R   0.001940 0.969340 0.561310 -0.617873
O38   O     O_R   0.998060 0.969340 0.438690 -0.617856
O39   O     O_R   0.501940 0.469340 0.561310 -0.617482
O40   O     O_R   0.498060 0.469340 0.438690 -0.617382
C169  C     C_R   0.040408 0.959440 0.580931 0.906015
C170  C     C_R   0.959603 0.959440 0.419065 0.905980
C171  C     C_R   0.540441 0.459469 0.580975 0.906033
C172  C     C_R   0.459569 0.459470 0.419024 0.906038
Zn9   Zn    Zn3+2 0.538320 0.500060 0.499790 0.956054
Zn10  Zn    Zn3+2 0.461680 0.500060 0.500210 0.955394
Zn11  Zn    Zn3+2 0.038320 0.000060 0.499790 0.954479
Zn12  Zn    Zn3+2 0.961680 0.000060 0.500210 0.954596
O41   O     O_R   0.497920 0.530770 0.438300 -0.618720
O42   O     O_R   0.502080 0.530770 0.561700 -0.618925
O43   O     O_R   0.997920 0.030770 0.438300 -0.618937
O44   O     O_R   0.002080 0.030770 0.561700 -0.618906
O45   O     O_R   0.440430 0.530760 0.438330 -0.618579
O46   O     O_R   0.559570 0.530760 0.561670 -0.618324
O47   O     O_R   0.940430 0.030760 0.438330 -0.618428
O48   O     O_R   0.059570 0.030760 0.561670 -0.618494
C173  C     C_R   0.459362 0.540580 0.418549 0.909537
C174  C     C_R   0.540628 0.540580 0.581452 0.909544
C175  C     C_R   0.959358 0.040575 0.418539 0.909878
C176  C     C_R   0.040632 0.040575 0.581461 0.909879
O49   O     O_3   0.874613 0.764924 0.896245 -0.637276
C177  C     C_3   0.883317 0.795152 0.893938 0.088140
H113  H     H_    0.894441 0.796503 0.867585 0.173644
H114  H     H_    0.911376 0.804868 0.938336 0.119008
C178  C     C_3   0.840054 0.813621 0.862838 -0.364020
H115  H     H_    0.812416 0.803774 0.818706 0.235933
H116  H     H_    0.829360 0.813463 0.889735 0.216238
C179  C     C_3   0.847554 0.845680 0.854506 -0.955083
H117  H     H_    0.874639 0.856086 0.898220 0.264451
H118  H     H_    0.815716 0.858485 0.832117 0.266832
H119  H     H_    0.857332 0.846580 0.826596 0.263882
O50   O     O_3   0.125211 0.763609 0.104273 -0.632252
C180  C     C_3   0.144134 0.792000 0.128639 0.084637
H120  H     H_    0.119714 0.804724 0.128948 0.171668
H121  H     H_    0.150588 0.805563 0.103178 0.115247
C181  C     C_3   0.188412 0.788430 0.192550 -0.327075
H122  H     H_    0.181697 0.776113 0.218678 0.235863
H123  H     H_    0.212952 0.775415 0.192907 0.215814
C182  C     C_3   0.209320 0.818458 0.221769 -0.972100
H124  H     H_    0.217229 0.830911 0.197085 0.264835
H125  H     H_    0.241265 0.815069 0.268074 0.267549
H126  H     H_    0.185622 0.831699 0.222743 0.265906
O51   O     O_3   0.390417 0.291501 0.928499 -0.636084
C183  C     C_3   0.417437 0.316710 0.961007 0.086878
H127  H     H_    0.428408 0.326227 0.937478 0.174348
H128  H     H_    0.449125 0.311331 0.006834 0.118800
C184  C     C_3   0.389966 0.340192 0.963294 -0.366992
H129  H     H_    0.358022 0.344913 0.917577 0.237412
H130  H     H_    0.381133 0.331751 0.989932 0.214887
C185  C     C_3   0.416833 0.368901 0.991335 -0.958069
H131  H     H_    0.449170 0.364598 0.036882 0.266962
H132  H     H_    0.396649 0.385165 0.993946 0.271006
H133  H     H_    0.424407 0.378586 0.964106 0.264687
O52   O     O_3   0.609473 0.291609 0.071413 -0.635480
C186  C     C_3   0.582567 0.316906 0.039176 0.086106
H134  H     H_    0.571766 0.326423 0.062917 0.175340
H135  H     H_    0.550783 0.311630 0.993366 0.115746
C187  C     C_3   0.610083 0.340334 0.036906 -0.366357
H136  H     H_    0.642109 0.344953 0.082608 0.237557
H137  H     H_    0.618767 0.331896 0.010091 0.214338
C188  C     C_3   0.583354 0.369121 0.009147 -0.958398
H138  H     H_    0.550947 0.364925 0.963611 0.266588
H139  H     H_    0.603574 0.385349 0.006567 0.271125
H140  H     H_    0.575922 0.378794 0.036547 0.264875
N17   N     N_3   0.981708 0.742017 0.109224 -0.431849
H141  H     H_    0.982145 0.739606 0.144723 0.179287
H142  H     H_    0.992260 0.721740 0.104634 0.193294
N18   N     N_3   0.018229 0.744486 0.889532 -0.427262
H143  H     H_    0.018553 0.738871 0.855532 0.183588
H144  H     H_    0.002107 0.765086 0.878221 0.185012
N19   N     N_3   0.467114 0.212332 0.078412 -0.431387
H145  H     H_    0.463660 0.200577 0.105725 0.178034
H146  H     H_    0.465599 0.196701 0.051074 0.189134
N20   N     N_3   0.532696 0.213112 0.920276 -0.438105
H147  H     H_    0.545418 0.191462 0.931156 0.185858
H148  H     H_    0.518931 0.217218 0.876646 0.187656
O53   O     O_3   0.906351 0.864397 0.186888 -0.670810
C189  C     C_3   0.917898 0.838765 0.171452 0.077460
H149  H     H_    0.899873 0.840134 0.123259 0.166751
H150  H     H_    0.906699 0.817673 0.178046 0.122960
C190  C     C_3   0.968982 0.837928 0.205854 -0.366825
H151  H     H_    0.979423 0.858699 0.197391 0.233162
H152  H     H_    0.987549 0.836431 0.254202 0.210966
C191  C     C_3   0.981733 0.811400 0.187203 -0.934751
H153  H     H_    0.972239 0.790345 0.196176 0.256670
H154  H     H_    0.018908 0.811351 0.212785 0.269024
H155  H     H_    0.964168 0.812686 0.139142 0.272221
O54   O     O_3   0.093477 0.864329 0.812703 -0.671915
C192  C     C_3   0.081550 0.838752 0.827716 0.076576
H156  H     H_    0.099069 0.840183 0.875745 0.165936
H157  H     H_    0.093043 0.817640 0.821600 0.123447
C193  C     C_3   0.030328 0.837940 0.792422 -0.345169
H158  H     H_    0.019572 0.858808 0.800183 0.230913
H159  H     H_    0.012256 0.836232 0.744243 0.209508
C194  C     C_3   0.017196 0.811593 0.810904 -0.983301
H160  H     H_    0.027060 0.790436 0.802720 0.261683
H161  H     H_    0.979928 0.811530 0.784645 0.267427
H162  H     H_    0.034216 0.813138 0.858757 0.264032
O55   O     O_3   0.429927 0.335525 0.245591 -0.682706
C195  C     C_3   0.435504 0.304375 0.247936 0.067087
H163  H     H_    0.439295 0.298367 0.214953 0.167384
H164  H     H_    0.405375 0.291943 0.234939 0.133377
C196  C     C_3   0.478511 0.294937 0.309655 -0.351778
H165  H     H_    0.508168 0.306953 0.320620 0.233607
H166  H     H_    0.475501 0.300790 0.343435 0.207063
C197  C     C_3   0.486522 0.261619 0.312272 -0.954295
H167  H     H_    0.457560 0.249176 0.302397 0.262542
H168  H     H_    0.517881 0.255465 0.357431 0.265291
H169  H     H_    0.490624 0.255284 0.279717 0.266752
O56   O     O_3   0.570085 0.335778 0.754778 -0.682766
C198  C     C_3   0.564431 0.304644 0.752571 0.066339
H170  H     H_    0.560796 0.298746 0.785738 0.165760
H171  H     H_    0.594460 0.292121 0.765410 0.133530
C199  C     C_3   0.521279 0.295208 0.690985 -0.350547
H172  H     H_    0.491727 0.307322 0.680171 0.232986
H173  H     H_    0.524142 0.300943 0.657032 0.207199
C200  C     C_3   0.513178 0.261918 0.688540 -0.958328
H174  H     H_    0.542031 0.249375 0.698268 0.263075
H175  H     H_    0.481714 0.255764 0.643473 0.265506
H176  H     H_    0.509222 0.255703 0.721276 0.264564
O57   O     O_3   0.807244 0.892153 0.125705 -0.645501
C201  C     C_3   0.835754 0.907660 0.119611 0.182479
H177  H     H_    0.839074 0.894105 0.091253 0.182344
H178  H     H_    0.870422 0.911990 0.161578 0.165982
C202  C     C_3   0.813488 0.937181 0.088355 -0.395687
H179  H     H_    0.779569 0.932946 0.044481 0.239200
H180  H     H_    0.808789 0.950715 0.115399 0.222931
C203  C     C_3   0.842305 0.954566 0.079184 -0.970464
H181  H     H_    0.876046 0.959645 0.122633 0.264321
H182  H     H_    0.825112 0.975772 0.056187 0.270085
H183  H     H_    0.846933 0.941606 0.051526 0.267916
O58   O     O_3   0.192342 0.892186 0.874386 -0.645214
C204  C     C_3   0.163686 0.907833 0.880088 0.182711
H184  H     H_    0.160316 0.894438 0.908544 0.181384
H185  H     H_    0.129023 0.912029 0.837997 0.166059
C205  C     C_3   0.185810 0.937443 0.910975 -0.396039
H186  H     H_    0.219656 0.933317 0.955023 0.238913
H187  H     H_    0.190651 0.950805 0.883918 0.222975
C206  C     C_3   0.156763 0.955002 0.919580 -0.971791
H188  H     H_    0.123097 0.959982 0.875941 0.264358
H189  H     H_    0.173863 0.976263 0.942341 0.270222
H190  H     H_    0.151980 0.942217 0.947233 0.267364
O59   O     O_3   0.355994 0.386186 0.137756 -0.653816
C207  C     C_3   0.399177 0.378426 0.157664 0.172144
H191  H     H_    0.398886 0.354486 0.148558 0.191631
H192  H     H_    0.427214 0.383153 0.205351 0.169217
C208  C     C_3   0.408141 0.395991 0.122079 -0.378864
H193  H     H_    0.380983 0.391276 0.073972 0.236450
H194  H     H_    0.407637 0.420108 0.129464 0.227482
C209  C     C_3   0.453994 0.387931 0.140463 -0.970248
H195  H     H_    0.481747 0.392698 0.188342 0.268654
H196  H     H_    0.459703 0.401300 0.114343 0.270828
H197  H     H_    0.454796 0.364042 0.131968 0.270176
O60   O     O_3   0.644467 0.386357 0.862493 -0.653840
C210  C     C_3   0.601336 0.378704 0.842845 0.171899
H198  H     H_    0.601582 0.354775 0.851957 0.191350
H199  H     H_    0.573208 0.383465 0.795199 0.169254
C211  C     C_3   0.592637 0.396339 0.878664 -0.378290
H200  H     H_    0.619896 0.391600 0.926739 0.236366
H201  H     H_    0.593188 0.420445 0.871274 0.227445
C212  C     C_3   0.546854 0.388391 0.860566 -0.971781
H202  H     H_    0.519003 0.393182 0.812725 0.268605
H203  H     H_    0.541335 0.401807 0.886850 0.271024
H204  H     H_    0.546013 0.364514 0.869075 0.269718

loop_
_geom_bond_atom_site_label_1
_geom_bond_atom_site_label_2
_geom_bond_distance
_ccdc_geom_bond_type
C184  C185  1.525682 S    
O1    Zn1   1.992644 S    
C149  C153  1.547767 S    
C3    C91   1.416053 S    
C35   H15   1.083207 S    
C94   C98   1.398113 A    
C131  C147  1.549319 S    
C190  H151  1.111541 S    
C1    C89   1.415498 S    
C53   H29   1.114161 S    
C205  H186  1.111699 S    
C31   C35   1.391389 A    
C4    C92   1.416063 S    
C202  H179  1.111689 S    
C162  C166  1.195543 T    
C45   O53   1.421044 S    
C74   C78   1.550635 S    
C8    C40   1.461194 S    
C141  H105  1.113208 S    
Zn10  O42   1.996120 S    
C145  C157  1.455804 S    
C179  H117  1.110924 S    
Zn6   O22   1.992675 S    
C148  C160  1.455802 S    
N13   C117  1.357447 A    
C180  C181  1.528797 S    
C13   C113  1.457660 S    
C66   C70   1.553009 S    
C93   C97   1.392072 A    
C78   H34   1.113485 S    
C72   C76   1.556898 S    
C191  H154  1.110262 S    
C210  H199  1.108516 S    
C152  H112  1.113224 S    
C71   C75   1.556906 S    
C64   C80   1.556797 S    
C47   O55   1.419712 S    
C178  C179  1.525850 S    
C28   C43   1.463091 S    
C49   O57   1.427028 S    
C96   C100  1.392605 A    
C48   O56   1.419699 S    
C55   C71   1.549939 S    
C208  H194  1.111694 S    
N15   C119  1.355548 A    
C62   C78   1.555513 S    
H66   C142  1.113204 S    
C85   C89   1.194998 T    
C211  H201  1.111701 S    
C124  C140  1.549386 S    
O34   Zn12  1.992215 S    
C16   C116  1.463607 S    
C34   H14   1.083202 S    
C17   C21   1.390714 A    
H17   C65   1.112304 S    
O37   C169  1.278331 A    
C151  C155  1.547749 S    
Zn3   O19   1.992814 S    
Zn4   O28   2.005467 S    
C101  C105  1.410434 A    
C58   C169  1.418069 S    
Zn5   O29   2.009432 S    
C136  C160  1.195564 T    
C147  C151  1.549345 S    
C196  H166  1.111016 S    
C144  H108  1.113218 S    
C30   H10   1.083096 S    
O11   Zn3   2.009429 S    
C148  C152  1.549326 S    
C100  C104  1.411764 A    
C192  C193  1.529992 S    
C129  C145  1.549279 S    
C55   H31   1.114086 S    
O60   C210  1.410287 S    
O9    C5    1.277896 A    
C58   C82   1.196240 T    
O36   Zn10  1.992215 S    
O10   Zn2   2.009672 S    
C26   C41   1.463095 S    
C61   C77   1.555464 S    
O54   C192  1.417164 S    
O6    Zn6   1.992655 S    
O19   C11   1.272888 A    
C190  C191  1.527211 S    
C182  H124  1.110903 S    
C134  C173  1.416911 S    
C205  C206  1.526114 S    
C128  C140  1.549302 S    
C193  H158  1.111556 S    
C202  C203  1.526069 S    
C186  H135  1.115985 S    
O40   Zn9   1.990746 S    
Zn2   O18   1.992841 S    
C151  H99   1.113227 S    
C45   C65   1.555645 S    
Zn9   O46   1.998087 S    
C17   H1    1.083225 S    
C122  C138  1.549340 S    
C147  C159  1.455779 S    
C19   H3    1.083226 S    
C179  H119  1.110868 S    
C20   H4    1.083225 S    
C78   H38   1.113436 S    
C32   C36   1.391404 A    
C102  C106  1.418187 A    
C188  H138  1.110617 S    
C97   O49   1.384261 S    
C22   H6    1.083113 S    
C5    C37   1.461186 S    
C156  H92   1.113223 S    
C207  H191  1.110734 S    
C7    C39   1.461196 S    
N10   N14   1.328526 A    
C125  H77   1.113207 S    
C130  H86   1.113220 S    
C137  C161  1.455773 S    
C104  C119  1.461035 S    
O3    C3    1.272951 A    
C185  H131  1.110607 S    
C139  C155  1.549226 S    
C206  H190  1.110886 S    
C204  H185  1.104852 S    
C201  H177  1.111126 S    
C198  H171  1.114708 S    
C25   C29   1.402700 A    
C195  H163  1.110963 S    
C43   N7    1.356074 A    
C121  C141  1.547918 S    
N17   H141  1.045716 S    
O49   C177  1.416430 S    
Zn11  O43   1.995901 S    
C123  H103  1.113223 S    
C110  C114  1.395970 A    
C127  H75   1.113221 S    
C94   C114  1.394947 A    
C181  H122  1.111697 S    
C128  H76   1.113212 S    
C57   C170  1.418145 S    
C197  H168  1.110351 S    
O53   C189  1.417394 S    
O39   C171  1.278577 A    
C124  H72   1.113209 S    
C153  H93   1.113211 S    
C125  H73   1.113203 S    
N1    N2    1.328921 A    
C200  H174  1.110910 S    
C112  C116  1.400887 A    
N18   H143  1.045734 S    
C194  H161  1.110290 S    
C96   C116  1.400366 A    
C50   H22   1.114414 S    
C75   H43   1.113083 S    
C197  H169  1.110922 S    
C186  H134  1.111068 S    
O35   Zn9   1.992494 S    
O39   Zn10  1.990530 S    
C141  C145  1.549251 S    
N12   N16   1.328249 A    
C191  H153  1.110999 S    
C15   C115  1.463969 S    
C80   H40   1.113432 S    
C69   C73   1.553488 S    
C19   C23   1.390714 A    
C52   C64   1.576230 S    
C33   C37   1.402089 A    
C123  C143  1.547963 S    
N19   H145  1.045680 S    
Zn10  O45   1.998360 S    
C67   H51   1.113816 S    
C183  H127  1.111068 S    
C35   C39   1.402091 A    
C94   H58   1.083450 S    
C152  H100  1.113220 S    
C55   H27   1.109832 S    
N7    N8    1.328530 A    
N19   H146  1.045561 S    
O56   C198  1.415777 S    
C53   H25   1.108283 S    
C23   H7    1.083110 S    
C54   H30   1.114164 S    
C193  C194  1.526934 S    
C47   C63   1.571026 S    
O41   C173  1.278789 A    
C153  H89   1.113212 S    
H18   C66   1.112329 S    
C29   C33   1.391388 A    
C105  N17   1.437749 S    
C99   C103  1.411438 A    
C6    C38   1.461190 S    
C100  O52   1.384662 S    
O45   C173  1.278562 A    
C209  H196  1.110194 S    
C212  H203  1.110190 S    
C199  H172  1.111576 S    
C75   C79   1.553408 S    
C150  H98   1.113216 S    
C76   C80   1.553411 S    
Zn4   O20   1.992841 S    
C203  H181  1.110959 S    
C106  C110  1.400174 A    
C188  H140  1.110783 S    
C104  C108  1.408203 A    
C150  H110  1.113218 S    
C207  C208  1.527450 S    
C12   C168  1.416858 S    
N11   C120  1.355113 A    
C145  C149  1.549321 S    
C67   C71   1.549542 S    
O5    C1    1.272659 A    
C62   C86   1.456632 S    
C98   C102  1.414322 A    
C206  H188  1.110968 S    
C152  C156  1.547765 S    
O8    C4    1.272765 A    
C63   C87   1.455872 S    
C10   C166  1.416824 S    
C132  H88   1.113222 S    
C177  C178  1.532110 S    
O25   C13   1.277410 A    
C190  H152  1.111209 S    
C181  C182  1.525997 S    
C49   C53   1.558909 S    
O27   C15   1.278066 A    
C107  N19   1.438179 S    
C124  C144  1.547963 S    
C51   C55   1.552378 S    
C125  C137  1.549292 S    
C189  H149  1.111001 S    
C108  N20   1.433026 S    
O4    C4    1.272943 A    
Zn11  O48   1.998087 S    
Zn2   O26   2.005467 S    
C187  H136  1.111475 S    
O16   Zn8   2.005848 S    
C200  H176  1.110928 S    
C184  H130  1.110987 S    
C125  C129  1.547912 S    
C46   H46   1.119159 S    
O14   C6    1.277430 A    
Zn6   O30   2.009669 S    
C108  C112  1.395616 A    
C205  H187  1.111345 S    
C53   C69   1.550207 S    
C86   C90   1.195056 T    
C127  C131  1.547886 S    
C60   C84   1.195962 T    
O35   C171  1.279152 A    
C51   O59   1.424902 S    
O42   C174  1.278792 A    
O10   C6    1.277892 A    
C59   C83   1.195944 T    
C182  H126  1.110880 S    
C140  C164  1.455811 S    
C27   C31   1.402695 A    
C183  C184  1.533179 S    
C161  C165  1.195537 T    
C179  H118  1.110374 S    
O46   C174  1.278541 A    
C143  C147  1.549305 S    
C49   C61   1.569776 S    
N9    N13   1.328792 A    
C180  H121  1.117850 S    
C128  C132  1.547883 S    
C23   C27   1.402561 A    
C189  C190  1.529812 S    
C122  H102  1.113213 S    
O59   C207  1.410313 S    
C106  N18   1.438270 S    
C103  C120  1.460939 S    
N10   C117  1.356762 A    
C45   C61   1.566701 S    
C46   C66   1.555488 S    
C204  C205  1.528559 S    
C164  C168  1.195557 T    
C109  C113  1.399417 A    
C178  H116  1.110758 S    
C18   H2    1.083227 S    
C95   H59   1.083376 S    
C36   C40   1.402091 A    
O13   Zn5   2.006093 S    
O23   C11   1.272997 A    
C203  H183  1.110885 S    
O48   C176  1.278547 A    
C32   H12   1.083095 S    
O15   Zn7   2.006093 S    
C154  H90   1.113222 S    
C129  H81   1.113199 S    
C76   H44   1.113079 S    
C155  H95   1.113219 S    
C156  H96   1.113215 S    
H20   C68   1.113291 S    
C195  C196  1.531529 S    
C144  C148  1.549295 S    
C76   H56   1.113004 S    
N20   H147  1.045629 S    
C138  C162  1.455793 S    
C142  H106  1.113216 S    
O37   Zn12  1.990530 S    
C52   C56   1.552341 S    
O17   C9    1.272922 A    
H67   C143  1.113205 S    
H68   C144  1.113203 S    
N14   C118  1.354396 A    
C54   C70   1.550308 S    
C177  H113  1.111058 S    
C122  C142  1.547910 S    
C127  C139  1.549327 S    
C192  H157  1.114114 S    
C149  H97   1.113211 S    
N12   C119  1.355214 A    
C46   O54   1.421013 S    
O13   C5    1.277453 A    
C133  C157  1.195562 T    
C133  C174  1.416882 S    
C126  H74   1.113213 S    
C191  H155  1.111149 S    
C99   O51   1.384716 S    
N3    C44   1.356283 A    
O5    Zn5   1.992625 S    
C198  H170  1.110966 S    
Zn7   O31   2.009432 S    
C109  H61   1.083747 S    
Zn8   O32   2.009669 S    
O58   C204  1.414597 S    
C193  H159  1.111197 S    
C11   C167  1.416835 S    
C202  H180  1.111378 S    
C70   C82   1.457448 S    
C135  C159  1.195553 T    
C142  C146  1.549267 S    
C196  H165  1.111574 S    
C102  C117  1.475873 S    
C68   C72   1.549547 S    
O1    C1    1.272783 A    
O38   C170  1.278270 A    
C137  C153  1.549207 S    
C33   H13   1.083201 S    
C59   C172  1.417562 S    
C140  C156  1.549226 S    
N4    C43   1.356279 A    
O40   C172  1.278597 A    
C132  C148  1.549305 S    
C194  H160  1.111010 S    
C204  H184  1.111124 S    
C54   H26   1.108189 S    
C107  C111  1.398627 A    
C22   C26   1.402556 A    
O21   C9    1.272947 A    
O28   C16   1.278030 A    
C98   O50   1.386174 S    
C29   H9    1.083096 S    
C210  C211  1.527450 S    
O30   C14   1.275806 A    
C207  H192  1.108496 S    
C136  C175  1.416891 S    
C123  H71   1.113206 S    
C185  H132  1.110408 S    
O22   C10   1.272935 A    
C20   C40   1.401965 A    
C25   C42   1.463097 S    
C206  H189  1.110361 S    
C73   H41   1.113159 S    
C201  H178  1.104849 S    
C27   C44   1.463093 S    
C124  H104  1.113212 S    
C208  C209  1.526146 S    
C24   C28   1.402553 A    
Zn1   O25   2.005708 S    
C44   N8    1.356076 A    
C181  H123  1.111209 S    
C211  H200  1.111915 S    
C65   H49   1.113667 S    
C61   C85   1.456493 S    
N20   H148  1.045612 S    
C79   H39   1.113431 S    
C185  H133  1.110783 S    
C130  C146  1.549299 S    
O6    C2    1.272633 A    
C87   C91   1.195092 T    
C63   C79   1.556791 S    
C2    C90   1.415626 S    
N2    C41   1.356280 A    
N5    N6    1.328530 A    
C47   H47   1.119419 S    
C203  H182  1.110344 S    
C45   H45   1.119134 S    
N18   H144  1.045576 S    
C196  C197  1.525656 S    
O26   C14   1.277665 A    
C31   H11   1.083096 S    
O33   Zn11  1.992494 S    
Zn12  O44   1.996120 S    
O3    Zn3   1.992644 S    
C126  C138  1.549313 S    
C163  C167  1.195546 T    
C73   C77   1.550672 S    
C52   O60   1.424910 S    
C75   H55   1.113006 S    
O38   Zn11  1.990746 S    
C111  H63   1.083280 S    
Zn3   O27   2.005708 S    
C88   C92   1.195101 T    
C20   C24   1.390702 A    
C183  H128  1.116014 S    
C26   C30   1.402707 A    
Zn5   O21   1.992648 S    
O47   C175  1.278572 A    
C111  C115  1.401170 A    
N9    C118  1.354034 A    
C95   C115  1.399676 A    
C65   C69   1.553097 S    
C77   H33   1.113475 S    
C211  C212  1.526154 S    
C93   C113  1.397891 A    
O12   Zn4   2.009672 S    
C186  C187  1.533235 S    
C103  C107  1.410604 A    
C68   H52   1.113815 S    
O15   C7    1.277456 A    
C21   C25   1.402562 A    
C184  H129  1.111475 S    
C21   H5    1.083109 S    
O7    C3    1.272775 A    
C209  H197  1.111005 S    
C212  H202  1.110862 S    
C121  H69   1.113203 S    
C64   C88   1.455880 S    
C50   C62   1.569702 S    
C131  H87   1.113237 S    
O44   C176  1.278780 A    
C47   C67   1.551017 S    
C188  H139  1.110415 S    
H65   C141  1.113196 S    
C49   H21   1.114411 S    
C210  H198  1.110730 S    
C51   H23   1.114401 S    
C195  H164  1.114716 S    
C46   C62   1.566277 S    
C14   C114  1.458136 S    
C34   C38   1.402086 A    
C123  C139  1.549403 S    
C18   C22   1.390702 A    
C36   H16   1.083202 S    
C50   O58   1.427202 S    
C199  C200  1.525660 S    
N1    C42   1.356284 A    
C208  H193  1.111913 S    
C93   H57   1.083721 S    
C146  C158  1.455831 S    
N17   H142  1.045494 S    
C122  H70   1.113213 S    
C60   C171  1.417592 S    
C56   H32   1.114084 S    
C24   H8    1.083110 S    
O33   C169  1.279652 A    
C30   C34   1.391399 A    
O11   C7    1.277893 A    
C197  H167  1.110911 S    
C48   C68   1.551032 S    
O12   C8    1.277891 A    
C79   H35   1.113475 S    
C189  H150  1.114090 S    
C80   H36   1.113476 S    
O9    Zn1   2.009429 S    
C19   C39   1.401964 A    
C199  H173  1.111021 S    
C9    C165  1.416810 S    
O4    Zn4   1.992672 S    
C139  C163  1.455784 S    
C110  H62   1.083836 S    
C187  H137  1.111000 S    
C200  H175  1.110351 S    
C41   N5    1.356075 A    
C51   C63   1.576198 S    
O18   C10   1.272923 A    
O7    Zn7   1.992625 S    
O8    Zn8   1.992655 S    
C201  C202  1.528412 S    
O16   C8    1.277435 A    
C101  C118  1.459394 S    
O2    Zn2   1.992672 S    
C194  H162  1.111098 S    
C131  H83   1.113213 S    
C105  C109  1.400318 A    
C132  H84   1.113207 S    
O24   C12   1.272991 A    
C149  H109  1.113210 S    
N16   C120  1.355476 A    
C151  H111  1.113229 S    
C182  H125  1.110361 S    
C96   H60   1.083365 S    
C198  C199  1.531497 S    
C187  C188  1.525671 S    
C143  H107  1.113231 S    
N3    N4    1.328922 A    
C97   C101  1.410222 A    
C57   C81   1.196285 T    
C95   C99   1.391750 A    
O57   C201  1.414482 S    
C73   H53   1.113123 S    
C77   H37   1.113428 S    
C180  H120  1.111309 S    
C50   C54   1.559282 S    
O14   Zn6   2.005848 S    
C134  C158  1.195578 T    
H19   C67   1.113282 S    
C56   C72   1.549943 S    
C71   C83   1.456839 S    
C52   H24   1.114404 S    
C129  H85   1.113208 S    
C28   C32   1.402701 A    
C130  H82   1.113205 S    
O2    C2    1.272855 A    
Zn9   O41   1.995901 S    
C112  H64   1.083551 S    
O50   C180  1.417949 S    
C138  C154  1.549227 S    
O31   C15   1.278649 A    
C178  H115  1.111543 S    
C126  C130  1.547913 S    
O32   C16   1.278531 A    
C154  H94   1.113216 S    
C209  H195  1.110862 S    
C212  H204  1.111004 S    
C56   H28   1.109837 S    
C121  C137  1.549328 S    
C72   C84   1.456871 S    
O20   C12   1.272881 A    
C48   H48   1.119415 S    
N11   N15   1.328212 A    
C128  H80   1.113211 S    
C155  H91   1.113234 S    
O43   C175  1.278768 A    
O34   C170  1.279761 A    
C48   C64   1.571097 S    
C18   C38   1.401966 A    
C127  H79   1.113208 S    
O55   C195  1.415766 S    
C150  C154  1.547798 S    
C126  H78   1.113209 S    
C135  C176  1.416866 S    
C74   H42   1.113178 S    
Zn7   O23   1.992648 S    
C42   N6    1.356077 A    
Zn8   O24   1.992675 S    
C177  H114  1.116889 S    
O29   C13   1.275943 A    
C74   H54   1.113135 S    
C69   C81   1.457519 S    
C192  H156  1.111011 S    
C70   C74   1.553385 S    
Zn12  O47   1.998360 S    
Zn1   O17   1.992814 S    
C121  H101  1.113202 S    
O52   C186  1.416731 S    
C66   H50   1.113692 S    
C17   C37   1.401966 A    
O36   C172  1.279123 A    
C146  C150  1.549346 S    
O51   C183  1.416759 S    
