data_mof_unit_28389.cif
_audit_creation_date              2012-12-10T17:09:26-0500
_audit_creation_method            fapswitch 2.2
_symmetry_space_group_name_H-M    P1
_symmetry_Int_Tables_number       1
_space_group_crystal_system       triclinic
_cell_length_a                    10.615062
_cell_length_b                    10.827543
_cell_length_c                    10.199379
_cell_angle_alpha                 91.173144
_cell_angle_beta                  88.998247
_cell_angle_gamma                 92.726421
_cell_volume                      1170.53366785

loop_
_atom_site_label
_atom_site_type_symbol
_atom_type_description
_atom_site_fract_x
_atom_site_fract_y
_atom_site_fract_z
_atom_type_partial_charge
C1    C     C_R   0.504295 0.263807 0.497984 0.923664
C2    C     C_2   0.565858 0.579700 0.076834 0.177509
C3    C     C_R   0.258081 0.499564 0.501450 0.989285
C4    C     C_R   0.493675 0.736047 0.501617 0.911259
C5    C     C_R   0.742059 0.501304 0.498464 0.985367
C6    C     C_3   0.037216 0.539754 0.620305 0.369914
C7    C     C_3   0.948660 0.426002 0.588685 -0.285907
C8    C     C_3   0.877216 0.504720 0.494260 -0.320742
C9    C     C_3   0.964327 0.618964 0.525471 0.247848
C10   C     C_3   0.050929 0.579191 0.409532 0.233250
C11   C     C_3   0.963291 0.465212 0.379848 0.250207
C12   C     C_3   0.036279 0.387752 0.474516 0.060667
C13   C     C_3   0.123327 0.501039 0.505000 -0.390358
C14   C     C_2   0.521913 0.931605 0.406471 -0.324684
C15   C     C_2   0.470296 0.865166 0.504323 0.283005
C16   C     C_2   0.502334 0.059819 0.389764 0.441776
C17   C     C_2   0.525645 0.134746 0.493747 -0.312513
C18   C     C_2   0.566393 0.576986 0.928703 0.198291
H1    H     H_    0.903188 0.361642 0.660677 0.232563
H2    H     H_    0.187870 0.842057 0.710434 0.418890
H3    H     H_    0.508021 0.950513 0.100558 0.375321
H4    H     H_    0.559362 0.097017 0.584046 0.186638
H5    H     H_    0.507757 0.411881 0.117362 0.261119
H6    H     H_    0.581925 0.890291 0.333333 0.190130
H7    H     H_    0.261088 0.252446 0.811249 0.407578
H8    H     H_    0.002851 0.668532 0.953842 0.417077
H9    H     H_    0.068812 0.905197 0.504580 0.409103
H10   H     H_    0.054334 0.816090 0.157337 0.403991
H11   H     H_    0.117473 0.366703 0.188214 0.388655
I1    I     I_    0.674974 0.720186 0.835012 0.017047
I2    I     I_    0.690396 0.711761 0.171988 -0.066626
I3    I     I_    0.088839 0.201156 0.448940 -0.020703
N1    N     N_2   0.501360 0.501330 0.852150 0.008972
N2    N     N_2   0.501400 0.501360 0.147810 -0.165326
O1    O     O_R   0.499980 0.319060 0.613040 -0.566141
O2    O     O_2   0.307119 0.425962 0.008095 -0.233192
O3    O     O_3   0.306179 0.327838 0.777641 -0.444373
O4    O     O_2   0.072563 0.434659 0.852545 -0.183513
O5    O     O_2   0.201287 0.622853 0.810655 -0.216744
O6    O     O_3   0.964456 0.642193 0.869406 -0.470895
O7    O     O_2   0.777344 0.779741 0.522203 -0.305430
O8    O     O_2   0.935551 0.815971 0.691193 -0.243343
O9    O     O_3   0.994536 0.875128 0.453855 -0.423747
O10   O     O_2   0.216860 0.765928 0.345145 -0.259197
O11   O     O_2   0.183557 0.600184 0.180979 -0.230194
O12   O     O_R   0.500020 0.319100 0.386900 -0.571338
O13   O     O_3   0.008024 0.755999 0.214607 -0.453232
O14   O     O_2   0.807289 0.315939 0.235804 -0.218246
O15   O     O_2   0.889903 0.505474 0.131555 -0.208735
O16   O     O_3   0.039377 0.325564 0.153618 -0.408536
O17   O     O_2   0.425226 0.947336 0.749778 -0.236909
O18   O     O_2   0.295167 0.030597 0.579092 -0.303749
O19   O     O_3   0.248226 0.805580 0.647275 -0.524428
O20   O     O_2   0.345395 0.179847 0.235920 -0.201507
O21   O     O_2   0.568110 0.175660 0.168599 -0.235102
O22   O     O_3   0.425836 0.975535 0.137206 -0.455499
O23   O     O_R   0.313930 0.499950 0.613050 -0.522116
O24   O     O_R   0.313970 0.499990 0.386910 -0.580155
O25   O     O_R   0.499980 0.680900 0.613100 -0.579257
O26   O     O_R   0.500020 0.680940 0.386960 -0.617594
O27   O     O_R   0.686030 0.500010 0.613090 -0.623753
O28   O     O_R   0.686070 0.500050 0.386950 -0.579874
O29   O     O_2   0.467588 0.275523 0.947407 -0.242701
S1    S     S_3+6 0.395453 0.382384 0.902060 0.185732
S2    S     S_3+6 0.073807 0.559827 0.791559 0.149957
S3    S     S_3+6 0.914930 0.774661 0.551597 0.118421
S4    S     S_3+6 0.120498 0.676993 0.284799 0.127068
S5    S     S_3+6 0.920421 0.403537 0.221227 0.156659
S6    S     S_3+6 0.359127 0.918303 0.622947 0.061902
S7    S     S_3+6 0.459436 0.102717 0.230183 0.139414
Zn1   Zn    Zn3+2 0.499970 0.499970 0.650990 1.164356
Zn2   Zn    Zn3+2 0.500030 0.500030 0.349010 1.133727

loop_
_geom_bond_atom_site_label_1
_geom_bond_atom_site_label_2
_ccdc_geom_bond_type
C3    C13   S    
O11   S4    D    
H3    O22   S    
C11   C12   S    
H10   O13   S    
C6    C7    S    
C18   I1    S    
O15   S5    D    
H9    O9    S    
C9    S3    S    
C5    C8    S    
C9    C10   S    
C1    C17   S    
C17   H4    S    
O20   S7    D    
O4    S2    D    
O14   S5    D    
O6    S2    S    
H5    N2    S    
O19   S6    S    
O27   Zn1   S    
C4    C15   S    
C8    C9    S    
O1    Zn1   S    
C7    C8    S    
O9    S3    S    
C10   S4    S    
C12   I3    S    
C6    C13   S    
C12   C13   S    
O5    S2    D    
H8    O6    S    
O7    S3    D    
O16   S5    S    
C6    C9    S    
C8    C11   S    
C3    O23   A    
C4    O25   A    
O13   S4    S    
C5    O28   A    
O22   S7    S    
H11   O16   S    
O24   Zn2   S    
C7    C12   S    
C15   S6    S    
C18   N1    D    
C14   C16   S    
C1    O12   A    
O21   S7    D    
C2    C18   S    
C10   C11   S    
N1    Zn1   S    
O28   Zn2   S    
O29   S1    D    
C3    O24   A    
N2    Zn2   S    
O3    S1    S    
C16   S7    S    
C11   S5    S    
C1    O1    A    
C14   H6    S    
C4    O26   A    
O8    S3    D    
O26   Zn2   S    
C14   C15   D    
H2    O19   S    
C7    H1    S    
O18   S6    D    
O17   S6    D    
H7    O3    S    
C2    N2    D    
O2    S1    D    
O12   Zn2   S    
C6    S2    S    
O23   Zn1   S    
C5    O27   A    
C16   C17   D    
O25   Zn1   S    
C2    I2    S    
O10   S4    D    
C10   C13   S    
N1    S1    S    
