data_mof_unit_32762.cif
_audit_creation_date              2012-12-10T17:42:45-0500
_audit_creation_method            fapswitch 2.2
_symmetry_space_group_name_H-M    P1
_symmetry_Int_Tables_number       1
_space_group_crystal_system       triclinic
_cell_length_a                    9.990973
_cell_length_b                    10.710185
_cell_length_c                    13.079595
_cell_angle_alpha                 94.442225
_cell_angle_beta                  69.333923
_cell_angle_gamma                 92.767482
_cell_volume                      1305.26231775

loop_
_atom_site_label
_atom_site_type_symbol
_atom_type_description
_atom_site_fract_x
_atom_site_fract_y
_atom_site_fract_z
_atom_type_partial_charge
C1    C     C_R   0.507028 0.738197 0.489399 0.909248
C2    C     C_R   0.365594 0.489821 0.822797 -0.094690
C3    C     C_R   0.327100 0.861035 0.390534 -0.142853
C4    C     C_R   0.419351 0.500202 0.704433 0.866731
C5    C     C_R   0.200702 0.910295 0.390406 -0.108616
C6    C     C_R   0.154117 0.024142 0.447567 -0.140862
C7    C     C_R   0.241515 0.094693 0.494339 -0.126667
C8    C     C_R   0.377717 0.051491 0.484445 0.108048
C9    C     C_R   0.408751 0.926609 0.447578 0.085936
C10   C     C_R   0.516158 0.869901 0.474139 -0.063635
C11   C     C_R   0.613797 0.941630 0.508752 -0.179526
C12   C     C_R   0.430307 0.495763 0.985554 0.088355
C13   C     C_R   0.600793 0.068885 0.523429 -0.204505
C14   C     C_R   0.484672 0.125433 0.510466 -0.132178
C15   C     C_R   0.821730 0.698563 0.606599 -0.148098
C16   C     C_R   0.493822 0.259957 0.505723 0.896218
C17   C     C_R   0.879071 0.808354 0.639057 -0.283718
C18   C     C_R   0.016070 0.809092 0.641618 -0.214535
C19   C     C_R   0.089286 0.696464 0.620950 0.041484
C20   C     C_R   0.049244 0.595137 0.559158 0.062570
C21   C     C_R   0.907775 0.596589 0.554748 0.173065
C22   C     C_R   0.947092 0.410431 0.444050 -0.101067
C23   C     C_R   0.443762 0.545475 0.885674 0.106375
C24   C     C_R   0.091849 0.411619 0.438400 -0.021785
C25   C     C_R   0.581086 0.502392 0.295491 0.940071
C26   C     C_R   0.748648 0.655052 0.030100 -0.253167
C27   C     C_R   0.631976 0.520828 0.178155 -0.206830
C28   C     C_R   0.254399 0.403598 0.868492 -0.223450
C29   C     C_R   0.225106 0.369107 0.974575 -0.065717
C30   C     C_R   0.313971 0.411852 0.032044 -0.139706
C31   C     C_2   0.137577 0.674341 0.711317 0.965081
C32   C     C_2   0.181474 0.315721 0.356505 0.866930
C33   C     C_R   0.535228 0.531019 0.033078 0.076582
C34   C     C_R   0.641196 0.623553 0.986351 0.099287
C35   C     C_R   0.637497 0.684792 0.897302 -0.186419
C36   C     C_R   0.537842 0.647593 0.848837 -0.173665
C37   C     C_R   0.538539 0.476425 0.125274 -0.301398
C38   C     C_R   0.746352 0.603753 0.125903 0.446211
H1    H     H_    0.359247 0.770849 0.347396 0.160117
H2    H     H_    0.712484 0.760656 0.864586 0.157556
H3    H     H_    0.831836 0.722574 0.991033 0.192851
H4    H     H_    0.462930 0.403646 0.162393 0.197884
H5    H     H_    0.193491 0.359844 0.820809 0.174771
H6    H     H_    0.287935 0.378561 0.112538 0.158305
H7    H     H_    0.137759 0.303881 0.010367 0.170379
H8    H     H_    0.533567 0.698844 0.782227 0.145818
H9    H     H_    0.698513 0.899497 0.526779 0.164394
H10   H     H_    0.895046 0.745313 0.325295 0.373680
H11   H     H_    0.090031 0.590741 0.852932 0.360849
H12   H     H_    0.135863 0.857557 0.350335 0.158203
H13   H     H_    0.191014 0.176533 0.240220 0.349066
H14   H     H_    0.051022 0.058717 0.454496 0.157825
H15   H     H_    0.197615 0.179806 0.541298 0.156424
H16   H     H_    0.681608 0.122852 0.546340 0.170626
H17   H     H_    0.905981 0.339069 0.399095 0.209640
H18   H     H_    0.709853 0.694484 0.625698 0.197064
H19   H     H_    0.812485 0.889025 0.672602 0.160100
H20   H     H_    0.050638 0.889924 0.681989 0.172491
N1    N     N_R   0.856860 0.501200 0.500990 -0.126525
N2    N     N_R   0.142450 0.501280 0.501020 -0.154004
O1    O     O_R   0.385310 0.683220 0.500000 -0.640180
O2    O     O_2   0.004162 0.716178 0.093577 -0.304211
O3    O     O_3   0.820561 0.741990 0.291291 -0.563001
O4    O     O_2   0.228017 0.743852 0.730395 -0.652893
O5    O     O_R   0.065093 0.584013 0.784050 -0.813394
O6    O     O_2   0.307145 0.304180 0.341375 -0.594515
O7    O     O_R   0.120412 0.237158 0.293199 -0.840281
O8    O     O_R   0.614640 0.683250 0.500010 -0.629705
O9    O     O_R   0.328400 0.499950 0.653610 -0.598627
O10   O     O_R   0.557730 0.499970 0.653620 -0.631339
O11   O     O_R   0.385360 0.316750 0.499990 -0.589348
O12   O     O_R   0.614690 0.316780 0.500000 -0.626258
O13   O     O_R   0.442270 0.500030 0.346380 -0.587124
O14   O     O_R   0.671600 0.500050 0.346390 -0.536251
O15   O     O_2   0.944790 0.532327 0.202538 -0.305110
S1    S     S_3+6 0.885564 0.647617 0.176960 0.014403
Zn1   Zn    Zn3+2 0.346880 0.499980 0.499990 0.984800
Zn2   Zn    Zn3+2 0.653120 0.500020 0.500010 0.986414

loop_
_geom_bond_atom_site_label_1
_geom_bond_atom_site_label_2
_ccdc_geom_bond_type
O10   Zn2   S    
C11   H9    S    
C35   C36   A    
C16   O12   A    
C19   C31   S    
C4    O10   A    
C7    C8    A    
C38   S1    S    
C12   C23   A    
H11   O5    S    
C28   C29   A    
C21   N1    A    
C5    C6    A    
C34   C35   A    
O3    S1    S    
C27   C38   A    
C1    O8    A    
C15   C17   A    
C25   O14   A    
C37   H4    S    
O12   Zn2   S    
O9    Zn1   S    
C26   C34   A    
C19   C20   A    
O1    Zn1   S    
C8    C9    A    
C36   H8    S    
C14   C16   S    
C20   N2    A    
C9    C10   A    
C3    H1    S    
C13   C14   A    
C30   H6    S    
C16   O11   A    
N1    Zn2   S    
C4    O9    A    
C18   H20   S    
C33   C34   A    
O8    Zn2   S    
N2    Zn1   S    
C22   N1    A    
C18   C19   A    
H10   O3    S    
C33   C37   A    
C29   H7    S    
C2    C4    S    
O15   S1    D    
C24   C32   S    
C29   C30   A    
C3    C9    A    
C24   N2    A    
C17   C18   A    
H13   O7    S    
C6    C7    A    
C32   O7    S    
C22   C24   A    
C5    H12   S    
C7    H15   S    
O11   Zn1   S    
C32   O6    D    
C13   H16   S    
C31   O5    S    
C8    C14   A    
O2    S1    D    
C12   C30   A    
C31   O4    D    
C26   C38   A    
C1    C10   S    
C3    C5    A    
C1    O1    A    
C22   H17   S    
C25   C27   S    
C28   H5    S    
C15   H18   S    
C35   H2    S    
C11   C13   A    
C27   C37   A    
C25   O13   A    
C10   C11   A    
C15   C21   A    
C20   C21   A    
C23   C36   A    
O14   Zn2   S    
C2    C23   A    
O13   Zn1   S    
C2    C28   A    
C6    H14   S    
C12   C33   A    
C26   H3    S    
C17   H19   S    
