data_mof_unit_25119.cif
_audit_creation_date              2012-12-10T17:21:10-0500
_audit_creation_method            fapswitch 2.2
_symmetry_space_group_name_H-M    P1
_symmetry_Int_Tables_number       1
_space_group_crystal_system       triclinic
_cell_length_a                    10.168487
_cell_length_b                    10.664925
_cell_length_c                    10.757415
_cell_angle_alpha                 90.86329
_cell_angle_beta                  95.643714
_cell_angle_gamma                 81.336475
_cell_volume                      1147.69889765

loop_
_atom_site_label
_atom_site_type_symbol
_atom_type_description
_atom_site_fract_x
_atom_site_fract_y
_atom_site_fract_z
_atom_type_partial_charge
C1    C     C_R   0.443981 0.513794 0.267356 0.997383
C2    C     C_2   0.930850 0.498689 0.520387 0.005419
C3    C     C_R   0.497368 0.258998 0.490312 0.917949
C4    C     C_R   0.556151 0.496040 0.732887 0.956298
C5    C     C_R   0.499985 0.742123 0.499767 0.858676
C6    C     C_3   0.623236 0.050998 0.427785 -0.011948
C7    C     C_3   0.623203 0.908111 0.435789 -0.374440
C8    C     C_3   0.504831 0.080637 0.624150 -0.517098
C9    C     C_3   0.361845 0.089291 0.416772 -0.245005
C10   C     C_3   0.496153 0.122882 0.485042 0.033302
C11   C     C_2   0.372070 0.915299 0.695020 0.937415
C12   C     C_3   0.497816 0.879331 0.496705 -0.058258
C13   C     C_2   0.892117 0.568304 0.633203 0.992936
C14   C     C_3   0.644902 0.089282 0.294265 -0.765133
C15   C     C_3   0.620945 0.875495 0.722679 -0.814737
C16   C     C_2   0.309698 0.155504 0.293131 0.935799
C17   C     C_2   0.348402 0.883474 0.284788 0.956654
C18   C     C_3   0.498097 0.936174 0.634390 0.110201
C19   C     C_3   0.368291 0.942422 0.414197 -0.286562
C20   C     C_2   0.412463 0.535714 0.135163 -0.356137
C21   C     C_2   0.512024 0.550440 0.067455 -0.127911
C22   C     C_2   0.587982 0.508447 0.865671 -0.373898
C23   C     C_2   0.488989 0.553358 0.934260 -0.087995
C24   C     C_2   0.073938 0.485296 0.493260 -0.167894
H1    H     H_    0.713299 0.071775 0.487745 0.183646
H2    H     H_    0.123335 0.617745 0.616038 0.193498
H3    H     H_    0.628410 0.862190 0.342690 0.222380
H4    H     H_    0.717089 0.864870 0.489932 0.220794
H5    H     H_    0.599410 0.104896 0.673506 0.177572
H6    H     H_    0.282788 0.126062 0.478476 0.172772
H7    H     H_    0.181027 0.979970 0.726605 0.356540
H8    H     H_    0.887984 0.565173 0.819966 0.329495
H9    H     H_    0.743766 0.040963 0.270163 0.229582
H10   H     H_    0.568427 0.060441 0.224002 0.301919
H11   H     H_    0.645342 0.192540 0.285518 0.270640
H12   H     H_    0.279962 0.922943 0.459834 0.184757
H13   H     H_    0.626903 0.770876 0.727308 0.263555
H14   H     H_    0.716244 0.898339 0.693690 0.259803
H15   H     H_    0.613025 0.913022 0.819099 0.240148
H16   H     H_    0.334016 0.274796 0.156436 0.343330
H17   H     H_    0.234744 0.784515 0.167884 0.346563
H18   H     H_    0.425624 0.138844 0.673391 0.218983
H19   H     H_    0.386964 0.581954 0.893026 0.214734
H20   H     H_    0.614236 0.548681 0.109144 0.188438
H21   H     H_    0.689534 0.479329 0.907543 0.167420
H22   H     H_    0.310580 0.537145 0.092975 0.153449
H23   H     H_    0.109437 0.417300 0.423447 0.174290
H24   H     H_    0.875621 0.399957 0.371287 0.168339
N1    N     N_2   0.157300 0.551950 0.551120 -0.179544
N2    N     N_2   0.842730 0.448000 0.448950 -0.240811
O1    O     O_R   0.568940 0.489540 0.307530 -0.626444
O2    O     O_R   0.256854 0.006178 0.683412 -0.830577
O3    O     O_2   0.850865 0.681676 0.626889 -0.680801
O4    O     O_R   0.913945 0.506405 0.748568 -0.800887
O5    O     O_2   0.199397 0.140394 0.244186 -0.611205
O6    O     O_R   0.381580 0.237635 0.237863 -0.835933
O7    O     O_2   0.424110 0.893783 0.205408 -0.645877
O8    O     O_R   0.239770 0.818242 0.256564 -0.774785
O9    O     O_R   0.348880 0.522880 0.340350 -0.587851
O10   O     O_R   0.610030 0.298130 0.483570 -0.625731
O11   O     O_R   0.389960 0.331470 0.516390 -0.626008
O12   O     O_R   0.651120 0.477120 0.659650 -0.596883
O13   O     O_R   0.431060 0.510460 0.692470 -0.594701
O14   O     O_R   0.610040 0.668530 0.483610 -0.601940
O15   O     O_R   0.389970 0.701870 0.516430 -0.596535
O16   O     O_2   0.370888 0.817545 0.752872 -0.623362
Zn1   Zn    Zn3+2 0.646940 0.477740 0.478080 0.976485
Zn2   Zn    Zn3+2 0.353060 0.522260 0.521920 1.005722

loop_
_geom_bond_atom_site_label_1
_geom_bond_atom_site_label_2
_ccdc_geom_bond_type
C14   H10   S    
C15   C18   S    
C16   O6    S    
C15   H14   S    
C6    C10   S    
C6    C7    S    
N1    Zn2   S    
O9    Zn2   S    
C6    C14   S    
C21   H20   S    
C4    C22   S    
C9    C10   S    
H7    O2    S    
C4    O13   A    
C11   O16   D    
C9    C19   S    
C17   O8    S    
O15   Zn2   S    
C3    O10   A    
C14   H9    S    
H24   N2    S    
C16   O5    D    
C7    H3    S    
C11   C18   S    
C3    C10   S    
O1    Zn1   S    
C1    O1    A    
O11   Zn2   S    
C15   H15   S    
C9    H6    S    
C8    H5    S    
O12   Zn1   S    
C12   C19   S    
H8    O4    S    
C17   C19   S    
C1    O9    A    
C8    H18   S    
H17   O8    S    
C13   O3    D    
C19   H12   S    
C3    O11   A    
C21   C23   S    
C2    C24   S    
C7    C12   S    
C8    C18   S    
C6    H1    S    
O14   Zn1   S    
C4    O12   A    
C24   N1    D    
C22   H21   S    
C23   H19   S    
C20   C21   D    
O10   Zn1   S    
C5    C12   S    
C5    O15   A    
C13   O4    S    
N2    Zn1   S    
H2    N1    S    
C12   C18   S    
C14   H11   S    
C2    C13   S    
O13   Zn2   S    
C15   H13   S    
C1    C20   S    
C11   O2    S    
C2    N2    D    
C22   C23   D    
C24   H23   S    
C9    C16   S    
C8    C10   S    
C20   H22   S    
C7    H4    S    
C5    O14   A    
C17   O7    D    
H16   O6    S    
