data_mof_unit_17808.cif
_audit_creation_date              2012-12-11T16:51:02-0500
_audit_creation_method            fapswitch 2.2
_symmetry_space_group_name_H-M    P1
_symmetry_Int_Tables_number       1
_space_group_crystal_system       triclinic
_cell_length_a                    6.945883
_cell_length_b                    28.91277
_cell_length_c                    32.03447
_cell_angle_alpha                 100.726758
_cell_angle_beta                  89.692476
_cell_angle_gamma                 90.347781
_cell_volume                      6320.72231496

loop_
_atom_site_label
_atom_site_type_symbol
_atom_type_description
_atom_site_fract_x
_atom_site_fract_y
_atom_site_fract_z
_atom_type_partial_charge
O1    O     O_R   0.494350 0.453170 0.452520 -0.544237
O2    O     O_R   0.820980 0.455850 0.538220 -0.539483
O3    O     O_R   0.994300 0.546830 0.547480 -0.533681
C1    C     C_R   0.652021 0.446234 0.552083 0.748742
O4    O     O_R   0.823860 0.447590 0.452270 -0.543704
O5    O     O_R   0.997200 0.538510 0.460920 -0.543415
C2    C     C_R   0.654958 0.434834 0.436542 0.681345
O6    O     O_R   0.491440 0.461490 0.539080 -0.528026
O7    O     O_3   0.661790 0.529840 0.502940 -0.367544
V1    V     V_3+5 0.935470 0.494460 0.499450 1.432635
O8    O     O_R   0.327090 0.544150 0.461780 -0.543179
C3    C     C_R   0.158989 0.554031 0.448173 0.710600
O9    O     O_R   0.324210 0.552410 0.547730 -0.528612
C4    C     C_R   0.155213 0.564313 0.563585 0.738024
V2    V     V_3+5 0.435840 0.505540 0.500550 1.443456
O10   O     O_3   0.159650 0.470160 0.497060 -0.369634
C5    C     C_R   0.226603 0.889663 0.873381 0.091554
C6    C     C_R   0.237496 0.854179 0.837434 -0.147215
H1    H     H_    0.369869 0.852821 0.820402 0.177567
C7    C     C_R   0.084912 0.822741 0.824371 0.089467
C8    C     C_R   0.919738 0.827423 0.850863 -0.126432
H2    H     H_    0.800880 0.802840 0.844443 0.132716
C9    C     C_R   0.906354 0.863109 0.887180 -0.152664
H3    H     H_    0.779030 0.864474 0.906921 0.156356
C10   C     C_R   0.056432 0.895784 0.898560 -0.089243
C11   C     C_R   0.928335 0.764848 0.764869 -0.245869
H4    H     H_    0.791654 0.780543 0.774326 0.207545
C12   C     C_R   0.932902 0.726526 0.730872 -0.242238
H5    H     H_    0.801077 0.714204 0.714658 0.200091
C13   C     C_R   0.104881 0.702870 0.718710 -0.080898
C14   C     C_R   0.273887 0.719348 0.740645 0.373519
C15   C     C_R   0.274086 0.763829 0.767479 0.367049
C16   C     C_R   0.097941 0.783973 0.785121 -0.066694
C17   C     C_R   0.177512 0.620393 0.680095 -0.090961
H6    H     H_    0.211807 0.609907 0.709756 0.124282
C18   C     C_R   0.196217 0.587266 0.642379 0.119774
C19   C     C_R   0.144472 0.599281 0.603302 -0.076868
C20   C     C_R   0.071499 0.644275 0.602794 -0.192599
H7    H     H_    0.028110 0.653838 0.573107 0.118464
C21   C     C_R   0.056461 0.677481 0.640499 -0.133041
H8    H     H_    0.004176 0.712408 0.639198 0.123199
C22   C     C_R   0.111516 0.666076 0.679495 0.109015
C23   C     C_R   0.139347 0.651811 0.278060 0.615869
N1    N     N_R   0.131550 0.670813 0.320568 -0.536430
C24   C     C_R   0.111472 0.718348 0.333976 0.582270
C25   C     C_R   0.089780 0.748538 0.304332 -0.113130
C26   C     C_R   0.114908 0.729894 0.260530 -0.112846
C27   C     C_R   0.146790 0.681242 0.247166 -0.157065
C28   C     C_R   0.043888 0.796810 0.317176 0.414606
C29   C     C_R   0.041210 0.826241 0.287282 -0.223412
C30   C     C_R   0.069753 0.808412 0.243966 -0.060994
C31   C     C_R   0.106008 0.759991 0.230193 -0.053894
C32   C     C_R   0.130618 0.741844 0.186274 -0.138945
C33   C     C_R   0.161273 0.692652 0.173037 0.134968
C34   C     C_R   0.180462 0.663315 0.203347 0.373275
C35   C     C_R   0.057411 0.838117 0.214023 0.591194
N2    N     N_R   0.084832 0.820712 0.171736 -0.548977
C36   C     C_R   0.124879 0.774011 0.157587 0.630514
O11   O     O_2   0.134973 0.604626 0.265781 -0.532309
O12   O     O_2   0.114652 0.736326 0.375962 -0.510530
H9    H     H_    0.011779 0.863269 0.298320 0.180274
O13   O     O_2   0.015876 0.884096 0.227089 -0.529417
O14   O     O_2   0.164175 0.759532 0.116066 -0.498038
C37   C     C_R   0.929362 0.844262 0.109593 -0.181313
H10   H     H_    0.835179 0.813890 0.107154 0.150371
C38   C     C_R   0.910553 0.875006 0.080455 0.363248
C39   C     C_R   0.040787 0.913102 0.082245 -0.132393
C40   C     C_R   0.182334 0.920416 0.114063 -0.309431
H11   H     H_    0.282653 0.949594 0.116250 0.143186
C41   C     C_R   0.196269 0.890370 0.143428 -0.104528
H12   H     H_    0.307086 0.896634 0.167494 0.144464
C42   C     C_R   0.069901 0.852049 0.141498 0.313828
C43   C     C_R   0.984133 0.639740 0.380233 -0.180911
H13   H     H_    0.857412 0.660687 0.377749 0.162906
C44   C     C_R   0.989220 0.611509 0.411257 -0.217076
H14   H     H_    0.866071 0.611203 0.432089 0.146087
C45   C     C_R   0.152450 0.584516 0.415690 -0.093086
C46   C     C_R   0.309210 0.585866 0.388066 -0.299798
H15   H     H_    0.436743 0.565637 0.391535 0.132016
C47   C     C_R   0.301412 0.612139 0.355096 0.460263
C48   C     C_R   0.139244 0.640530 0.351946 0.295077
C49   C     C_R   0.565058 0.231916 0.844447 0.640939
N3    N     N_R   0.616888 0.185620 0.833248 -0.539981
C50   C     C_R   0.679810 0.167688 0.792917 0.660624
C51   C     C_R   0.691250 0.196568 0.762011 -0.057719
C52   C     C_R   0.633056 0.243843 0.772500 -0.009131
C53   C     C_R   0.570502 0.261732 0.814200 -0.063794
C54   C     C_R   0.757198 0.178843 0.720862 -0.151376
C55   C     C_R   0.763569 0.206852 0.689730 0.211148
C56   C     C_R   0.699408 0.254392 0.699286 -0.082740
C57   C     C_R   0.635447 0.272984 0.741258 -0.070813
C58   C     C_R   0.572712 0.320443 0.752099 -0.079589
C59   C     C_R   0.510866 0.337925 0.794575 0.206094
C60   C     C_R   0.511388 0.308625 0.824708 -0.156658
C61   C     C_R   0.695400 0.284097 0.668770 0.668046
N4    N     N_R   0.633543 0.329585 0.679572 -0.565705
C62   C     C_R   0.574185 0.348152 0.719952 0.638521
O15   O     O_2   0.504983 0.248825 0.884466 -0.506571
O16   O     O_2   0.727981 0.121825 0.782521 -0.508257
H16   H     H_    0.804905 0.142682 0.712587 0.191009
O17   O     O_2   0.750894 0.268063 0.628394 -0.466972
O18   O     O_2   0.516501 0.393284 0.728422 -0.476600
H17   H     H_    0.462811 0.322797 0.856691 0.191050
C63   C     C_R   0.793392 0.388072 0.644165 -0.077941
H18   H     H_    0.913452 0.388903 0.665706 0.162425
C64   C     C_R   0.799641 0.415786 0.612757 -0.158267
H19   H     H_    0.925318 0.437630 0.610720 0.161227
C65   C     C_R   0.644176 0.416003 0.584828 -0.085532
C66   C     C_R   0.482559 0.387593 0.588920 -0.194810
H20   H     H_    0.361274 0.387107 0.567736 0.150916
C67   C     C_R   0.478281 0.358747 0.619701 0.208666
C68   C     C_R   0.634251 0.359017 0.647680 0.330006
C69   C     C_R   0.416669 0.130014 0.864915 0.115175
C70   C     C_R   0.394000 0.097776 0.892910 0.352048
C71   C     C_R   0.550159 0.089454 0.919171 -0.188305
C72   C     C_R   0.721743 0.115267 0.917587 -0.275953
H21   H     H_    0.842101 0.110680 0.937758 0.194047
C73   C     C_R   0.740958 0.147618 0.890384 -0.102366
H22   H     H_    0.873580 0.167352 0.890319 0.182780
C74   C     C_R   0.591244 0.154366 0.863204 0.286707
C75   C     C_R   0.724680 0.126023 0.113478 -0.180157
H23   H     H_    0.853911 0.116141 0.094975 0.125197
C76   C     C_R   0.737632 0.161522 0.149620 -0.073333
H24   H     H_    0.875555 0.178502 0.157381 0.136880
C77   C     C_R   0.574579 0.175301 0.175045 0.119157
C78   C     C_R   0.396504 0.153819 0.162268 -0.167041
H25   H     H_    0.267451 0.163808 0.180753 0.129648
C79   C     C_R   0.383007 0.118655 0.125790 -0.153257
H26   H     H_    0.244101 0.102521 0.117264 0.121810
C80   C     C_R   0.547420 0.103928 0.101166 -0.047522
C81   C     C_R   0.448014 0.247877 0.222214 -0.223260
H27   H     H_    0.330945 0.248333 0.200104 0.144442
C82   C     C_R   0.457622 0.283616 0.258129 -0.162038
H28   H     H_    0.347654 0.310488 0.262692 0.122846
C83   C     C_R   0.609744 0.285494 0.287067 0.040481
C84   C     C_R   0.750896 0.250270 0.279406 -0.248869
H29   H     H_    0.868341 0.251826 0.301575 0.116138
C85   C     C_R   0.739885 0.212806 0.243921 0.425924
C86   C     C_R   0.588841 0.212520 0.214262 0.001690
C87   C     C_R   0.800220 0.343998 0.339666 -0.138185
H30   H     H_    0.931778 0.332519 0.322687 0.100747
C88   C     C_R   0.811360 0.379633 0.375805 -0.159952
H31   H     H_    0.951236 0.394247 0.385778 0.118006
C89   C     C_R   0.644045 0.396526 0.398401 -0.051045
C90   C     C_R   0.465333 0.376787 0.383832 -0.160099
H32   H     H_    0.333352 0.388737 0.400427 0.123573
C91   C     C_R   0.454339 0.340974 0.347861 -0.141778
H33   H     H_    0.314684 0.326034 0.338153 0.101659
C92   C     C_R   0.621574 0.324039 0.325246 0.117998
O19   O     O_R   0.699170 0.038480 0.960880 -0.540208
O20   O     O_R   0.366800 0.052460 0.047690 -0.546069
O21   O     O_R   0.193520 0.961530 0.039110 -0.554145
C93   C     C_R   0.535801 0.065396 0.063258 0.674849
O22   O     O_R   0.369630 0.044100 0.961740 -0.507965
O23   O     O_R   0.196370 0.953120 0.952550 -0.526007
C94   C     C_R   0.538603 0.054944 0.948663 0.776870
O24   O     O_R   0.696320 0.046890 0.047450 -0.544478
O25   O     O_3   0.528890 0.970170 0.997080 -0.360789
V3    V     V_3+5 0.255190 0.005530 0.000540 1.447644
O26   O     O_R   0.866460 0.947530 0.952310 -0.523305
C95   C     C_R   0.037225 0.934546 0.936588 0.736689
O27   O     O_R   0.863630 0.955880 0.038270 -0.527725
C96   C     C_R   0.031961 0.945348 0.051275 0.736377
V4    V     V_3+5 0.754830 0.994440 0.999470 1.452644
O28   O     O_3   0.031000 0.029830 0.002920 -0.368398
I1    I     I_    0.484485 0.930453 0.883929 -0.508067
I2    I     I_    0.295372 0.519018 0.646750 -0.391574
O29   O     O_3   0.005084 0.816517 0.359130 -0.552040
C97   C     C_3   0.810821 0.807452 0.368895 0.160756
H34   H     H_    0.802359 0.807768 0.403591 0.168355
H35   H     H_    0.758844 0.771966 0.352902 0.103178
C98   C     C_3   0.677739 0.845804 0.358452 -0.420206
H36   H     H_    0.732604 0.881000 0.373886 0.223398
H37   H     H_    0.674673 0.844210 0.323554 0.201055
C99   C     C_3   0.472846 0.839369 0.373800 -0.694108
H38   H     H_    0.417139 0.804033 0.359147 0.250016
H39   H     H_    0.378180 0.866564 0.364566 0.246243
H40   H     H_    0.469291 0.843018 0.408928 0.236136
I3    I     I_    0.164366 0.657227 0.107796 -0.289080
O30   O     O_3   0.220347 0.616107 0.188823 -0.538582
C100  C     C_3   0.412607 0.605981 0.198624 0.153317
H41   H     H_    0.414691 0.568785 0.202985 0.154172
H42   H     H_    0.466682 0.627918 0.228707 0.107794
C101  C     C_3   0.550158 0.610553 0.162179 -0.373308
H43   H     H_    0.496435 0.588756 0.132190 0.244819
H44   H     H_    0.558132 0.647912 0.158289 0.215361
C102  C     C_3   0.751521 0.594112 0.171086 -0.710200
H45   H     H_    0.809146 0.615963 0.200623 0.243454
H46   H     H_    0.848527 0.597422 0.144196 0.276308
H47   H     H_    0.748160 0.556641 0.174700 0.227180
O31   O     O_3   0.784413 0.863930 0.046669 -0.558037
C103  C     C_3   0.591396 0.869145 0.061193 0.111987
H48   H     H_    0.545545 0.906154 0.062450 0.137178
H49   H     H_    0.569243 0.860702 0.093458 0.075000
C104  C     C_3   0.460885 0.835938 0.030779 -0.290804
H50   H     H_    0.515441 0.799360 0.027394 0.219011
H51   H     H_    0.313270 0.836720 0.044419 0.175521
C105  C     C_3   0.450490 0.849507 0.987004 -0.643768
H52   H     H_    0.383217 0.884586 0.989505 0.231188
H53   H     H_    0.360808 0.823407 0.965630 0.203097
H54   H     H_    0.596481 0.850154 0.972834 0.243312
O32   O     O_3   0.456800 0.613420 0.327904 -0.575093
C106  C     C_3   0.508315 0.567475 0.306826 0.090522
H55   H     H_    0.500149 0.566624 0.272233 0.149137
H56   H     H_    0.410926 0.538718 0.313310 0.109393
C107  C     C_3   0.715896 0.557097 0.317444 -0.328908
H57   H     H_    0.811757 0.584477 0.308380 0.236018
H58   H     H_    0.729131 0.558064 0.352089 0.191175
C108  C     C_3   0.780455 0.508945 0.293731 -0.789612
H59   H     H_    0.688887 0.480749 0.302835 0.223415
H60   H     H_    0.932118 0.502900 0.302035 0.236187
H61   H     H_    0.771466 0.507278 0.258866 0.239442
I4    I     I_    0.877104 0.171382 0.630382 -0.203879
I5    I     I_    0.409804 0.407296 0.819065 -0.225768
I6    I     I_    0.236231 0.314628 0.622532 -0.296743
I7    I     I_    0.188030 0.142596 0.824540 -0.370241
O33   O     O_3   0.214776 0.077707 0.896705 -0.560154
C109  C     C_3   0.192689 0.037321 0.864595 0.091522
H62   H     H_    0.257902 0.007240 0.875670 0.150808
H63   H     H_    0.261384 0.041037 0.833801 0.143976
C110  C     C_3   0.978495 0.026784 0.856999 -0.281446
H64   H     H_    0.910183 0.020520 0.886896 0.205745
H65   H     H_    0.908267 0.057473 0.847254 0.243751
C111  C     C_3   0.946616 0.983612 0.822257 -0.780871
H66   H     H_    0.009691 0.989511 0.791733 0.245155
H67   H     H_    0.789809 0.976946 0.817795 0.249748
H68   H     H_    0.013548 0.952127 0.831175 0.238041
O34   O     O_3   0.880040 0.177926 0.235499 -0.588577
C112  C     C_3   0.943810 0.161757 0.272178 0.066930
H69   H     H_    0.942970 0.122663 0.264716 0.151596
H70   H     H_    0.847504 0.171412 0.300386 0.113755
C113  C     C_3   0.151419 0.178209 0.282360 -0.320552
H71   H     H_    0.247589 0.161805 0.255999 0.201834
H72   H     H_    0.162662 0.216981 0.285278 0.199729
C114  C     C_3   0.220902 0.164686 0.323509 -0.796791
H73   H     H_    0.130535 0.181836 0.350665 0.237043
H74   H     H_    0.372325 0.176558 0.329467 0.233867
H75   H     H_    0.214334 0.125886 0.321121 0.236500
O35   O     O_3   0.445255 0.695191 0.732436 -0.572543
C115  C     C_3   0.464732 0.664059 0.761650 0.070938
H76   H     H_    0.543819 0.632532 0.745194 0.163676
H77   H     H_    0.323938 0.651022 0.772076 0.105537
C116  C     C_3   0.580025 0.686517 0.800997 -0.332190
H78   H     H_    0.727421 0.694856 0.791419 0.218734
H79   H     H_    0.510139 0.719499 0.817114 0.215106
C117  C     C_3   0.594934 0.653215 0.832600 -0.777102
H80   H     H_    0.449411 0.644925 0.843839 0.241696
H81   H     H_    0.680999 0.670201 0.860444 0.238627
H82   H     H_    0.667086 0.620037 0.817585 0.246015
O36   O     O_3   0.447022 0.787785 0.772421 -0.591418
C118  C     C_3   0.454242 0.820551 0.744248 0.016162
H83   H     H_    0.569170 0.846614 0.755882 0.156151
H84   H     H_    0.318329 0.841031 0.744734 0.124923
C119  C     C_3   0.503685 0.797311 0.698362 -0.295056
H85   H     H_    0.637063 0.776528 0.697870 0.213407
H86   H     H_    0.385085 0.773487 0.684567 0.195820
C120  C     C_3   0.534107 0.834165 0.670478 -0.810138
H87   H     H_    0.401522 0.855337 0.669932 0.237726
H88   H     H_    0.568314 0.816382 0.637506 0.235537
H89   H     H_    0.655818 0.857904 0.682622 0.236627

loop_
_geom_bond_atom_site_label_1
_geom_bond_atom_site_label_2
_ccdc_geom_bond_type
C27   C34   A    
C2    C89   S    
C106  H55   S    
C77   C86   S    
C24   O12   S    
C59   C60   A    
C82   H28   S    
C71   C94   S    
C61   N4    A    
C49   O15   S    
C97   H34   S    
C67   C68   A    
C17   C22   A    
C75   C80   A    
C1    O6    A    
C37   C42   A    
C79   H26   S    
C63   C64   A    
C101  H43   S    
C56   C57   A    
C56   C61   A    
C99   H39   S    
C51   C52   A    
C33   I3    S    
C106  H56   S    
C25   C28   A    
C11   H4    S    
C19   C20   A    
O26   V4    S    
C55   I4    S    
C12   H5    S    
C91   C92   A    
O35   C115  S    
C67   I6    S    
C17   H6    S    
C112  C113  S    
C5    I1    S    
C66   C67   A    
O5    C3    A    
C20   H7    S    
C107  H58   S    
C76   C77   A    
C64   H19   S    
O4    V1    S    
C116  H78   S    
C69   C74   A    
C53   C60   A    
C15   O36   S    
C36   O14   S    
C108  H61   S    
C65   C66   A    
C108  H59   S    
C6    H1    S    
C43   H13   S    
C82   C83   A    
C34   O30   S    
C73   H22   S    
C113  H71   S    
C102  H47   S    
C119  H86   S    
O1    C2    A    
C25   C26   A    
O8    V2    S    
C47   O32   S    
C91   H33   S    
C10   C95   S    
C40   H11   S    
C116  H79   S    
C61   O17   S    
C114  H73   S    
O25   V3    S    
C105  H52   S    
O1    V2    S    
C103  H48   S    
C83   C84   A    
C23   C27   A    
C117  H80   S    
O22   C94   A    
C62   O18   S    
C98   C99   S    
C23   O11   S    
C104  C105  S    
C21   C22   A    
C38   C39   A    
C59   I5    S    
O21   V3    S    
O19   C94   A    
O9    C4    A    
C111  H66   S    
C93   O24   A    
C114  H74   S    
C110  C111  S    
C43   C48   A    
C63   H18   S    
C90   C91   A    
C112  H69   S    
C98   H37   S    
C58   C62   A    
C70   C71   A    
C99   H40   S    
O27   V4    S    
C100  H42   S    
C106  C107  S    
C117  H81   S    
C102  H46   S    
O32   C106  S    
O23   V3    S    
C30   C31   A    
O21   C96   A    
C26   C27   A    
O29   C97   S    
C76   H24   S    
C81   C86   A    
C87   H30   S    
C28   O29   S    
C118  H83   S    
N1    C48   S    
C55   C56   A    
C57   C58   A    
O4    C2    A    
C107  H57   S    
C89   C90   A    
C118  C119  S    
C119  C120  S    
C29   C30   A    
O36   C118  S    
C45   C46   A    
C18   I2    S    
O23   C95   A    
C39   C40   A    
C79   C80   A    
C120  H88   S    
O20   V3    S    
N3    C74   S    
C100  H41   S    
O2    C1    A    
C23   N1    A    
C103  C104  S    
N4    C62   A    
C119  H85   S    
C39   C96   S    
C110  H64   S    
N4    C68   S    
C113  C114  S    
C11   C16   A    
C109  H63   S    
N3    C50   A    
C9    H3    S    
C116  C117  S    
C3    C45   S    
C7    C8    A    
C105  H54   S    
C115  H77   S    
C5    C6    A    
C46   C47   A    
C31   C32   A    
C50   C51   A    
C85   O34   S    
C44   C45   A    
O24   V4    S    
C75   H23   S    
C54   H16   S    
O3    C4    A    
C115  C116  S    
C7    C16   S    
C84   C85   A    
C21   H8    S    
C60   H17   S    
C28   C29   A    
O6    V2    S    
O9    V2    S    
C38   O31   S    
C77   C78   A    
C112  H70   S    
C114  H75   S    
C35   O13   S    
C24   C25   A    
C35   N2    A    
C43   C44   A    
C70   O33   S    
C81   H27   S    
O2    V1    S    
C111  H68   S    
C90   H32   S    
C120  H87   S    
C88   C89   A    
C98   H36   S    
C109  C110  S    
C63   C68   A    
C69   C70   A    
O7    V1    S    
C51   C54   A    
O31   C103  S    
C29   H9    S    
C14   O35   S    
C33   C34   A    
V4    O28   S    
C44   H14   S    
C78   C79   A    
C100  C101  S    
C115  H76   S    
C113  H72   S    
C52   C53   A    
C50   O16   S    
C14   C15   A    
C13   C22   S    
N1    C24   A    
C30   C35   A    
C87   C88   A    
C47   C48   A    
C81   C82   A    
C111  H67   S    
O5    V1    S    
C41   C42   A    
C32   C36   A    
C32   C33   A    
C26   C31   A    
O25   V4    S    
O27   C96   A    
O19   V4    S    
C11   C12   A    
C101  H44   S    
C101  C102  S    
C52   C57   A    
C120  H89   S    
C5    C10   A    
C15   C16   A    
C8    C9    A    
O33   C109  S    
O22   V3    S    
C110  H65   S    
C99   H38   S    
C83   C92   S    
C66   H20   S    
O26   C95   A    
C4    C19   S    
C20   C21   A    
C46   H15   S    
C107  C108  S    
C109  H62   S    
C13   C14   A    
V1    O10   S    
C64   C65   A    
C78   H25   S    
C37   H10   S    
C12   C13   A    
C58   C59   A    
C108  H60   S    
C17   C18   A    
C72   C73   A    
C72   H21   S    
C80   C93   S    
C6    C7    A    
O20   C93   A    
N2    C42   S    
O7    V2    S    
C73   C74   A    
C75   C76   A    
C41   H12   S    
C118  H84   S    
C85   C86   A    
O34   C112  S    
C104  H50   S    
V3    O28   S    
C49   C53   A    
C102  H45   S    
C9    C10   A    
C54   C55   A    
C18   C19   A    
C49   N3    A    
O3    V1    S    
C40   C41   A    
C88   H31   S    
C84   H29   S    
C105  H53   S    
C97   C98   S    
C1    C65   S    
C69   I7    S    
C71   C72   A    
N2    C36   A    
C8    H2    S    
C87   C92   A    
C117  H82   S    
O30   C100  S    
V2    O10   S    
O8    C3    A    
C37   C38   A    
C104  H51   S    
C97   H35   S    
C103  H49   S    
