data_mof_unit_22448.cif
_audit_creation_date              2013-03-05T15:59:35-0500
_audit_creation_method            fapswitch 2.2
_symmetry_space_group_name_H-M    P1
_symmetry_Int_Tables_number       1
_space_group_crystal_system       triclinic
_cell_length_a                    15.094858
_cell_length_b                    13.69772
_cell_length_c                    27.767743
_cell_angle_alpha                 90.140733
_cell_angle_beta                  89.845042
_cell_angle_gamma                 89.822632
_cell_volume                      5741.33527678

loop_
_atom_site_label
_atom_site_type_symbol
_atom_site_description
_atom_site_fract_x
_atom_site_fract_y
_atom_site_fract_z
_atom_type_partial_charge
O1    O     O_R   0.370260 0.582280 0.500010 -0.585536
O2    O     O_R   0.629740 0.417720 0.499990 -0.588393
O3    O     O_R   0.629740 0.582280 0.499990 -0.593775
O4    O     O_R   0.370260 0.417720 0.500010 -0.595355
C1    C     C_R   0.328579 0.500160 0.500456 0.829222
C2    C     C_R   0.671484 0.499884 0.500286 0.802154
O5    O     O_R   0.500020 0.582260 0.430260 -0.567140
O6    O     O_R   0.499980 0.417740 0.569740 -0.565181
O7    O     O_R   0.499980 0.582260 0.569740 -0.594102
O8    O     O_R   0.500020 0.417740 0.430260 -0.565067
C3    C     C_R   0.499939 0.499997 0.407376 0.849621
C4    C     C_R   0.498996 0.500078 0.592403 0.858780
Cu1   Cu    Cu3+1 0.500000 0.597420 0.500000 0.946778
Cu2   Cu    Cu3+1 0.500000 0.402580 0.500000 0.958773
C5    C     C_R   0.419381 0.484806 0.177654 0.551520
C6    C     C_R   0.555341 0.557905 0.821426 0.549522
O9    O     O_2   0.346123 0.460819 0.202925 -0.541681
O10   O     O_2   0.616138 0.608690 0.796128 -0.544406
N1    N     N_R   0.496434 0.505037 0.201315 -0.462717
N2    N     N_R   0.493949 0.502806 0.797747 -0.463467
C7    C     C_R   0.572235 0.528681 0.176907 0.557333
C8    C     C_R   0.430873 0.450948 0.822116 0.561046
C9    C     C_R   0.545217 0.431144 0.277295 -0.137668
C10   C     C_R   0.426858 0.546879 0.720456 -0.140419
C11   C     C_R   0.547095 0.429245 0.327813 0.088534
C12   C     C_R   0.427332 0.546821 0.669997 0.077132
C13   C     C_R   0.450909 0.573221 0.329395 0.074391
C14   C     C_R   0.565433 0.452660 0.670892 0.080909
C15   C     C_R   0.450558 0.573946 0.279047 -0.163875
C16   C     C_R   0.563426 0.453528 0.721381 -0.135959
C17   C     C_R   0.497312 0.503200 0.253000 0.296887
C18   C     C_R   0.494728 0.500883 0.746072 0.291185
C19   C     C_R   0.492948 0.512941 0.101189 -0.100394
C20   C     C_R   0.490251 0.511007 0.897880 -0.100105
C21   C     C_R   0.416169 0.488345 0.127255 -0.071306
C22   C     C_R   0.554945 0.562676 0.871847 -0.069894
C23   C     C_R   0.336921 0.471146 0.102741 -0.122348
C24   C     C_R   0.615736 0.621188 0.896421 -0.122088
C25   C     C_R   0.572591 0.532932 0.126041 -0.013167
C26   C     C_R   0.427197 0.453851 0.872981 -0.014979
C27   C     C_R   0.499194 0.500554 0.354235 -0.054130
C28   C     C_R   0.497419 0.500228 0.645153 -0.055320
H1    H     H_    0.413589 0.629699 0.260047 0.148830
H2    H     H_    0.615353 0.417822 0.741701 0.144246
H3    H     H_    0.275995 0.459042 0.122569 0.197059
H4    H     H_    0.661731 0.666730 0.876645 0.197490
C29   C     C_R   0.418928 0.472404 0.974823 0.027168
C30   C     C_R   0.564501 0.551021 0.024245 0.027196
C31   C     C_R   0.557899 0.565327 0.973701 0.013806
C32   C     C_R   0.412594 0.487089 0.025405 0.014105
C33   C     C_R   0.488921 0.516474 0.948865 0.050074
C34   C     C_R   0.489915 0.517247 0.050216 0.049852
C35   C     C_R   0.361189 0.409926 0.949884 -0.283675
C36   C     C_R   0.644749 0.563034 0.049118 -0.284152
C37   C     C_R   0.364003 0.400705 0.899782 0.181398
C38   C     C_R   0.649562 0.555159 0.099201 0.180838
O11   O     O_2   0.372313 0.397034 0.796962 -0.500656
O12   O     O_2   0.646223 0.549318 0.202040 -0.505300
C39   C     C_R   0.333379 0.472291 0.052590 0.131737
C40   C     C_R   0.617055 0.625065 0.946579 0.130839
H5    H     H_    0.373782 0.582750 0.740060 0.142053
H6    H     H_    0.581474 0.376980 0.256613 0.143447
H7    H     H_    0.315459 0.363793 0.969048 0.149754
H8    H     H_    0.705966 0.574404 0.029905 0.149831
C41   C     C_R   0.814526 0.414160 0.512089 -0.234862
C42   C     C_R   0.185600 0.587095 0.492691 -0.229977
C43   C     C_R   0.768263 0.499907 0.501348 -0.089229
C44   C     C_R   0.231918 0.500642 0.501694 -0.080916
C45   C     C_R   0.814204 0.586266 0.492191 -0.200368
C46   C     C_R   0.186148 0.414885 0.512266 -0.193459
C47   C     C_R   0.906719 0.587983 0.492965 0.079552
C48   C     C_R   0.093602 0.414079 0.513481 0.078844
C49   C     C_R   0.953605 0.500866 0.503323 -0.020592
C50   C     C_R   0.046633 0.501289 0.503403 -0.021410
C51   C     C_R   0.907289 0.413346 0.513492 0.052536
C52   C     C_R   0.092923 0.588790 0.493208 0.051700
C53   C     C_R   0.952743 0.675215 0.483509 0.148075
C54   C     C_R   0.047659 0.327682 0.524612 0.150709
C55   C     C_R   0.045632 0.675893 0.483619 0.096890
C56   C     C_R   0.954738 0.327170 0.524895 0.095156
H9    H     H_    0.777393 0.348479 0.519586 0.157971
H10   H     H_    0.222651 0.652608 0.484742 0.157062
H11   H     H_    0.777317 0.652099 0.484001 0.181118
H12   H     H_    0.223204 0.348810 0.519792 0.179499
C57   C     C_R   0.447846 0.793111 0.531716 0.019839
C58   C     C_R   0.552792 0.206961 0.468577 0.031604
C59   C     C_R   0.551030 0.792353 0.467768 0.033209
C60   C     C_R   0.445811 0.207662 0.530679 0.033256
N3    N     N_R   0.500000 0.743810 0.500000 -0.191298
N4    N     N_R   0.500000 0.256190 0.500000 -0.195250
C61   C     C_R   0.550832 0.895861 0.465460 -0.047769
C62   C     C_R   0.442071 0.104154 0.531058 -0.044876
C63   C     C_R   0.445974 0.896724 0.533120 -0.035218
C64   C     C_R   0.554799 0.103324 0.467198 -0.037371
C65   C     C_R   0.498412 0.948310 0.499250 0.002528
C66   C     C_R   0.498483 0.051732 0.499191 0.001521
C67   C     C_R   0.602160 0.947224 0.430702 0.121272
C68   C     C_R   0.384429 0.052743 0.562751 0.123015
C69   C     C_R   0.392184 0.949028 0.566818 0.132541
C70   C     C_R   0.610080 0.051015 0.434196 0.134401
H13   H     H_    0.407628 0.749768 0.555462 0.138747
H14   H     H_    0.592471 0.250461 0.444581 0.162657
H15   H     H_    0.592564 0.748492 0.444610 0.144277
H16   H     H_    0.406985 0.251557 0.555168 0.146041
N5    N     N_3   0.400465 0.645215 0.355194 -0.571594
H17   H     H_    0.334351 0.639772 0.344401 0.224667
H18   H     H_    0.423548 0.714174 0.345199 0.217315
N6    N     N_3   0.636522 0.404714 0.645521 -0.570903
H19   H     H_    0.679074 0.369889 0.669713 0.220661
H20   H     H_    0.673825 0.458669 0.628348 0.210863
N7    N     N_3   0.904771 0.763619 0.473702 -0.615326
H21   H     H_    0.922609 0.816002 0.499331 0.245307
H22   H     H_    0.923678 0.788948 0.439707 0.243594
N8    N     N_3   0.095794 0.239936 0.535645 -0.616725
H23   H     H_    0.077768 0.217118 0.570212 0.242625
H24   H     H_    0.077275 0.185765 0.511085 0.241787
N9    N     N_3   0.090207 0.766200 0.473793 -0.610379
H25   H     H_    0.129847 0.757271 0.443153 0.223455
H26   H     H_    0.130148 0.783991 0.503225 0.217741
N10   N     N_3   0.910356 0.238018 0.537076 -0.609669
H27   H     H_    0.869370 0.250597 0.566879 0.226472
H28   H     H_    0.871873 0.216214 0.507816 0.223903
C71   C     C_3   0.643514 0.891646 0.388480 -0.419516
C72   C     C_3   0.737637 0.857553 0.399773 -0.811994
H29   H     H_    0.781650 0.920630 0.406811 0.258765
H30   H     H_    0.737881 0.809490 0.431868 0.255140
H31   H     H_    0.764610 0.815826 0.368675 0.247115
H32   H     H_    0.602459 0.827983 0.378126 0.192116
H33   H     H_    0.642331 0.935266 0.354942 0.194989
C73   C     C_3   0.311651 0.108088 0.589791 -0.432729
C74   C     C_3   0.342971 0.143712 0.639084 -0.780197
H34   H     H_    0.361223 0.081318 0.662441 0.256398
H35   H     H_    0.401388 0.192142 0.635354 0.253173
H36   H     H_    0.288865 0.185438 0.656924 0.250620
H37   H     H_    0.287178 0.170934 0.568449 0.199913
H38   H     H_    0.250778 0.063676 0.593445 0.196386
C75   C     C_3   0.347546 0.894377 0.608353 -0.430328
C76   C     C_3   0.415828 0.860550 0.645436 -0.817329
H39   H     H_    0.465956 0.811004 0.629232 0.251192
H40   H     H_    0.450522 0.924604 0.661013 0.262690
H41   H     H_    0.381824 0.820996 0.675019 0.239681
H42   H     H_    0.298856 0.938481 0.628588 0.220997
H43   H     H_    0.308344 0.831875 0.594677 0.179785
C77   C     C_3   0.679011 0.106059 0.404218 -0.410301
C78   C     C_3   0.755212 0.142649 0.435568 -0.848264
H44   H     H_    0.731686 0.192940 0.464203 0.242329
H45   H     H_    0.789447 0.079946 0.452771 0.258750
H46   H     H_    0.803782 0.182394 0.412856 0.245554
H47   H     H_    0.710222 0.061878 0.375596 0.217799
H48   H     H_    0.647470 0.167247 0.384602 0.196517
N11   N     N_3   0.355262 0.590216 0.643830 -0.594309
H49   H     H_    0.304742 0.611881 0.667415 0.222217
H50   H     H_    0.378964 0.653841 0.627813 0.224568
N12   N     N_3   0.598997 0.356659 0.352314 -0.587905
H51   H     H_    0.627279 0.307892 0.327612 0.211207
H52   H     H_    0.651584 0.392510 0.369162 0.212372
N13   N     N_3   0.302401 0.336386 0.876762 -0.511066
H53   H     H_    0.311581 0.266281 0.890750 0.217352
H54   H     H_    0.238282 0.359325 0.885702 0.217071
N14   N     N_3   0.733545 0.569099 0.122152 -0.510673
H55   H     H_    0.756512 0.638773 0.113345 0.219136
H56   H     H_    0.778222 0.518008 0.107990 0.216633
N15   N     N_3   0.246529 0.473898 0.031595 -0.599813
H57   H     H_    0.223904 0.402421 0.027283 0.214842
H58   H     H_    0.246030 0.511667 0.998957 0.237329
N16   N     N_3   0.669050 0.701592 0.967690 -0.597798
H59   H     H_    0.734292 0.677489 0.971888 0.215065
H60   H     H_    0.642123 0.725271 0.000406 0.238045

loop_
_geom_bond_atom_site_label_1
_geom_bond_atom_site_label_2
_geom_bond_distance
_ccdc_geom_bond_type
C59   H15   1.077562 S    
C42   C44   1.396771 A    
C75   H42   1.101911 S    
C56   N10   1.435402 S    
C10   H5    1.083288 S    
C59   C61   1.419425 A    
C13   C15   1.398118 A    
C49   C50   1.404276 A    
N5    H17   1.045630 S    
C65   C66   1.416653 A    
C52   C55   1.414688 A    
C74   H36   1.110241 S    
N1    C17   1.435549 S    
C67   C70   1.430164 A    
C8    O11   1.348876 S    
N8    H23   1.045786 S    
C76   H39   1.108651 S    
C62   C68   1.424848 A    
C71   C72   1.527767 S    
C54   N8    1.436655 S    
C19   C34   1.417620 A    
C30   C36   1.405917 A    
N5    H18   1.045701 S    
C20   C33   1.417629 A    
C19   C25   1.414946 A    
C31   C40   1.427593 A    
C50   C52   1.417996 A    
O1    C1    1.290620 A    
C32   C39   1.427605 A    
C12   N11   1.437767 S    
N15   H58   1.044704 S    
C10   C12   1.401116 A    
C30   C34   1.414975 A    
N9    H26   1.045655 S    
C54   C56   1.402683 A    
C13   N5    1.433337 S    
C62   C66   1.418702 A    
N6    H19   1.045651 S    
C53   N7    1.436012 S    
C14   C28   1.411211 A    
C45   C47   1.396990 A    
O7    Cu1   1.948128 S    
Cu2   N4    2.005209 S    
C77   H48   1.107703 S    
C58   C64   1.420238 A    
C60   H16   1.077518 S    
C57   C63   1.419900 A    
C9    H6    1.083270 S    
C60   C62   1.419192 A    
C31   C33   1.418979 A    
C32   C34   1.418973 A    
N11   H49   1.045660 S    
C64   C70   1.427744 A    
C46   H12   1.083590 S    
C51   C56   1.415783 A    
C63   C69   1.427263 A    
N12   H52   1.045681 S    
O3    Cu1   1.968716 S    
C6    N2    1.365982 A    
C29   C35   1.405895 A    
Cu1   N3    2.005209 S    
O3    C2    1.290979 A    
C53   C55   1.402204 A    
C75   H43   1.109103 S    
C42   C52   1.399101 A    
C63   C65   1.418845 A    
Cu1   Cu2   2.668862 S    
C15   H1    1.083481 S    
N11   H50   1.043240 S    
N16   H60   1.044704 S    
C49   C51   1.418273 A    
C16   H2    1.083207 S    
O2    C2    1.291569 A    
C1    C44   1.459402 S    
C5    C21   1.401379 A    
C78   H45   1.110642 S    
N10   H28   1.043670 S    
C78   H44   1.107778 S    
C29   C32   1.421316 A    
C35   C37   1.397171 A    
C36   C38   1.397201 A    
C4    C28   1.464874 S    
C48   C50   1.416149 A    
C58   N4    1.356863 A    
C11   C27   1.415778 A    
C47   C49   1.416039 A    
C57   N3    1.357006 A    
O4    C1    1.291002 A    
C29   C33   1.414984 A    
C41   C43   1.397832 A    
C40   N16   1.436329 S    
N13   H53   1.045701 S    
C43   C45   1.396599 A    
C9    C17   1.397747 A    
C5    N1    1.366209 A    
C10   C18   1.398086 A    
C77   H47   1.101686 S    
C45   H11   1.083286 S    
C42   H10   1.081751 S    
C13   C27   1.413995 A    
O5    C3    1.292267 A    
C25   C38   1.413057 A    
C7    C25   1.413793 A    
C37   N13   1.433514 S    
O6    C4    1.290208 A    
C26   C37   1.413096 A    
C8    C26   1.413783 A    
C68   C73   1.527381 S    
N7    H22   1.045784 S    
C6    O10   1.349968 S    
C61   C67   1.424594 A    
C64   C66   1.419151 A    
N12   H51   1.045627 S    
C23   C39   1.393864 A    
C76   H40   1.110577 S    
C72   H31   1.110112 S    
C24   C40   1.393869 A    
C44   C46   1.396047 A    
C2    C43   1.461238 S    
C73   H37   1.109255 S    
C60   N4    1.356115 A    
C59   N3    1.356052 A    
C70   C77   1.532080 S    
N16   H59   1.044629 S    
C20   C26   1.415055 A    
O1    Cu1   1.969994 S    
C23   H3    1.083998 S    
C74   H34   1.108705 S    
C58   H14   1.076925 S    
C47   C53   1.408907 A    
C78   H46   1.110536 S    
C57   H13   1.075998 S    
N10   H27   1.045546 S    
C12   C28   1.411456 A    
C72   H30   1.109304 S    
N2    C18   1.435091 S    
C5    O9    1.349969 S    
C30   C31   1.421306 A    
O6    Cu2   1.947113 S    
N7    H21   1.045707 S    
C21   C23   1.398279 A    
C11   N12   1.437561 S    
C15   C17   1.396368 A    
C73   H38   1.108134 S    
N2    C8    1.368234 A    
C77   C78   1.529349 S    
C74   H35   1.109884 S    
C76   H41   1.110594 S    
N8    H24   1.045778 S    
C75   C76   1.530531 S    
C41   C51   1.400900 A    
C38   N14   1.433519 S    
N14   H55   1.045734 S    
C14   C16   1.402248 A    
C73   C74   1.528636 S    
C7    O12   1.348867 S    
C67   C71   1.527246 S    
N9    H25   1.045534 S    
C6    C22   1.401443 A    
C16   C18   1.398562 A    
C35   H7    1.077652 S    
C71   H32   1.109160 S    
C36   H8    1.077669 S    
C14   N6    1.438202 S    
C55   N9    1.436373 S    
C22   C24   1.398304 A    
C19   C21   1.407015 A    
N6    H20   1.045705 S    
C3    C27   1.475720 S    
C20   C22   1.407151 A    
C9    C11   1.403429 A    
O4    Cu2   1.968717 S    
O2    Cu2   1.969993 S    
O7    C4    1.291114 A    
C24   H4    1.083988 S    
N15   H57   1.044632 S    
C39   N15   1.436336 S    
O8    C3    1.294921 A    
C61   C65   1.418366 A    
O8    Cu2   1.948134 S    
O5    Cu1   1.947119 S    
N13   H54   1.045735 S    
C68   C69   1.429884 A    
C48   C54   1.408097 A    
C41   H9    1.081821 S    
C69   C75   1.532231 S    
C46   C48   1.397360 A    
C71   H33   1.107844 S    
N14   H56   1.045704 S    
C72   H29   1.108830 S    
N1    C7    1.368424 A    
