data_mof_unit_41240.cif
_audit_creation_date              2012-12-10T17:35:33-0500
_audit_creation_method            fapswitch 2.2
_symmetry_space_group_name_H-M    P1
_symmetry_Int_Tables_number       1
_space_group_crystal_system       triclinic
_cell_length_a                    10.722341
_cell_length_b                    12.395616
_cell_length_c                    13.2295
_cell_angle_alpha                 117.008658
_cell_angle_beta                  76.105659
_cell_angle_gamma                 101.368091
_cell_volume                      1512.82472415

loop_
_atom_site_label
_atom_site_type_symbol
_atom_type_description
_atom_site_fract_x
_atom_site_fract_y
_atom_site_fract_z
_atom_type_partial_charge
C1    C     C_R   0.504201 0.855418 0.287631 0.861151
C2    C     C_3   0.121401 0.007719 0.508852 0.046425
C3    C     C_3   0.036218 0.973200 0.604712 -0.431528
C4    C     C_3   0.084673 0.917180 0.389819 -0.401329
C5    C     C_R   0.349195 0.271119 0.029184 -0.160436
C6    C     C_R   0.460261 0.227995 0.835756 -0.054050
C7    C     C_R   0.560975 0.816515 0.083087 -0.211748
C8    C     C_R   0.580737 0.738108 0.967093 -0.147357
C9    C     C_R   0.544815 0.614287 0.931627 -0.149455
C10   C     C_R   0.481155 0.566362 0.011871 0.007532
C11   C     C_R   0.442603 0.649051 0.128596 -0.017346
C12   C     C_R   0.738785 0.003262 0.505035 0.819281
C13   C     C_R   0.453088 0.439133 0.979164 0.061129
C14   C     C_R   0.377948 0.396473 0.059724 0.099840
C15   C     C_R   0.325761 0.478219 0.168256 -0.354221
C16   C     C_R   0.351128 0.605214 0.203271 0.500339
C17   C     C_R   0.497927 0.352235 0.868483 -0.235939
C18   C     C_R   0.388978 0.187224 0.917313 -0.205549
C19   C     C_R   0.496914 0.773425 0.165482 -0.107669
C20   C     C_R   0.746730 0.371590 0.382861 0.427965
C21   C     C_R   0.315269 0.754193 0.636845 0.046628
C22   C     C_R   0.272240 0.655659 0.664253 -0.273775
C23   C     C_R   0.482786 0.145014 0.713461 0.759934
C24   C     C_R   0.343419 0.555814 0.615285 -0.159003
C25   C     C_R   0.460505 0.553302 0.538544 -0.056995
C26   C     C_R   0.501769 0.655759 0.510741 0.170184
C27   C     C_R   0.538012 0.452329 0.487902 -0.101402
C28   C     C_R   0.665585 0.465786 0.430718 -0.047398
C29   C     C_R   0.708861 0.570108 0.415139 -0.284640
C30   C     C_R   0.621961 0.649204 0.431639 0.532261
C31   C     C_R   0.496093 0.338373 0.491838 0.014669
C32   C     C_R   0.695785 0.259930 0.382999 0.006086
C33   C     C_R   0.259725 0.003701 0.505093 0.807613
C34   C     C_3   0.952549 0.134126 0.526271 0.304666
C35   C     C_3   0.093811 0.137803 0.536369 -0.462247
C36   C     C_3   0.891193 0.966178 0.602829 0.391597
C37   C     C_3   0.939883 0.912633 0.390814 -0.448746
C38   C     C_3   0.876152 0.005823 0.509294 -0.023678
Cu1   Cu    Cu3+1 0.529690 0.098270 0.475420 0.940300
Cu2   Cu    Cu3+1 0.470310 0.901730 0.524580 0.989972
H1    H     H_    0.106350 0.824578 0.366828 0.230403
H2    H     H_    0.058642 0.884479 0.593989 0.194413
H3    H     H_    0.291385 0.238058 0.090716 0.131708
H4    H     H_    0.560805 0.378552 0.804925 0.155266
H5    H     H_    0.599811 0.910892 0.108428 0.156738
H6    H     H_    0.629441 0.772810 0.904399 0.128676
H7    H     H_    0.959905 0.138519 0.442731 0.120340
H8    H     H_    0.807421 0.582002 0.373776 0.209307
H9    H     H_    0.306809 0.483116 0.641434 0.137154
H10   H     H_    0.183199 0.656839 0.724193 0.145229
H11   H     H_    0.158435 0.170781 0.474326 0.164543
H12   H     H_    0.115092 0.203337 0.623018 0.174157
H13   H     H_    0.843867 0.029378 0.688481 0.038593
H14   H     H_    0.893481 0.818806 0.372480 0.253634
H15   H     H_    0.142766 0.944705 0.321837 0.171151
N1    N     N_R   0.574690 0.246280 0.438200 -0.214869
N2    N     N_R   0.426100 0.754320 0.561190 -0.186378
O1    O     O_R   0.537340 0.972510 0.318130 -0.602980
O2    O     O_R   0.487200 0.806530 0.359650 -0.476434
O3    O     O_R   0.707380 0.082980 0.479220 -0.581902
O4    O     O_R   0.657240 0.917000 0.520740 -0.496964
O5    O     O_R   0.512800 0.193470 0.640350 -0.573013
O6    O     O_R   0.462660 0.027490 0.681870 -0.604645
O7    O     O_R   0.342760 0.083000 0.479260 -0.599330
O8    O     O_R   0.292620 0.917020 0.520780 -0.584612
O9    O     O_3   0.892310 0.240902 0.607356 -0.574090
C39   C     C_3   0.857880 0.251512 0.720904 -0.303675
H16   H     H_    0.932531 0.225602 0.748698 0.138957
H17   H     H_    0.762668 0.199744 0.731770 0.142491
H18   H     H_    0.845706 0.348434 0.779769 0.186119
O10   O     O_3   0.835000 0.844366 0.576076 -0.552871
C40   C     C_3   0.785040 0.827231 0.677327 -0.351896
H19   H     H_    0.698366 0.877151 0.725462 0.170736
H20   H     H_    0.858990 0.855840 0.733432 0.144252
H21   H     H_    0.754685 0.728988 0.652873 0.188223
H22   H     H_    0.359470 0.091294 0.893656 0.148805
H23   H     H_    0.261856 0.440069 0.223235 0.141853
H24   H     H_    0.565795 0.559072 0.840210 0.128323
O11   O     O_3   0.281198 0.689320 0.302279 -0.583045
C41   C     C_3   0.197808 0.639219 0.374083 -0.311666
H25   H     H_    0.250805 0.590569 0.400796 0.165780
H26   H     H_    0.115548 0.580987 0.331687 0.176452
H27   H     H_    0.155832 0.713271 0.454182 0.191489
H28   H     H_    0.755361 0.185387 0.344070 0.134441
O12   O     O_3   0.872060 0.384977 0.327868 -0.601087
C42   C     C_3   0.957306 0.399272 0.400460 -0.366278
H29   H     H_    0.951460 0.489055 0.476767 0.178373
H30   H     H_    0.057303 0.395745 0.351786 0.174026
H31   H     H_    0.939350 0.324784 0.428636 0.185402
H32   H     H_    0.402167 0.321152 0.537216 0.128210
H33   H     H_    0.258803 0.830933 0.675475 0.117883
O13   O     O_3   0.657524 0.716405 0.368190 -0.535753
C43   C     C_3   0.691801 0.641424 0.248735 -0.361159
H34   H     H_    0.618841 0.561601 0.217563 0.167691
H35   H     H_    0.789592 0.611691 0.227306 0.158686
H36   H     H_    0.697834 0.695712 0.200231 0.177507
H37   H     H_    0.058329 0.041658 0.690477 0.106444
H38   H     H_    0.927723 0.932487 0.319854 0.146130

loop_
_geom_bond_atom_site_label_1
_geom_bond_atom_site_label_2
_ccdc_geom_bond_type
C2    C35   S    
C3    H2    S    
C43   H34   S    
C40   H20   S    
C34   O9    S    
C33   O8    A    
C7    C8    A    
O12   C42   S    
Cu1   O7    S    
C11   C19   A    
C37   C38   S    
Cu2   O6    S    
C7    H5    S    
C28   C29   A    
C1    O2    A    
C20   C32   A    
C42   H30   S    
C4    H1    S    
Cu1   O3    S    
C15   C16   A    
C34   C35   S    
C6    C17   A    
C36   H13   S    
C23   O5    A    
C8    C9    A    
C31   N1    A    
C9    C10   A    
C36   O10   S    
C22   H10   S    
C23   O6    A    
O9    C39   S    
C5    H3    S    
C43   H35   S    
Cu2   O2    S    
C21   C22   A    
C41   H27   S    
C6    C18   A    
C37   H38   S    
C32   H28   S    
C1    C19   S    
C29   H8    S    
C27   C31   A    
C39   H16   S    
C24   C25   A    
C30   O13   S    
Cu1   Cu2   S    
C42   H29   S    
C40   H19   S    
C5    C18   A    
C20   C28   A    
C25   C26   A    
Cu1   O1    S    
C10   C13   A    
Cu2   O4    S    
C39   H17   S    
C2    C4    S    
C21   N2    A    
C29   C30   A    
C11   C16   A    
C3    H37   S    
Cu1   N1    S    
C31   H32   S    
C20   O12   S    
C5    C14   A    
C37   H14   S    
C2    C33   S    
C41   H26   S    
C26   C30   A    
C43   H36   S    
C7    C19   A    
Cu2   O8    S    
C4    H15   S    
C35   H11   S    
C22   C24   A    
C35   H12   S    
C21   H33   S    
C24   H9    S    
Cu1   O5    S    
C18   H22   S    
Cu2   N2    S    
C34   C38   S    
C41   H25   S    
C42   H31   S    
C25   C27   A    
C13   C17   A    
C16   O11   S    
C39   H18   S    
C36   C38   S    
C2    C3    S    
C17   H4    S    
O10   C40   S    
C1    O1    A    
C12   O4    A    
C40   H21   S    
C15   H23   S    
C3    C36   S    
C33   O7    A    
C6    C23   S    
O13   C43   S    
C9    H24   S    
C12   C38   S    
C26   N2    A    
C8    H6    S    
C10   C11   A    
O11   C41   S    
C12   O3    A    
C4    C37   S    
C27   C28   A    
C14   C15   A    
C34   H7    S    
C13   C14   A    
C32   N1    A    
