data_mof_unit_67894.cif
_audit_creation_date              2012-12-10T17:22:56-0500
_audit_creation_method            fapswitch 2.2
_symmetry_space_group_name_H-M    P1
_symmetry_Int_Tables_number       1
_space_group_crystal_system       triclinic
_cell_length_a                    10.130137
_cell_length_b                    10.632156
_cell_length_c                    11.264484
_cell_angle_alpha                 90.314992
_cell_angle_beta                  94.093342
_cell_angle_gamma                 79.638261
_cell_volume                      1190.37991815

loop_
_atom_site_label
_atom_site_type_symbol
_atom_type_description
_atom_site_fract_x
_atom_site_fract_y
_atom_site_fract_z
_atom_type_partial_charge
C1    C     C_R   0.445601 0.509007 0.269515 0.803082
C2    C     C_3   0.509787 0.122087 0.496621 -0.264864
C3    C     C_3   0.612743 0.934290 0.543492 0.652303
C4    C     C_3   0.385280 0.067450 0.453671 0.666049
C5    C     C_2   0.417042 0.503083 0.143080 0.369316
C6    C     C_2   0.581153 0.486465 0.858467 0.378909
C7    C     C_2   0.509521 0.518546 0.064236 -0.154187
C8    C     C_2   0.480004 0.503132 0.934846 -0.143032
C9    C     C_2   0.074869 0.489312 0.492483 0.642591
C10   C     C_2   0.924391 0.513454 0.504921 0.612830
C11   C     C_R   0.417243 0.941113 0.261873 0.159183
C12   C     C_R   0.554099 0.489858 0.730808 0.816120
C13   C     C_R   0.406603 0.039552 0.177089 -0.065846
C14   C     C_R   0.329577 0.035194 0.069612 -0.124272
C15   C     C_R   0.264037 0.932086 0.045854 -0.179537
C16   C     C_R   0.274770 0.833706 0.129181 -0.204397
C17   C     C_R   0.350212 0.838588 0.236828 -0.183105
C18   C     C_R   0.578145 0.069490 0.733415 0.155703
C19   C     C_R   0.555055 0.997257 0.831260 -0.111473
C20   C     C_R   0.614445 0.016992 0.943904 -0.156816
C21   C     C_R   0.699556 0.105966 0.959498 -0.134888
C22   C     C_R   0.728606 0.173383 0.862142 -0.150536
C23   C     C_R   0.501367 0.257351 0.496001 0.909367
C24   C     C_R   0.668752 0.155035 0.749518 -0.178343
C25   C     C_R   0.723369 0.010931 0.360027 0.129369
C26   C     C_R   0.815503 0.894968 0.355256 -0.115823
C27   C     C_R   0.939549 0.891082 0.307271 -0.239902
C28   C     C_R   0.970501 0.001262 0.258407 -0.089126
C29   C     C_R   0.876436 0.114325 0.254937 -0.034290
C30   C     C_R   0.752332 0.119301 0.303985 -0.114423
C31   C     C_R   0.268144 0.983100 0.623146 0.169284
C32   C     C_R   0.234547 0.056980 0.724105 -0.150066
C33   C     C_R   0.109001 0.062026 0.769997 -0.218645
C34   C     C_R   0.498218 0.743098 0.502912 0.923542
C35   C     C_R   0.015706 0.994741 0.715049 -0.118344
C36   C     C_R   0.045276 0.927186 0.611191 0.018404
C37   C     C_R   0.170016 0.922449 0.564481 -0.012862
C38   C     C_R   0.334884 0.515571 0.892921 0.214920
C39   C     C_R   0.277719 0.406392 0.868060 -0.018785
C40   C     C_R   0.138428 0.418637 0.844546 -0.155322
C41   C     C_R   0.055871 0.538970 0.846930 0.024361
C42   C     C_R   0.112850 0.648017 0.868432 -0.029755
C43   C     C_R   0.252257 0.636472 0.888507 -0.099204
C44   C     C_R   0.639760 0.558929 0.102509 0.173807
C45   C     C_3   0.599283 0.016497 0.428783 -0.157388
C46   C     C_R   0.753762 0.466205 0.135623 0.056794
C47   C     C_R   0.880580 0.500469 0.152825 -0.064736
C48   C     C_R   0.894515 0.627366 0.136863 -0.147139
C49   C     C_R   0.781477 0.720335 0.105101 -0.139710
C50   C     C_R   0.654273 0.686383 0.088070 -0.135883
C51   C     C_3   0.398566 0.984498 0.566802 -0.168070
C52   C     C_3   0.473502 0.961448 0.386074 -0.211969
C53   C     C_3   0.524079 0.040320 0.610198 -0.171220
C54   C     C_3   0.488434 0.879113 0.499498 -0.271623
F1    F     F_    0.729444 0.862696 0.596600 -0.644538
F2    F     F_    0.265759 0.139697 0.406088 -0.593761
F3    F     F_    0.713317 0.470688 0.896256 -0.704234
F4    F     F_    0.295930 0.470762 0.109875 -0.674613
F5    F     F_    0.870944 0.607715 0.578414 -0.615486
F6    F     F_    0.127553 0.398565 0.415297 -0.582961
F7    F     F_    0.897872 0.344327 0.390495 -0.595394
F8    F     F_    0.104028 0.651327 0.615712 -0.616031
H1    H     H_    0.453361 0.122078 0.196209 0.130395
H2    H     H_    0.698733 0.203549 0.675152 0.174914
H3    H     H_    0.793630 0.807707 0.391706 0.209100
H4    H     H_    0.012186 0.802914 0.309185 0.147789
H5    H     H_    0.066582 0.999246 0.222056 0.184565
H6    H     H_    0.900330 0.197685 0.213034 0.165185
H7    H     H_    0.679747 0.207105 0.296993 0.159326
H8    H     H_    0.303214 0.113258 0.765914 0.127170
H9    H     H_    0.084315 0.117034 0.848995 0.136243
H10   H     H_    0.920190 0.995563 0.752126 0.183043
H11   H     H_    0.971666 0.877951 0.567014 0.231251
H12   H     H_    0.319565 0.112364 0.005500 0.141050
H13   H     H_    0.188680 0.873510 0.481281 0.146013
H14   H     H_    0.340546 0.312463 0.870638 0.095563
H15   H     H_    0.093961 0.334987 0.826289 0.130333
H16   H     H_    0.948024 0.547955 0.830353 0.213573
H17   H     H_    0.049229 0.741453 0.868125 0.138900
H18   H     H_    0.296616 0.720793 0.902613 0.108577
H19   H     H_    0.743832 0.367110 0.142626 0.096960
H20   H     H_    0.968394 0.428293 0.175872 0.206210
H21   H     H_    0.993200 0.653215 0.147549 0.154346
H22   H     H_    0.793289 0.818182 0.091746 0.147644
H23   H     H_    0.202723 0.928901 0.964157 0.146531
H24   H     H_    0.567716 0.757627 0.059668 0.128794
H25   H     H_    0.220254 0.756019 0.112590 0.166203
H26   H     H_    0.349212 0.765858 0.302145 0.140222
H27   H     H_    0.492545 0.924822 0.820347 0.132988
H28   H     H_    0.596119 0.962374 0.019178 0.134936
H29   H     H_    0.745441 0.120495 0.046302 0.125871
H30   H     H_    0.800587 0.237040 0.873322 0.193384
N1    N     N_2   0.157310 0.552180 0.551120 0.071835
N2    N     N_2   0.842690 0.447820 0.448880 0.079553
O1    O     O_R   0.568940 0.489500 0.307530 -0.675523
O2    O     O_R   0.431060 0.510500 0.692470 -0.656567
O3    O     O_R   0.348880 0.522990 0.340350 -0.558062
O4    O     O_R   0.651120 0.477010 0.659650 -0.550845
O5    O     O_R   0.610000 0.297210 0.483560 -0.636291
O6    O     O_R   0.390000 0.702790 0.516440 -0.643988
O7    O     O_R   0.389940 0.330700 0.516390 -0.539349
O8    O     O_R   0.610060 0.669300 0.483610 -0.555415
Zn1   Zn    Zn3+2 0.646930 0.477640 0.478080 1.063307
Zn2   Zn    Zn3+2 0.353070 0.522360 0.521920 1.070935

loop_
_geom_bond_atom_site_label_1
_geom_bond_atom_site_label_2
_ccdc_geom_bond_type
C23   O5    A    
C9    N1    D    
C17   H26   S    
C3    C53   S    
C41   C42   A    
O5    Zn1   S    
C35   C36   A    
C7    C8    S    
C26   C27   A    
C34   O8    A    
C5    F4    S    
C4    C52   S    
C1    C5    S    
C14   H12   S    
C49   H22   S    
C28   C29   A    
C6    C12   S    
C38   C39   A    
C3    C54   S    
C10   N2    D    
O4    Zn1   S    
C46   H19   S    
O6    Zn2   S    
C18   C19   A    
C47   H20   S    
C11   C52   S    
C18   C53   S    
C3    F1    S    
C11   C17   A    
C31   C32   A    
C44   C46   A    
C16   C17   A    
O1    Zn1   S    
C16   H25   S    
C34   O6    A    
C18   C24   A    
C9    C10   S    
C12   O4    A    
C15   H23   S    
C37   H13   S    
C42   H17   S    
C24   H2    S    
C13   C14   A    
C4    F2    S    
C6    F3    S    
C8    C38   S    
N1    Zn2   S    
C52   C54   S    
C2    C45   S    
C4    C51   S    
C28   H5    S    
C1    O3    A    
C41   H16   S    
C5    C7    D    
C33   H9    S    
F7    N2    S    
C6    C8    D    
C45   C52   S    
C43   H18   S    
C7    C44   S    
C20   H28   S    
C3    C45   S    
C31   C37   A    
C51   C53   S    
C2    C4    S    
C29   C30   A    
C19   H27   S    
C29   H6    S    
C47   C48   A    
C13   H1    S    
C1    O1    A    
C39   H14   S    
C48   C49   A    
N2    Zn1   S    
C34   C54   S    
O7    Zn2   S    
O2    Zn2   S    
C22   C24   A    
C42   C43   A    
C25   C45   S    
C39   C40   A    
C30   H7    S    
C21   H29   S    
C44   C50   A    
C25   C30   A    
C46   C47   A    
C40   C41   A    
C14   C15   A    
C26   H3    S    
C31   C51   S    
C2    C53   S    
C35   H10   S    
C32   H8    S    
C48   H21   S    
C51   C54   S    
C32   C33   A    
C9    F6    S    
C19   C20   A    
C10   F5    S    
C25   C26   A    
C38   C43   A    
C27   H4    S    
C11   C13   A    
C23   O7    A    
C33   C35   A    
O8    Zn1   S    
O3    Zn2   S    
C36   H11   S    
C50   H24   S    
C20   C21   A    
C36   C37   A    
C49   C50   A    
F8    N1    S    
C2    C23   S    
C22   H30   S    
C40   H15   S    
C12   O2    A    
C21   C22   A    
C15   C16   A    
C27   C28   A    
