data_mof_unit_34734.cif
_audit_creation_date              2013-03-05T16:45:32-0500
_audit_creation_method            fapswitch 2.2
_symmetry_space_group_name_H-M    P1
_symmetry_Int_Tables_number       1
_space_group_crystal_system       triclinic
_cell_length_a                    15.806875
_cell_length_b                    10.67106
_cell_length_c                    9.911712
_cell_angle_alpha                 90.273685
_cell_angle_beta                  90.462657
_cell_angle_gamma                 89.824801
_cell_volume                      1671.78783974

loop_
_atom_site_label
_atom_site_type_symbol
_atom_site_description
_atom_site_fract_x
_atom_site_fract_y
_atom_site_fract_z
_atom_type_partial_charge
O1    O     O_R   0.500010 0.316790 0.614690 -0.624433
O2    O     O_R   0.500000 0.316760 0.385350 -0.587186
C1    C     C_R   0.502574 0.260126 0.499875 0.900810
O3    O     O_R   0.378030 0.499990 0.614640 -0.595882
O4    O     O_R   0.378020 0.499950 0.385300 -0.537534
C2    C     C_R   0.339485 0.498978 0.499864 0.935143
Zn1   Zn    Zn3+2 0.500010 0.500020 0.653130 0.947119
Zn2   Zn    Zn3+2 0.499990 0.499980 0.346870 1.004727
O5    O     O_R   0.500000 0.683240 0.614650 -0.643390
O6    O     O_R   0.499990 0.683210 0.385310 -0.620401
O7    O     O_R   0.621980 0.500050 0.614700 -0.614443
O8    O     O_R   0.621970 0.500010 0.385360 -0.625211
C3    C     C_R   0.502618 0.739895 0.500225 0.863473
C4    C     C_R   0.660588 0.499989 0.500534 0.887043
H1    H     H_    0.077667 0.293750 0.523612 0.150555
C5    C     C_R   0.956098 0.382925 0.515646 -0.183851
H2    H     H_    0.921847 0.295425 0.523010 0.141987
C6    C     C_R   0.913183 0.497057 0.505088 0.171855
C7    C     C_R   0.956679 0.610240 0.495480 -0.181130
H3    H     H_    0.922914 0.698454 0.487175 0.140649
C8    C     C_R   0.044355 0.609273 0.496048 -0.194431
H4    H     H_    0.078608 0.696726 0.487941 0.143749
C9    C     C_R   0.087253 0.495159 0.506141 0.169679
C10   C     C_R   0.043833 0.381964 0.516097 -0.166825
C11   C     C_1   0.824195 0.498088 0.503364 -0.076566
C12   C     C_1   0.176132 0.494560 0.504070 -0.074192
C13   C     C_1   0.251060 0.496021 0.501163 -0.124380
C14   C     C_1   0.749177 0.499071 0.501874 -0.176744
C15   C     C_R   0.513094 0.064601 0.622709 0.116093
C16   C     C_R   0.515740 0.128620 0.500771 -0.096923
C17   C     C_R   0.534227 0.064124 0.380975 -0.184422
H5    H     H_    0.542768 0.112707 0.286349 0.178931
C18   C     C_R   0.534444 0.934518 0.381250 -0.219457
H6    H     H_    0.543197 0.884900 0.286745 0.170160
C19   C     C_R   0.515989 0.871350 0.501269 -0.093501
C20   C     C_R   0.513130 0.936750 0.622908 0.126722
C21   C     C_3   0.449413 0.930793 0.733192 -0.493596
C22   C     C_3   0.449798 0.072734 0.733754 -0.435101
H7    H     H_    0.388416 0.890507 0.697744 0.206304
H8    H     H_    0.475947 0.889201 0.827117 0.201360
H9    H     H_    0.388610 0.114734 0.700651 0.208886
H10   H     H_    0.477287 0.113675 0.827633 0.207119
C23   C     C_R   0.445574 0.424573 0.069240 0.068609
N1    N     N_R   0.499440 0.499140 0.142800 -0.088922
C24   C     C_R   0.558803 0.565282 0.072983 -0.114654
H11   H     H_    0.605071 0.620499 0.127754 0.141723
C25   C     C_R   0.559037 0.564821 0.929245 -0.134450
H12   H     H_    0.605544 0.619581 0.876222 0.149179
N2    N     N_R   0.499440 0.499180 0.857150 -0.103933
C26   C     C_R   0.444971 0.427197 0.928027 -0.045877
C27   C     C_3   0.350370 0.418921 0.919293 0.158416
C28   C     C_3   0.350260 0.413091 0.075404 0.549475
H13   H     H_    0.332399 0.329100 0.869956 0.138985
O9    O     O_3   0.303131 0.519652 0.860518 -0.583293
C29   C     C_3   0.336874 0.641683 0.877261 0.193712
H14   H     H_    0.390638 0.656709 0.808719 0.182978
H15   H     H_    0.358222 0.661746 0.981793 0.171811
C30   C     C_3   0.268906 0.736394 0.837867 -0.863810
H16   H     H_    0.207759 0.712623 0.885241 0.269861
H17   H     H_    0.287921 0.831870 0.870868 0.223742
H18   H     H_    0.259664 0.735589 0.726616 0.243649
O10   O     O_3   0.312144 0.516489 0.142043 -0.611424
C31   C     C_3   0.223021 0.505189 0.144522 0.184295
H19   H     H_    0.204242 0.432421 0.218229 0.179866
H20   H     H_    0.196172 0.480339 0.043844 0.178203
C32   C     C_3   0.184624 0.629623 0.188927 -0.853208
H21   H     H_    0.199329 0.703991 0.115331 0.261129
H22   H     H_    0.114888 0.620497 0.196977 0.216805
H23   H     H_    0.210944 0.658663 0.288224 0.258949
N3    N     N_R   0.325312 0.290857 0.130264 0.146208
O11   O     O_R   0.272477 0.219213 0.064706 -0.454849
O12   O     O_R   0.346876 0.260845 0.252781 -0.385943

loop_
_geom_bond_atom_site_label_1
_geom_bond_atom_site_label_2
_geom_bond_distance
_ccdc_geom_bond_type
C15   C22   1.495432 S    
O4    Zn2   1.968247 S    
C32   H22   1.110437 S    
C23   N1    1.370513 A    
C17   C18   1.383046 A    
C23   C26   1.400028 A    
C3    C19   1.419216 S    
C21   C22   1.514673 S    
C1    C16   1.418088 S    
C27   H13   1.110616 S    
C17   H5    1.083411 S    
C18   H6    1.083428 S    
Zn2   O8    1.962479 S    
C27   O9    1.430520 S    
C4    C14   1.400284 S    
C7    H3    1.083836 S    
C31   H20   1.112447 S    
O2    C1    1.288833 A    
C31   C32   1.522837 S    
C5    C10   1.386781 A    
C28   O10   1.418480 S    
C8    H4    1.083970 S    
C11   C14   1.185780 T    
Zn1   O7    1.968247 S    
C15   C20   1.364312 A    
C12   C13   1.185106 T    
C15   C16   1.392155 A    
C6    C11   1.406598 S    
C20   C21   1.494046 S    
C30   H18   1.111150 S    
O3    Zn1   1.962479 S    
O4    C2    1.293001 A    
C5    C6    1.396223 A    
H1    C10   1.083809 S    
C7    C8    1.385868 A    
O8    C4    1.290179 A    
C22   H10   1.111865 S    
C21   H8    1.111798 S    
Zn1   O5    1.993793 S    
C29   H15   1.107182 S    
C8    C9    1.395593 A    
C16   C17   1.401961 A    
C18   C19   1.403233 A    
O7    C4    1.289980 A    
C23   C28   1.513705 S    
C29   C30   1.522662 S    
C32   H23   1.108622 S    
C28   N3    1.471708 S    
C9    C10   1.395401 A    
C30   H17   1.110165 S    
C27   C28   1.548894 S    
C25   H12   1.081605 S    
Zn2   N1    2.022609 S    
C21   H7    1.110632 S    
N3    O11   1.301772 A    
C32   H21   1.106939 S    
N1    C24   1.369936 A    
Zn1   N2    2.022343 S    
C22   H9    1.112476 S    
C25   N2    1.370077 A    
N2    C26   1.357872 A    
C24   C25   1.424705 A    
C9    C12   1.405211 S    
O5    C3    1.288785 A    
O9    C29   1.417220 S    
C6    C7    1.395617 A    
O1    Zn1   1.990246 S    
N3    O12   1.299916 A    
C29   H14   1.104851 S    
C26   C27   1.500005 S    
C30   H16   1.108596 S    
C24   H11   1.081642 S    
O3    C2    1.286180 A    
O6    C3    1.287538 A    
Zn2   O6    1.990247 S    
O2    Zn2   1.993791 S    
O10   C31   1.414702 S    
C2    C13   1.398348 S    
C5    H2    1.083815 S    
C31   H19   1.111361 S    
O1    C1    1.286992 A    
C19   C20   1.391155 A    
