data_mof_unit_56900.cif
_audit_creation_date              2013-03-05T15:52:29-0500
_audit_creation_method            fapswitch 2.2
_symmetry_space_group_name_H-M    P1
_symmetry_Int_Tables_number       1
_space_group_crystal_system       triclinic
_cell_length_a                    27.785708
_cell_length_b                    10.858076
_cell_length_c                    9.57331
_cell_angle_alpha                 90.894618
_cell_angle_beta                  90.270892
_cell_angle_gamma                 92.83996
_cell_volume                      2884.31850958

loop_
_atom_site_label
_atom_site_type_symbol
_atom_site_description
_atom_site_fract_x
_atom_site_fract_y
_atom_site_fract_z
_atom_type_partial_charge
O1    O     O_R   0.500000 0.319640 0.618810 -0.598894
O2    O     O_R   0.500000 0.319660 0.381240 -0.562533
C1    C     C_R   0.503929 0.263272 0.499616 0.815659
O3    O     O_R   0.430260 0.500010 0.618770 -0.546699
O4    O     O_R   0.430270 0.500030 0.381200 -0.591878
C2    C     C_R   0.407511 0.500897 0.499682 0.856626
Cu1   Cu    Cu3+1 0.500000 0.499990 0.640660 0.957843
Cu2   Cu    Cu3+1 0.500000 0.500010 0.359340 0.978704
O5    O     O_R   0.500000 0.680340 0.618760 -0.618630
O6    O     O_R   0.500000 0.680360 0.381190 -0.602806
O7    O     O_R   0.569730 0.499970 0.618800 -0.587847
O8    O     O_R   0.569740 0.499990 0.381230 -0.572131
C3    C     C_R   0.497629 0.737787 0.502222 0.758236
C4    C     C_R   0.592269 0.499907 0.500166 0.941502
C5    C     C_R   0.176555 0.409891 0.576010 0.706008
O9    O     O_2   0.201016 0.336935 0.661007 -0.461525
N1    N     N_R   0.201405 0.486245 0.486354 -0.425197
C6    C     C_R   0.177970 0.558984 0.395616 0.566774
C7    C     C_R   0.277932 0.546839 0.605847 0.329029
C8    C     C_R   0.328483 0.551901 0.610064 0.340694
C9    C     C_R   0.329405 0.451340 0.381099 -0.411217
C10   C     C_R   0.278808 0.447539 0.375212 0.472079
C11   C     C_R   0.253222 0.492839 0.489524 0.112442
C12   C     C_R   0.101027 0.481229 0.486212 -0.130960
C13   C     C_R   0.125807 0.407240 0.579496 -0.292112
C14   C     C_R   0.099435 0.336076 0.676399 0.598230
C15   C     C_R   0.127521 0.557244 0.393163 0.031503
C16   C     C_R   0.354473 0.502377 0.497548 -0.251982
H1    H     H_    0.349321 0.410097 0.297101 0.182524
C17   C     C_R   0.644801 0.496066 0.499895 -0.319495
C18   C     C_R   0.972146 0.391821 0.566957 0.088259
C19   C     C_R   0.974880 0.566234 0.404801 0.043928
C20   C     C_R   0.948233 0.479224 0.486511 0.078502
C21   C     C_R   0.943782 0.296844 0.630650 -0.114611
C22   C     C_R   0.893725 0.296513 0.629392 -0.161471
C23   C     C_R   0.869974 0.388839 0.560954 -0.039837
C24   C     C_R   0.897092 0.479176 0.487180 -0.051051
C25   C     C_R   0.872988 0.569284 0.413772 -0.041873
C26   C     C_R   0.822504 0.568881 0.417719 0.635040
N2    N     N_R   0.796886 0.481872 0.492656 -0.421100
C27   C     C_R   0.819491 0.392022 0.562673 0.596911
C28   C     C_R   0.716501 0.392711 0.431139 -0.263276
C29   C     C_R   0.666480 0.397471 0.432642 0.539193
C30   C     C_R   0.673467 0.592048 0.562949 0.234547
C31   C     C_R   0.723848 0.584031 0.565589 0.583493
C32   C     C_R   0.745339 0.485531 0.497722 0.098923
O10   O     O_2   0.793249 0.306971 0.634948 -0.515249
C33   C     C_R   0.023350 0.400086 0.577203 -0.178558
C34   C     C_R   0.049850 0.480162 0.486460 0.010247
C35   C     C_R   0.025708 0.560406 0.396859 0.101742
C36   C     C_R   0.049290 0.334260 0.677402 0.503250
H2    H     H_    0.732989 0.316900 0.378007 0.210841
H3    H     H_    0.873682 0.222697 0.681657 0.199569
H4    H     H_    0.959236 0.218201 0.677314 0.219568
O11   O     O_2   0.203527 0.634255 0.309398 -0.572858
C37   C     C_R   0.103275 0.630580 0.300217 -0.135291
H5    H     H_    0.122818 0.687822 0.225697 0.183239
C38   C     C_R   0.949602 0.656814 0.334208 -0.195615
C39   C     C_R   0.899671 0.658167 0.338890 -0.119038
O12   O     O_2   0.799126 0.654380 0.346620 -0.519673
C40   C     C_R   0.053391 0.632175 0.301693 -0.184039
H6    H     H_    0.967494 0.730461 0.277239 0.148515
H7    H     H_    0.882047 0.729653 0.283271 0.193541
H8    H     H_    0.037465 0.688859 0.224359 0.145417
H9    H     H_    0.491202 0.106863 0.280556 0.203814
C41   C     C_R   0.539364 0.128566 0.745255 -0.333283
H10   H     H_    0.558201 0.217771 0.738104 0.219251
C42   C     C_R   0.537431 0.073967 0.875783 0.574365
C43   C     C_R   0.514268 0.958684 0.889847 0.539628
C44   C     C_R   0.497822 0.892678 0.771492 -0.387076
H11   H     H_    0.478762 0.806070 0.790611 0.219115
C45   C     C_R   0.503641 0.942093 0.635849 0.019094
C46   C     C_R   0.517694 0.068142 0.626842 0.006420
C47   C     C_R   0.508659 0.129808 0.500708 -0.051021
C48   C     C_R   0.497254 0.061787 0.378830 -0.128303
H12   H     H_    0.486274 0.884473 0.284688 0.227633
C49   C     C_R   0.493024 0.934570 0.382032 -0.185198
C50   C     C_R   0.496090 0.872756 0.508861 -0.095569
H13   H     H_    0.444705 0.361751 0.126201 0.124972
C51   C     C_R   0.565162 0.662316 0.147917 -0.096208
H14   H     H_    0.567858 0.671857 0.258124 0.182634
C52   C     C_R   0.597525 0.739881 0.077227 -0.125902
H15   H     H_    0.622467 0.801646 0.134863 0.165359
C53   C     C_R   0.597533 0.739535 0.933344 -0.113185
H16   H     H_    0.622419 0.801332 0.878627 0.182210
C54   C     C_R   0.565055 0.661884 0.859321 -0.112059
H17   H     H_    0.566920 0.671657 0.749487 0.229878
C55   C     C_R   0.532005 0.579662 0.926963 0.183054
C56   C     C_R   0.532020 0.579723 0.076684 0.236921
N3    N     N_R   0.500460 0.501210 0.147910 -0.199313
C57   C     C_R   0.469590 0.424009 0.072200 -0.018034
H18   H     H_    0.444733 0.361788 0.867209 0.140963
C58   C     C_R   0.469602 0.424054 0.924123 -0.007448
N4    N     N_R   0.500480 0.501290 0.852040 -0.209979
O13   O     O_3   0.252675 0.583503 0.722260 -0.553189
C59   C     C_3   0.235147 0.702002 0.702224 0.053663
H19   H     H_    0.227530 0.723060 0.590847 0.147853
H20   H     H_    0.261882 0.772767 0.743778 0.164707
C60   C     C_3   0.188643 0.712552 0.783802 -0.729714
H21   H     H_    0.195116 0.695125 0.896220 0.258012
H22   H     H_    0.175229 0.806580 0.772834 0.220892
H23   H     H_    0.160783 0.644224 0.743057 0.238048
O14   O     O_3   0.651487 0.691838 0.622430 -0.588454
C61   C     C_3   0.666807 0.802443 0.555718 0.117450
H24   H     H_    0.680300 0.787945 0.447170 0.147968
H25   H     H_    0.695833 0.850507 0.619055 0.229627
C62   C     C_3   0.624697 0.886118 0.546230 -0.796877
H26   H     H_    0.609652 0.903113 0.651579 0.244424
H27   H     H_    0.636838 0.975815 0.500857 0.251290
H28   H     H_    0.596283 0.842015 0.477759 0.234424
F1    F     F_    0.751969 0.671644 0.633740 -0.635001
F2    F     F_    0.556273 0.135364 0.989439 -0.616456
O15   O     O_3   0.252889 0.388322 0.267006 -0.556462
C63   C     C_3   0.269999 0.426683 0.135047 0.045130
H29   H     H_    0.301621 0.373676 0.104553 0.142846
H30   H     H_    0.279939 0.527521 0.133601 0.174378
C64   C     C_3   0.230492 0.400032 0.026700 -0.576457
H31   H     H_    0.198964 0.455738 0.050373 0.250511
H32   H     H_    0.244222 0.423761 0.921463 0.258214
H33   H     H_    0.218964 0.300597 0.026734 0.261014
F3    F     F_    0.508487 0.909177 0.018135 -0.675278
F4    F     F_    0.121932 0.270515 0.774895 -0.582162
F5    F     F_    0.639129 0.305393 0.369481 -0.622128
F6    F     F_    0.027303 0.276329 0.786046 -0.633413
O16   O     O_3   0.351664 0.599296 0.728749 -0.538262
C65   C     C_3   0.366673 0.723737 0.706489 0.081571
H34   H     H_    0.339490 0.775295 0.648127 0.105418
H35   H     H_    0.400892 0.728695 0.646944 0.145928
C66   C     C_3   0.375243 0.787977 0.847368 -0.743810
H36   H     H_    0.402542 0.739711 0.908228 0.256870
H37   H     H_    0.388384 0.885030 0.831814 0.202533
H38   H     H_    0.341104 0.787363 0.907283 0.247026

loop_
_geom_bond_atom_site_label_1
_geom_bond_atom_site_label_2
_geom_bond_distance
_ccdc_geom_bond_type
C38   H6    1.077418 S    
C41   C42   1.391549 A    
C58   N4    1.366732 A    
C22   H3    1.083433 S    
C46   C47   1.417219 A    
C7    C8    1.403287 A    
C12   C15   1.409123 A    
C19   C38   1.414933 A    
C61   H25   1.110978 S    
C63   H29   1.111649 S    
Cu1   Cu2   2.693167 S    
C49   C50   1.400750 A    
Cu1   O7    1.949760 S    
C65   H34   1.115233 S    
C23   C24   1.407875 A    
C53   C54   1.388271 A    
C66   H36   1.110939 S    
C64   H32   1.108568 S    
C28   C32   1.399712 A    
O4    C2    1.301376 A    
O7    C4    1.299539 A    
C54   C55   1.414961 A    
C5    C13   1.409497 A    
C5    O9    1.349015 S    
C59   C60   1.521206 S    
C37   H5    1.083601 S    
Cu1   O5    1.972697 S    
C21   C22   1.390693 A    
C42   F2    1.356395 S    
C51   C56   1.417891 A    
C1    C47   1.461775 S    
O5    C3    1.289655 A    
C45   C50   1.429020 A    
C33   C36   1.420011 A    
C2    C16   1.474628 S    
O13   C59   1.413659 S    
C42   C43   1.387615 A    
C59   H20   1.109771 S    
C62   H26   1.109855 S    
C18   C20   1.419755 A    
C44   H11   1.074828 S    
H13   C57   1.081810 S    
C66   H38   1.110632 S    
C41   H10   1.081198 S    
C9    C10   1.405263 A    
C36   F6    1.356108 S    
C62   H27   1.110442 S    
C17   C30   1.406593 A    
C23   C27   1.405024 A    
C4    C17   1.462312 S    
O3    Cu1   1.948102 S    
C61   H24   1.117872 S    
C30   O14   1.385965 S    
H12   C49   1.082549 S    
C10   O15   1.389753 S    
C55   N4    1.380960 A    
C47   C48   1.397747 A    
C12   C13   1.410104 A    
C51   C52   1.387230 A    
C64   H33   1.110871 S    
C26   N2    1.368655 A    
C15   C37   1.396167 A    
C45   C46   1.408604 A    
C8    C16   1.413747 A    
C65   C66   1.520949 S    
C38   C39   1.389118 A    
C31   C32   1.402795 A    
C41   C46   1.417472 A    
C9    H1    1.082090 S    
C52   H15   1.083192 S    
C20   C24   1.421008 A    
O1    C1    1.294050 A    
C22   C23   1.397041 A    
C40   H8    1.077429 S    
C7    C11   1.409889 A    
C24   C25   1.407713 A    
C57   C58   1.417601 A    
C60   H21   1.110982 S    
C43   F3    1.355364 S    
Cu2   O8    1.948097 S    
C59   H19   1.115453 S    
N1    C6    1.367269 A    
C27   O10   1.349536 S    
C18   C21   1.414230 A    
N1    C11   1.438154 S    
C53   H16   1.082227 S    
C48   C49   1.381333 A    
C19   C35   1.419195 A    
C6    O11   1.350042 S    
O3    C2    1.301358 A    
N2    C27   1.368476 A    
C60   H22   1.110399 S    
C9    C16   1.403622 A    
O8    C4    1.296782 A    
C21   H4    1.076819 S    
C52   C53   1.377379 A    
C18   C33   1.423944 A    
O16   C65   1.413868 S    
C62   H28   1.109125 S    
C17   C29   1.403385 A    
Cu2   N3    2.024427 S    
C28   C29   1.393517 A    
N2    C32   1.435823 S    
C29   F5    1.358020 S    
C7    O13   1.383565 S    
C30   C31   1.407010 A    
C54   H17   1.059715 S    
O15   C63   1.413465 S    
C12   C34   1.421476 A    
C5    N1    1.368174 A    
Cu1   N4    2.023412 S    
C3    C50   1.468645 S    
C33   C34   1.420922 A    
C65   H35   1.110335 S    
O1    Cu1   1.966144 S    
C10   C11   1.403626 A    
O2    Cu2   1.972697 S    
C6    C15   1.401016 A    
C51   H14   1.060441 S    
O6    C3    1.310691 A    
O4    Cu2   1.949763 S    
C63   H30   1.116169 S    
C31   F1    1.357691 S    
C39   H7    1.083472 S    
H9    C48   1.083508 S    
C19   C20   1.418404 A    
O2    C1    1.303136 A    
C13   C14   1.402617 A    
C8    O16   1.382990 S    
C64   H31   1.111206 S    
N3    C57   1.366606 A    
C25   C26   1.403219 A    
C26   O12   1.349960 S    
H18   C58   1.081710 S    
C43   C44   1.394114 A    
C63   C64   1.520851 S    
C25   C39   1.396681 A    
C60   H23   1.110432 S    
C55   C56   1.433317 A    
Cu2   O6    1.966144 S    
C34   C35   1.421523 A    
O14   C61   1.416769 S    
C35   C40   1.413624 A    
C37   C40   1.387181 A    
C44   C45   1.419647 A    
C14   F4    1.358709 S    
C56   N3    1.382175 A    
C14   C36   1.392544 A    
C61   C62   1.519750 S    
C28   H2    1.082917 S    
C66   H37   1.110539 S    
