data_mof_unit_42283.cif
_audit_creation_date              2012-12-11T17:45:30-0500
_audit_creation_method            fapswitch 2.2
_symmetry_space_group_name_H-M    P1
_symmetry_Int_Tables_number       1
_space_group_crystal_system       triclinic
_cell_length_a                    14.990674
_cell_length_b                    14.925026
_cell_length_c                    15.107596
_cell_angle_alpha                 110.290283
_cell_angle_beta                  109.114336
_cell_angle_gamma                 109.18069
_cell_volume                      2596.22847697

loop_
_atom_site_label
_atom_site_type_symbol
_atom_type_description
_atom_site_fract_x
_atom_site_fract_y
_atom_site_fract_z
_atom_type_partial_charge
C1    C     C_R   0.973187 0.248491 0.061875 -0.123893
C2    C     C_R   0.705584 0.193528 0.794841 -0.146038
C3    C     C_R   0.776819 0.592011 0.025562 -0.140596
C4    C     C_R   0.315156 0.759891 0.225119 -0.130335
C5    C     C_R   0.940889 0.409131 0.685573 -0.138791
C6    C     C_R   0.674621 0.499439 0.949940 0.017205
C7    C     C_R   0.957603 0.503566 0.679004 0.041441
C8    C     C_R   0.704850 0.127672 0.703086 0.071759
C9    C     C_R   0.064303 0.870445 0.074473 0.068540
C10   C     C_R   0.615793 0.249347 0.092838 -0.082751
C11   C     C_R   0.691347 0.340171 0.197501 -0.100092
C12   C     C_R   0.324471 0.789873 0.327776 0.053116
C13   C     C_R   0.746760 0.325667 0.281788 0.068236
C14   C     C_R   0.718298 0.217914 0.261475 -0.152273
C15   C     C_R   0.639281 0.127051 0.157564 -0.107825
C16   C     C_R   0.207717 0.408263 0.902141 -0.150074
C17   C     C_R   0.589369 0.142985 0.072946 -0.145134
C18   C     C_R   0.849374 0.427412 0.483773 -0.241957
C19   C     C_R   0.941608 0.512653 0.583772 0.072097
C20   C     C_R   0.023735 0.599855 0.589850 0.016514
C21   C     C_R   0.012525 0.597376 0.495505 -0.246104
C22   C     C_R   0.926457 0.507382 0.394769 0.064980
C23   C     C_R   0.299271 0.499450 0.930429 0.033916
C24   C     C_R   0.840909 0.422367 0.387362 0.033048
C25   C     C_R   0.150949 0.792580 0.749290 -0.202042
C26   C     C_R   0.249844 0.870798 0.846024 -0.112626
C27   C     C_R   0.330014 0.843525 0.881165 -0.111694
C28   C     C_R   0.996688 0.591971 0.299012 -0.147682
C29   C     C_R   0.312237 0.738638 0.819218 -0.118726
C30   C     C_R   0.212880 0.659237 0.723580 -0.125103
C31   C     C_R   0.130913 0.685351 0.688875 0.115970
C32   C     C_R   0.254525 0.043375 0.532725 -0.129507
C33   C     C_R   0.330663 0.014413 0.519254 -0.127630
C34   C     C_R   0.941861 0.501171 0.303739 0.061100
C35   C     C_R   0.340705 0.931857 0.538768 0.108815
C36   C     C_R   0.275159 0.880030 0.573799 -0.185772
C37   C     C_R   0.195030 0.905181 0.581201 -0.116804
C38   C     C_R   0.185403 0.987425 0.561730 -0.116759
C39   C     C_R   0.525812 0.973550 0.627606 -0.227135
C40   C     C_R   0.299228 0.591155 0.994673 -0.136398
C41   C     C_R   0.622022 0.010464 0.623486 0.048935
C42   C     C_R   0.622386 0.946950 0.529043 0.029442
C43   C     C_R   0.522722 0.865277 0.435051 -0.241642
C44   C     C_R   0.425046 0.853201 0.433010 0.068065
C45   C     C_R   0.686212 0.407351 0.932971 -0.032263
C46   C     C_R   0.427433 0.908694 0.531959 0.016275
C47   C     C_R   0.738737 0.006535 0.452090 -0.203009
C48   C     C_R   0.842529 0.054838 0.464576 -0.116667
C49   C     C_R   0.930315 0.063752 0.545099 -0.112249
C50   C     C_R   0.914074 0.022772 0.612086 -0.136689
C51   C     C_R   0.811127 0.976654 0.601755 -0.143106
C52   C     C_R   0.912430 0.408798 0.211661 -0.139306
C53   C     C_R   0.723464 0.971171 0.523661 0.123208
C54   C     C_3   0.470942 0.385209 0.845678 -0.392319
C55   C     C_3   0.366863 0.387586 0.835633 -0.416127
C56   C     C_R   0.021487 0.592803 0.782485 -0.105976
C57   C     C_3   0.577368 0.528395 0.047928 0.644597
C58   C     C_3   0.560702 0.586750 0.908166 -0.512245
C59   C     C_3   0.572788 0.499485 0.936720 0.227258
C60   C     C_3   0.396228 0.499461 0.926957 0.324807
C61   C     C_3   0.471006 0.520661 0.039483 -0.508165
C62   C     C_3   0.458446 0.590348 0.907671 -0.423314
C63   C     C_R   0.179576 0.062493 0.812348 -0.128442
C64   C     C_R   0.220374 0.751964 0.313260 -0.122120
C65   C     C_R   0.136429 0.061176 0.880970 -0.194293
C66   C     C_R   0.200686 0.139585 0.992644 0.108359
C67   C     C_R   0.793163 0.195160 0.701550 -0.144319
C68   C     C_R   0.307968 0.219559 0.034819 -0.139797
C69   C     C_R   0.350640 0.219910 0.965490 -0.158497
C70   C     C_R   0.287267 0.140478 0.854677 -0.123361
C71   C     C_R   0.169989 0.043119 0.086909 -0.229836
C72   C     C_R   0.099770 0.988642 0.115755 0.057084
C73   C     C_R   0.051346 0.042918 0.163192 0.023641
C74   C     C_R   0.060046 0.137533 0.160929 -0.239970
C75   C     C_R   0.097271 0.166583 0.095701 0.061890
C76   C     C_R   0.067890 0.252261 0.973837 -0.140464
C77   C     C_R   0.160986 0.123949 0.065635 0.026734
C78   C     C_R   0.000966 0.802312 0.097416 -0.144958
C79   C     C_R   0.863742 0.946438 0.132050 -0.146601
C80   C     C_R   0.792087 0.893213 0.160629 -0.166113
C81   C     C_R   0.832772 0.887900 0.254924 -0.097056
C82   C     C_R   0.945268 0.941227 0.323972 -0.114787
C83   C     C_R   0.017417 0.998969 0.298323 -0.190938
C84   C     C_R   0.976830 0.996867 0.199358 0.116553
C85   C     C_R   0.051370 0.223161 0.047762 0.057656
C86   C     C_R   0.094595 0.807270 0.010328 -0.149899
F1    F     F_    0.597858 0.459357 0.082832 -0.764912
H1    H     H_    0.937932 0.235413 0.110908 0.093012
H2    H     H_    0.580271 0.261411 0.026263 0.143170
H3    H     H_    0.712353 0.422318 0.211534 0.185222
H4    H     H_    0.379817 0.775757 0.205639 0.090450
H5    H     H_    0.760107 0.204243 0.324675 0.106244
H6    H     H_    0.619141 0.044497 0.141920 0.101803
H7    H     H_    0.786444 0.362356 0.480876 0.129230
H8    H     H_    0.079789 0.660637 0.501346 0.127720
H9    H     H_    0.088201 0.813645 0.723954 0.113860
H10   H     H_    0.264120 0.951992 0.895020 0.141075
H11   H     H_    0.405767 0.903300 0.956751 0.097329
H12   H     H_    0.043603 0.677264 0.807991 0.118414
H13   H     H_    0.375565 0.719281 0.846190 0.098882
H14   H     H_    0.199231 0.577358 0.677362 0.106218
H15   H     H_    0.125423 0.008914 0.570585 0.092155
H16   H     H_    0.175887 0.322994 0.844445 0.099202
H17   H     H_    0.249521 0.109496 0.521187 0.102190
H18   H     H_    0.383504 0.057807 0.495986 0.111708
H19   H     H_    0.283738 0.818012 0.591564 0.126371
H20   H     H_    0.140690 0.861447 0.602528 0.114138
H21   H     H_    0.523843 0.014263 0.700994 0.124594
H22   H     H_    0.522310 0.818636 0.361603 0.124296
H23   H     H_    0.825032 0.173613 0.648643 0.133050
H24   H     H_    0.672498 0.004468 0.392451 0.115309
H25   H     H_    0.855295 0.087237 0.413132 0.126597
H26   H     H_    0.010994 0.102888 0.555896 0.100035
H27   H     H_    0.981864 0.030401 0.674694 0.113737
H28   H     H_    0.018518 0.676078 0.350165 0.105440
H29   H     H_    0.801017 0.950864 0.658236 0.112056
H30   H     H_    0.472531 0.320305 0.864981 0.166920
H31   H     H_    0.469100 0.362122 0.766439 0.159260
H32   H     H_    0.317464 0.374532 0.754321 0.161186
H33   H     H_    0.317910 0.318031 0.840804 0.167030
H34   H     H_    0.976342 0.822542 0.156689 0.131888
H35   H     H_    0.428969 0.453537 0.052291 0.200254
H36   H     H_    0.633402 0.669743 0.967904 0.159386
H37   H     H_    0.553236 0.565638 0.826886 0.194767
H38   H     H_    0.404235 0.576139 0.827584 0.168432
H39   H     H_    0.355170 0.676346 0.025673 0.086376
H40   H     H_    0.484161 0.673405 0.972057 0.147418
H41   H     H_    0.644717 0.614204 0.110969 0.016338
H42   H     H_    0.489839 0.599036 0.106120 0.124795
H43   H     H_    0.321355 0.139784 0.801607 0.125023
H44   H     H_    0.130104 0.000740 0.727149 0.105528
H45   H     H_    0.154667 0.836357 0.987688 0.102803
H46   H     H_    0.054185 0.997182 0.847939 0.118953
H47   H     H_    0.359121 0.279049 0.121196 0.127299
H48   H     H_    0.432987 0.281334 0.997858 0.183047
H49   H     H_    0.217929 0.010838 0.061983 0.125071
H50   H     H_    0.022535 0.177313 0.197303 0.126694
H51   H     H_    0.861708 0.323648 0.184683 0.114641
H52   H     H_    0.831313 0.946136 0.056410 0.114684
H53   H     H_    0.705069 0.854323 0.108707 0.106146
H54   H     H_    0.777166 0.843530 0.275171 0.119167
H55   H     H_    0.976256 0.936337 0.396454 0.119980
H56   H     H_    0.659391 0.167216 0.831534 0.088598
H57   H     H_    0.104195 0.038185 0.350752 0.118558
H58   H     H_    0.194838 0.751773 0.371521 0.118788
H59   H     H_    0.123518 0.248288 0.944751 0.127489
H60   H     H_    0.624103 0.321498 0.882723 0.075752
H61   H     H_    0.796573 0.677080 0.062668 0.104877
H62   H     H_    0.895621 0.324645 0.619428 0.102759
H63   H     H_    0.531526 0.073334 0.991486 0.109970
N1    N     N_R   0.947080 0.293830 0.002870 -0.041447
N2    N     N_R   0.153670 0.443180 0.946090 -0.038030
N3    N     N_R   0.002360 0.556820 0.208890 -0.040533
N4    N     N_R   0.210070 0.556820 0.002870 -0.035349
N5    N     N_R   0.945960 0.443180 0.152110 -0.039820
N6    N     N_R   0.151710 0.706170 0.208890 -0.043562
N7    N     N_R   0.004320 0.293830 0.946090 -0.041446
N8    N     N_R   0.789930 0.443180 0.997130 -0.042175
N9    N     N_R   0.054040 0.556820 0.847890 -0.041185
N10   N     N_R   0.848290 0.293830 0.791110 -0.042409
N11   N     N_R   0.995680 0.706170 0.053910 -0.043085
N12   N     N_R   0.052920 0.706170 0.997130 -0.042311
N13   N     N_R   0.791050 0.293830 0.847890 -0.044857
N14   N     N_R   0.846330 0.556820 0.053910 -0.036197
N15   N     N_R   0.997640 0.443180 0.791110 -0.040530
N16   N     N_R   0.208950 0.706170 0.152110 -0.040045
Ni1   Ni    Ni4+2 0.869690 0.369690 0.000000 0.214065
Ni2   Ni    Ni4+2 0.130310 0.630310 0.000000 0.215807
Ni3   Ni    Ni4+2 0.000970 0.369690 0.869780 0.213156
Ni4   Ni    Ni4+2 0.999030 0.630310 0.130220 0.218512

loop_
_geom_bond_atom_site_label_1
_geom_bond_atom_site_label_2
_ccdc_geom_bond_type
C25   C31   A    
C66   C68   A    
C63   C65   A    
C27   H11   S    
C58   C62   S    
C6    C45   A    
C64   H58   S    
C27   C29   A    
C41   C42   A    
N14   Ni4   S    
C35   C36   A    
C9    C72   S    
C82   H55   S    
C3    C6    A    
N4    Ni2   S    
C57   H41   S    
N11   N12   A    
C39   C41   A    
C55   H32   S    
C52   N5    A    
C58   H36   S    
C29   C30   A    
C83   C84   A    
C18   C24   A    
N1    N7    A    
C36   C37   A    
C37   H20   S    
C56   N9    A    
C32   C38   A    
C42   C53   S    
C79   C84   A    
C12   C64   A    
C47   H24   S    
C57   C59   S    
C10   C17   A    
C23   C40   A    
C70   H43   S    
C5    H62   S    
N9    Ni2   S    
C60   C62   S    
C18   C19   A    
C73   C74   A    
C55   H33   S    
C78   H34   S    
C34   C52   A    
C16   H16   S    
C13   C14   A    
N7    Ni3   S    
C75   C85   S    
C17   H63   S    
C10   H2    S    
N5    Ni1   S    
C68   C69   A    
N3    Ni4   S    
C52   H51   S    
N10   Ni3   S    
C32   H17   S    
C49   H26   S    
C67   N10   A    
C86   N12   A    
C63   H44   S    
C4    C12   A    
C73   C84   S    
C61   H42   S    
C47   C53   A    
C4    H4    S    
C1    H1    S    
C81   H54   S    
C76   H59   S    
C3    H61   S    
C69   H48   S    
C21   C22   A    
N16   Ni2   S    
C2    H56   S    
C40   N4    A    
C23   C60   S    
C7    C56   A    
C25   H9    S    
C44   C46   A    
N8    Ni1   S    
C81   C82   A    
C54   C59   S    
N15   Ni3   S    
C39   H21   S    
C22   C34   S    
C74   H50   S    
C76   N7    A    
C74   C75   A    
C36   H19   S    
N10   N13   A    
C33   H18   S    
C8    C41   S    
C79   H52   S    
C71   H49   S    
C5    C7    A    
C72   C73   A    
C21   H8    S    
C25   C26   A    
C80   H53   S    
C82   C83   A    
N9    N15   A    
C13   C24   S    
C60   C61   S    
C50   H27   S    
N13   Ni1   S    
C43   C44   A    
C37   C38   A    
C28   H28   S    
C9    C86   A    
C67   H23   S    
C47   C48   A    
C63   C70   A    
N6    N16   A    
C30   C31   A    
C40   H39   S    
C50   C51   A    
C26   C27   A    
C16   N2    A    
C75   C77   A    
C14   H5    S    
C3    N14   A    
C8    C67   A    
C39   C46   A    
N12   Ni2   S    
N11   Ni4   S    
C48   C49   A    
C48   H25   S    
N2    N4    A    
C65   C66   A    
C16   C23   A    
C5    N15   A    
C54   H31   S    
C28   N3    A    
C18   H7    S    
C22   C24   A    
C1    C85   A    
N3    N5    A    
C42   C43   A    
C71   C77   A    
C15   C17   A    
C66   C77   S    
C54   C55   S    
C29   H13   S    
C45   H60   S    
C58   H37   S    
C6    C59   S    
C2    C8    A    
C45   N8    A    
C80   C81   A    
C2    N13   A    
C15   H6    S    
C62   H38   S    
C57   C61   S    
N8    N14   A    
C64   N6    A    
C7    C19   S    
C51   H29   S    
C32   C33   A    
C19   C20   A    
C68   H47   S    
C58   C59   S    
C71   C72   A    
C12   C44   S    
N2    Ni3   S    
C11   C13   A    
C11   H3    S    
C86   H45   S    
C83   H57   S    
N1    Ni1   S    
C30   H14   S    
N6    Ni4   S    
C33   C35   A    
C4    N16   A    
C1    N1    A    
C9    C78   A    
C69   C70   A    
C10   C11   A    
C26   H10   S    
C28   C34   A    
C79   C80   A    
C57   F1    S    
C62   H40   S    
C20   C21   A    
C78   N11   A    
C38   H15   S    
C49   C50   A    
C54   H30   S    
C14   C15   A    
C61   H35   S    
C43   H22   S    
C56   H12   S    
C51   C53   A    
C55   C60   S    
C35   C46   S    
C76   C85   A    
C65   H46   S    
C20   C31   S    
