data_mof_unit_23122.cif
_audit_creation_date              2012-12-10T16:55:43-0500
_audit_creation_method            fapswitch 2.2
_symmetry_space_group_name_H-M    P1
_symmetry_Int_Tables_number       1
_space_group_crystal_system       triclinic
_cell_length_a                    7.786025
_cell_length_b                    8.571892
_cell_length_c                    10.497584
_cell_angle_alpha                 91.390001
_cell_angle_beta                  85.034077
_cell_angle_gamma                 93.853349
_cell_volume                      696.291241119

loop_
_atom_site_label
_atom_site_type_symbol
_atom_type_description
_atom_site_fract_x
_atom_site_fract_y
_atom_site_fract_z
_atom_type_partial_charge
C1    C     C_R   0.545881 0.794749 0.496959 0.956692
C2    C     C_3   0.500512 0.498821 0.876898 -0.065267
C3    C     C_3   0.393210 0.377398 0.046344 -0.272404
C4    C     C_3   0.607779 0.618757 0.953673 -0.271420
C5    C     C_2   0.569947 0.958387 0.495642 -0.388105
C6    C     C_2   0.430106 0.041668 0.505786 -0.385688
C7    C     C_3   0.326645 0.881592 0.016805 -0.781859
C8    C     C_3   0.788896 0.210385 0.855969 -0.772390
C9    C     C_R   0.454137 0.205270 0.503563 0.958202
C10   C     C_R   0.500572 0.499474 0.742313 0.880079
C11   C     C_R   0.499299 0.498973 0.257675 0.880725
C12   C     C_3   0.337021 0.514416 0.969001 -0.185442
C13   C     C_3   0.663596 0.481446 0.031398 -0.183012
C14   C     C_3   0.445875 0.631050 0.046682 0.274277
C15   C     C_3   0.555062 0.364894 0.953031 0.275555
C16   C     C_3   0.499863 0.497381 0.123001 -0.067889
H1    H     H_    0.204909 0.529451 0.940976 0.153018
H2    H     H_    0.281671 0.986694 0.070102 0.234943
H3    H     H_    0.216355 0.825158 0.968746 0.241278
H4    H     H_    0.432450 0.918249 0.943756 0.240721
H5    H     H_    0.526010 0.170210 0.832328 0.211963
H6    H     H_    0.812592 0.092415 0.814821 0.228793
H7    H     H_    0.868206 0.230567 0.938477 0.236059
H8    H     H_    0.829250 0.298740 0.781933 0.261801
H9    H     H_    0.795244 0.467298 0.060665 0.156293
H10   H     H_    0.308645 0.278971 0.088163 0.142286
H11   H     H_    0.691978 0.717831 0.912356 0.147905
H12   H     H_    0.013659 0.381906 0.403672 0.191532
H13   H     H_    0.986319 0.617992 0.596412 0.187179
H14   H     H_    0.701916 0.009768 0.486162 0.182234
H15   H     H_    0.298140 0.990299 0.515406 0.181954
H16   H     H_    0.473900 0.828259 0.163915 0.221109
N1    N     N_2   0.950320 0.457950 0.465730 -0.174953
N2    N     N_2   0.049680 0.542050 0.534270 -0.176414
N3    N     N_2   0.387493 0.775035 0.104793 -0.292750
N4    N     N_2   0.607606 0.217306 0.897566 -0.312381
O1    O     O_R   0.389250 0.738570 0.508410 -0.609518
O2    O     O_R   0.610750 0.261430 0.491590 -0.611537
O3    O     O_R   0.678390 0.711620 0.486450 -0.628978
O4    O     O_R   0.321610 0.288380 0.513550 -0.633072
O5    O     O_R   0.355460 0.513510 0.697030 -0.628824
O6    O     O_R   0.644540 0.486490 0.302970 -0.624382
O7    O     O_R   0.644600 0.486560 0.675070 -0.632487
O8    O     O_R   0.355400 0.513440 0.324930 -0.615990
Zn1   Zn    Zn3+2 0.306940 0.517990 0.514670 0.936912
Zn2   Zn    Zn3+2 0.693060 0.482010 0.485330 0.933252

loop_
_geom_bond_atom_site_label_1
_geom_bond_atom_site_label_2
_ccdc_geom_bond_type
C12   H1    S    
C9    O4    A    
C2    C4    S    
C2    C15   S    
C11   C16   S    
C8    H6    S    
C1    O1    A    
C7    H2    S    
C2    C12   S    
C8    H7    S    
C6    C9    S    
C6    H15   S    
C11   O8    A    
N2    Zn1   S    
C10   O5    A    
C4    C14   S    
N1    Zn2   S    
C13   H9    S    
C5    C6    D    
O3    Zn2   S    
C1    C5    S    
C9    O2    A    
C8    H8    S    
C12   C14   S    
H12   N1    S    
N1    N2    D    
C7    H3    S    
C13   C15   S    
O6    Zn2   S    
O4    Zn1   S    
O7    Zn2   S    
C14   C16   S    
O2    Zn2   S    
C1    O3    A    
O1    Zn1   S    
C2    C10   S    
H16   N3    S    
C15   N4    S    
C14   N3    S    
C4    H11   S    
C3    C15   S    
O8    Zn1   S    
C11   O6    A    
C7    H4    S    
C8    N4    S    
C13   C16   S    
C4    C13   S    
H5    N4    S    
O5    Zn1   S    
C3    C12   S    
C10   O7    A    
C7    N3    S    
H13   N2    S    
C3    H10   S    
C3    C16   S    
C5    H14   S    
