data_mof_unit_15933.cif
_audit_creation_date              2012-12-11T14:30:00-0500
_audit_creation_method            fapswitch 2.2
_symmetry_space_group_name_H-M    P1
_symmetry_Int_Tables_number       1
_space_group_crystal_system       triclinic
_cell_length_a                    12.879732
_cell_length_b                    12.879727
_cell_length_c                    26.999251
_cell_angle_alpha                 90.00003
_cell_angle_beta                  90.0
_cell_angle_gamma                 120.000221
_cell_volume                      3878.77747617

loop_
_atom_site_label
_atom_site_type_symbol
_atom_type_description
_atom_site_fract_x
_atom_site_fract_y
_atom_site_fract_z
_atom_type_partial_charge
C1    C     C_R   0.560642 0.455673 0.822472 0.532234
C2    C     C_R   0.455055 0.558336 0.178068 0.529095
C3    C     C_R   0.892071 0.286641 0.462821 0.288457
C4    C     C_R   0.394572 0.107930 0.037180 0.288457
C5    C     C_R   0.713359 0.605429 0.462820 0.288457
C6    C     C_R   0.387906 0.113221 0.514379 0.281005
C7    C     C_R   0.886779 0.274683 0.985621 0.281006
C8    C     C_R   0.725317 0.612095 0.514379 0.281004
C9    C     C_R   0.387906 0.113222 0.985621 0.281005
C10   C     C_R   0.886779 0.274683 0.514379 0.281006
C11   C     C_R   0.725316 0.612095 0.985621 0.281005
C12   C     C_R   0.441664 0.896719 0.321932 0.529094
C13   C     C_R   0.103281 0.544945 0.178068 0.529095
C14   C     C_R   0.983835 0.491603 0.975775 -0.033572
C15   C     C_R   0.507768 0.016164 0.524225 -0.033572
C16   C     C_R   0.508396 0.492232 0.975775 -0.033570
C17   C     C_R   0.983835 0.491603 0.524225 -0.033572
C18   C     C_R   0.507768 0.016164 0.975775 -0.033571
C19   C     C_R   0.508397 0.492232 0.524225 -0.033570
C20   C     C_R   0.504769 0.000129 0.472638 -0.030365
C21   C     C_R   0.895031 0.439357 0.677528 0.532234
C22   C     C_R   0.999870 0.504640 0.027363 -0.030365
C23   C     C_R   0.495360 0.495231 0.472637 -0.030363
C24   C     C_R   0.504769 0.000129 0.027362 -0.030364
C25   C     C_R   0.999870 0.504640 0.472637 -0.030365
C26   C     C_R   0.495360 0.495231 0.027362 -0.030364
C27   C     C_R   0.096713 0.708969 0.965510 0.298710
C28   C     C_R   0.612255 0.903286 0.534490 0.298710
C29   C     C_R   0.291031 0.387744 0.965510 0.298710
C30   C     C_R   0.096712 0.708969 0.534490 0.298710
C31   C     C_R   0.612254 0.903286 0.965510 0.298710
C32   C     C_R   0.544327 0.104970 0.822472 0.532234
C33   C     C_R   0.291031 0.387744 0.534490 0.298710
C34   C     C_R   0.615615 0.893834 0.482772 0.290119
C35   C     C_R   0.106165 0.721781 0.017228 0.290118
C36   C     C_R   0.278219 0.384384 0.482772 0.290118
C37   C     C_R   0.615614 0.893834 0.017227 0.290118
C38   C     C_R   0.106164 0.721781 0.482772 0.290118
C39   C     C_R   0.278219 0.384384 0.017227 0.290118
C40   C     C_R   0.003902 0.578206 0.893424 -0.081575
C41   C     C_R   0.574303 0.996098 0.606576 -0.081575
C42   C     C_R   0.421795 0.425697 0.893424 -0.081574
C43   C     C_R   0.560643 0.455673 0.677528 0.532235
C44   C     C_R   0.003901 0.578206 0.606576 -0.081576
C45   C     C_R   0.574302 0.996098 0.893424 -0.081574
C46   C     C_R   0.421794 0.425697 0.606576 -0.081573
C47   C     C_R   0.545683 0.913766 0.400965 -0.064410
C48   C     C_R   0.086234 0.631917 0.099035 -0.064410
C49   C     C_R   0.368082 0.454317 0.400965 -0.064409
C50   C     C_R   0.545682 0.913765 0.099035 -0.064409
C51   C     C_R   0.086234 0.631917 0.400965 -0.064410
C52   C     C_R   0.368082 0.454317 0.099035 -0.064409
C53   C     C_R   0.048971 0.530517 0.129017 -0.019348
C54   C     C_R   0.895031 0.439357 0.822472 0.532234
C55   C     C_R   0.481546 0.951028 0.370983 -0.019348
C56   C     C_R   0.469482 0.518454 0.129017 -0.019348
C57   C     C_R   0.048972 0.530517 0.370983 -0.019348
C58   C     C_R   0.481546 0.951028 0.129017 -0.019348
C59   C     C_R   0.469482 0.518454 0.370983 -0.019348
C60   C     C_R   0.525291 0.062282 0.626178 -0.018006
C61   C     C_R   0.937717 0.463008 0.873822 -0.018006
C62   C     C_R   0.536992 0.474708 0.626178 -0.018003
C63   C     C_R   0.525291 0.062283 0.873822 -0.018005
C64   C     C_R   0.937717 0.463008 0.626178 -0.018006
C65   C     C_R   0.544326 0.104969 0.677528 0.532234
C66   C     C_R   0.536992 0.474709 0.873821 -0.018005
C67   C     C_R   0.030326 0.593864 0.944526 0.012196
C68   C     C_R   0.563536 0.969673 0.555474 0.012197
C69   C     C_R   0.406136 0.436464 0.944526 0.012198
C70   C     C_R   0.030326 0.593864 0.555474 0.012196
C71   C     C_R   0.563536 0.969673 0.944525 0.012197
C72   C     C_R   0.406136 0.436463 0.555474 0.012198
C73   C     C_R   0.557102 0.936803 0.451948 0.008414
C74   C     C_R   0.063197 0.620300 0.048052 0.008414
C75   C     C_R   0.379700 0.442897 0.451948 0.008415
C76   C     C_R   0.455055 0.558336 0.321932 0.529095
C77   C     C_R   0.557102 0.936802 0.048052 0.008415
C78   C     C_R   0.063197 0.620300 0.451948 0.008414
C79   C     C_R   0.379700 0.442897 0.048052 0.008415
C80   C     C_R   0.901994 0.363138 0.904584 -0.063652
C81   C     C_R   0.461144 0.098006 0.595416 -0.063652
C82   C     C_R   0.636862 0.538855 0.904584 -0.063652
C83   C     C_R   0.901995 0.363138 0.595416 -0.063652
C84   C     C_R   0.461145 0.098007 0.904584 -0.063652
C85   C     C_R   0.636863 0.538854 0.595416 -0.063652
C86   C     C_R   0.439064 0.022480 0.390813 -0.071340
C87   C     C_R   0.441664 0.896719 0.178068 0.529094
C88   C     C_R   0.977520 0.416584 0.109187 -0.071340
C89   C     C_R   0.583416 0.560936 0.390812 -0.071339
C90   C     C_R   0.439064 0.022480 0.109187 -0.071340
C91   C     C_R   0.977520 0.416584 0.390813 -0.071340
C92   C     C_R   0.583415 0.560936 0.109187 -0.071339
C93   C     C_R   0.924171 0.375870 0.955242 -0.000134
C94   C     C_R   0.451700 0.075829 0.544758 -0.000134
C95   C     C_R   0.624129 0.548300 0.955242 -0.000133
C96   C     C_R   0.924171 0.375870 0.544758 -0.000134
C97   C     C_R   0.451701 0.075830 0.955242 -0.000133
C98   C     C_R   0.103281 0.544945 0.321932 0.529095
C99   C     C_R   0.624130 0.548299 0.544758 -0.000133
C100  C     C_R   0.449207 0.047331 0.441686 0.010137
C101  C     C_R   0.952669 0.401876 0.058314 0.010137
C102  C     C_R   0.598124 0.550793 0.441685 0.010138
C103  C     C_R   0.449207 0.047331 0.058314 0.010137
C104  C     C_R   0.952669 0.401876 0.441686 0.010136
C105  C     C_R   0.598124 0.550793 0.058314 0.010138
C106  C     C_R   0.892071 0.286641 0.037179 0.288457
C107  C     C_R   0.394571 0.107929 0.462821 0.288457
C108  C     C_R   0.713358 0.605429 0.037179 0.288457
Cl1   Cl    Cl    0.156913 0.864188 0.043276 -0.390955
Cl2   Cl    Cl    0.675233 0.836808 0.927642 -0.441804
Cl3   Cl    Cl    0.163190 0.838427 0.572357 -0.441802
Cl4   Cl    Cl    0.161573 0.324764 0.927642 -0.441802
Cl5   Cl    Cl    0.834188 0.156504 0.074514 -0.455233
Cl6   Cl    Cl    0.322318 0.165812 0.425485 -0.455235
Cl7   Cl    Cl    0.843495 0.677683 0.074515 -0.455234
Cl8   Cl    Cl    0.834189 0.156504 0.425485 -0.455233
Cl9   Cl    Cl    0.322318 0.165813 0.074515 -0.455235
Cl10  Cl    Cl    0.843495 0.677684 0.425485 -0.455234
Cl11  Cl    Cl    0.281264 0.144312 0.540561 -0.374874
Cl12  Cl    Cl    0.707273 0.843086 0.456725 -0.390956
Cl13  Cl    Cl    0.855687 0.136951 0.959438 -0.374874
Cl14  Cl    Cl    0.863049 0.718738 0.540561 -0.374870
Cl15  Cl    Cl    0.281265 0.144313 0.959439 -0.374875
Cl16  Cl    Cl    0.855688 0.136951 0.540561 -0.374873
Cl17  Cl    Cl    0.863049 0.718737 0.959439 -0.374872
Cl18  Cl    Cl    0.135812 0.292724 0.043275 -0.390953
Cl19  Cl    Cl    0.156911 0.864187 0.456724 -0.390953
Cl20  Cl    Cl    0.707273 0.843086 0.043275 -0.390957
Cl21  Cl    Cl    0.135812 0.292724 0.456724 -0.390953
Cl22  Cl    Cl    0.675234 0.836808 0.572357 -0.441801
Cl23  Cl    Cl    0.163191 0.838427 0.927643 -0.441801
Cl24  Cl    Cl    0.161573 0.324763 0.572357 -0.441801
Cr1   Cr    Cr6+3 0.487630 0.241180 0.750000 1.089173
Cr2   Cr    Cr6+3 0.753550 0.512370 0.750000 1.089173
Cr3   Cr    Cr6+3 0.758820 0.246450 0.750000 1.089173
Cr4   Cr    Cr6+3 0.241180 0.487630 0.250000 1.092370
Cr5   Cr    Cr6+3 0.512370 0.753550 0.250000 1.092370
Cr6   Cr    Cr6+3 0.246450 0.758820 0.250000 1.092370
H1    H     H_    0.142111 0.719854 0.114961 0.192437
H2    H     H_    0.622442 0.968518 0.868868 0.192070
H3    H     H_    0.031480 0.653926 0.631132 0.192071
H4    H     H_    0.346075 0.377557 0.868868 0.192070
H5    H     H_    0.949151 0.339991 0.133299 0.201154
H6    H     H_    0.390842 0.050850 0.366701 0.201154
H7    H     H_    0.660008 0.609158 0.133299 0.201154
H8    H     H_    0.949151 0.339991 0.366701 0.201154
H9    H     H_    0.390842 0.050850 0.133299 0.201154
H10   H     H_    0.660008 0.609158 0.366701 0.201153
H11   H     H_    0.424912 0.150889 0.610797 0.188982
H12   H     H_    0.577742 0.857888 0.385039 0.192436
H13   H     H_    0.849111 0.274023 0.889203 0.188982
H14   H     H_    0.725979 0.575085 0.610796 0.188978
H15   H     H_    0.424914 0.150892 0.889203 0.188980
H16   H     H_    0.849111 0.274022 0.610797 0.188982
H17   H     H_    0.725977 0.575087 0.889203 0.188980
H18   H     H_    0.280146 0.422258 0.114960 0.192435
H19   H     H_    0.142111 0.719854 0.385039 0.192436
H20   H     H_    0.577741 0.857888 0.114960 0.192436
H21   H     H_    0.280146 0.422258 0.385039 0.192435
H22   H     H_    0.622444 0.968519 0.631132 0.192071
H23   H     H_    0.031480 0.653926 0.868868 0.192071
H24   H     H_    0.346074 0.377557 0.631132 0.192070
O1    O     O_R   0.460870 0.120930 0.805240 -0.486788
O2    O     O_R   0.120930 0.460870 0.194760 -0.495922
O3    O     O_R   0.539130 0.660060 0.305240 -0.495922
O4    O     O_R   0.339940 0.879070 0.194760 -0.495921
O5    O     O_R   0.498910 0.350470 0.801870 -0.498534
O6    O     O_R   0.851560 0.501090 0.698130 -0.498534
O7    O     O_R   0.649530 0.148440 0.801870 -0.498534
O8    O     O_R   0.498910 0.350470 0.698130 -0.498534
O9    O     O_R   0.851560 0.501090 0.801870 -0.498534
O10   O     O_R   0.649530 0.148440 0.698130 -0.498533
O11   O     O_R   0.350470 0.498910 0.301870 -0.494375
O12   O     O_R   0.660060 0.539130 0.694760 -0.486787
O13   O     O_R   0.501090 0.851560 0.198130 -0.494375
O14   O     O_R   0.148440 0.649530 0.301870 -0.494375
O15   O     O_R   0.350470 0.498910 0.198130 -0.494375
O16   O     O_R   0.501090 0.851560 0.301870 -0.494375
O17   O     O_R   0.148440 0.649530 0.198130 -0.494375
O18   O     O_3   0.666667 0.333333 0.750000 -0.287040
O19   O     O_3   0.333333 0.666667 0.250000 -0.282357
O20   O     O_R   0.879070 0.339940 0.805240 -0.486788
O21   O     O_R   0.460870 0.120930 0.694760 -0.486788
O22   O     O_R   0.660060 0.539130 0.805240 -0.486788
O23   O     O_R   0.879070 0.339940 0.694760 -0.486788
O24   O     O_R   0.120930 0.460870 0.305240 -0.495922
O25   O     O_R   0.539130 0.660060 0.194760 -0.495922
O26   O     O_R   0.339940 0.879070 0.305240 -0.495921

loop_
_geom_bond_atom_site_label_1
_geom_bond_atom_site_label_2
_ccdc_geom_bond_type
C3    C104  A    
C89   H10   S    
C12   O16   A    
C32   O7    A    
C4    C103  A    
C35   C74   A    
C89   C102  A    
C80   H13   S    
C27   Cl23  S    
C29   Cl4   S    
Cr6   O26   S    
C91   C104  A    
C58   C87   S    
C15   C94   A    
Cr5   O3    S    
C88   C101  A    
C86   H6    S    
C107  Cl6   S    
C83   H16   S    
C44   C64   A    
C22   C101  A    
C46   C62   A    
C18   C24   A    
C84   C97   A    
C108  Cl7   S    
C76   O11   A    
C28   C68   A    
C8    C99   A    
Cr3   O18   S    
Cr5   O13   S    
C10   Cl16  S    
C3    Cl8   S    
Cr1   O5    S    
C65   O21   A    
C43   O12   A    
C87   O4    A    
C45   C71   A    
C15   C68   A    
C61   C80   A    
C12   O26   A    
C32   O1    A    
C101  C106  A    
C33   C36   A    
C30   C38   A    
C59   C89   A    
Cr6   O19   S    
C2    O25   A    
C21   C64   S    
C33   C72   A    
C5    C102  A    
Cr1   O21   S    
Cr5   O16   S    
C44   H3    S    
C6    C94   A    
C40   C67   A    
Cr4   O19   S    
C42   H4    S    
C6    C107  A    
C49   C75   A    
C44   C70   A    
C51   C57   A    
C18   C97   A    
C52   C79   A    
C86   C100  A    
C88   H5    S    
C46   C72   A    
C35   Cl1   S    
C37   Cl20  S    
Cr4   O24   S    
C31   C71   A    
C28   C34   A    
C17   C70   A    
C39   Cl18  S    
C16   C26   A    
C19   C72   A    
C15   C20   A    
C7    Cl13  S    
Cr6   O17   S    
Cr1   O1    S    
C26   C105  A    
C30   C70   A    
C43   O8    A    
Cr3   O10   S    
C38   Cl19  S    
C41   C68   A    
C29   C69   A    
C34   Cl12  S    
C48   C53   A    
C7    C93   A    
C62   C85   A    
C84   H15   S    
C106  Cl5   S    
C25   C78   A    
C50   C58   A    
C48   C74   A    
C47   C73   A    
C23   C75   A    
C19   C99   A    
C38   C78   A    
C27   C35   A    
C13   O17   A    
C37   C77   A    
Cr4   O15   S    
C45   C63   A    
C45   H2    S    
C50   H20   S    
C65   O10   A    
C31   C37   A    
C39   C79   A    
C19   C23   A    
Cr1   O8    S    
C64   C83   A    
C90   H9    S    
C85   C99   A    
C36   C75   A    
C66   C82   A    
C41   H22   S    
C98   O14   A    
C60   C81   A    
C24   C77   A    
C20   C100  A    
C47   H12   S    
C10   C96   A    
C14   C67   A    
C29   C39   A    
C54   O20   A    
C1    C66   S    
C7    C106  A    
C76   O3    A    
C25   C104  A    
C17   C96   A    
C105  C108  A    
C58   C90   A    
Cr2   O12   S    
C57   C91   A    
C82   H17   S    
C33   Cl24  S    
C2    O15   A    
C60   C65   S    
Cr2   O9    S    
Cr6   O14   S    
Cr3   O7    S    
Cr2   O6    S    
C4    Cl9   S    
C30   Cl3   S    
C52   H18   S    
C22   C74   A    
C50   C77   A    
C6    Cl11  S    
C13   O2    A    
C47   C55   A    
Cr4   O2    S    
C11   C95   A    
C18   C71   A    
Cr4   O11   S    
C100  C107  A    
C9    C97   A    
C82   C95   A    
C14   C93   A    
C48   H1    S    
C11   Cl17  S    
C92   H7    S    
C21   O6    A    
C54   O9    A    
C16   C69   A    
C41   C60   A    
Cr2   O22   S    
C5    C8    A    
Cr1   O18   S    
C21   O23   A    
C54   C61   S    
C32   C63   S    
C87   O13   A    
C63   C84   A    
C26   C79   A    
C49   C59   A    
C5    Cl10  S    
Cr6   O4    S    
C24   C103  A    
C17   C25   A    
C14   C22   A    
C55   C86   A    
C80   C93   A    
C85   H14   S    
C40   H23   S    
C98   O24   A    
C3    C10   A    
C2    C56   S    
C36   Cl21  S    
C81   C94   A    
C16   C95   A    
C8    Cl14  S    
C81   H11   S    
C83   C96   A    
C9    Cl15  S    
C31   Cl2   S    
C1    O22   A    
C20   C73   A    
C53   C88   A    
C28   Cl22  S    
C42   C69   A    
C57   C98   S    
C90   C103  A    
C51   C78   A    
C12   C55   S    
C27   C67   A    
C13   C53   S    
C40   C61   A    
C34   C73   A    
C23   C102  A    
C92   C105  A    
C56   C92   A    
Cr5   O19   S    
C46   H24   S    
C11   C108  A    
C42   C66   A    
C1    O5    A    
C49   H21   S    
Cr3   O20   S    
Cr2   O18   S    
C4    C9    A    
C59   C76   S    
Cr3   O23   S    
C91   H8    S    
C51   H19   S    
C52   C56   A    
C43   C62   S    
Cr5   O25   S    
