data_mof_unit_67212.cif
_audit_creation_date              2012-12-11T18:15:31-0500
_audit_creation_method            fapswitch 2.2
_symmetry_space_group_name_H-M    P1
_symmetry_Int_Tables_number       1
_space_group_crystal_system       triclinic
_cell_length_a                    20.033009
_cell_length_b                    21.370228
_cell_length_c                    8.525689
_cell_angle_alpha                 90.338289
_cell_angle_beta                  92.353993
_cell_angle_gamma                 89.384841
_cell_volume                      3646.58769327

loop_
_atom_site_label
_atom_site_type_symbol
_atom_type_description
_atom_site_fract_x
_atom_site_fract_y
_atom_site_fract_z
_atom_type_partial_charge
Ba1   Ba    Ba6+2 0.999980 0.452130 0.155200 1.753261
Ba2   Ba    Ba6+2 0.999980 0.547870 0.655200 1.751711
Ba3   Ba    Ba6+2 0.499980 0.952130 0.155200 1.750195
Ba4   Ba    Ba6+2 0.499980 0.047870 0.655200 1.744631
C1    C     C_3   0.997022 0.125445 0.481364 0.713657
C2    C     C_3   0.969916 0.872506 0.954204 0.684528
C3    C     C_3   0.492444 0.620970 0.411807 0.658984
C4    C     C_3   0.475185 0.374011 0.949361 0.699342
C5    C     C_R   0.156746 0.349509 0.826488 0.068454
C6    C     C_R   0.155068 0.651347 0.327892 0.069829
C7    C     C_R   0.654391 0.848462 0.825312 -0.002225
C8    C     C_R   0.656184 0.150575 0.324618 0.043985
C9    C     C_R   0.113463 0.336059 0.697204 -0.262086
C10   C     C_R   0.111062 0.665358 0.199361 -0.262247
C11   C     C_R   0.613332 0.837486 0.690141 -0.252634
C12   C     C_R   0.614782 0.161851 0.189973 -0.252868
C13   C     C_R   0.130479 0.291544 0.583767 0.008890
C14   C     C_R   0.127021 0.709759 0.086058 0.005980
C15   C     C_R   0.629282 0.791229 0.579557 0.038723
C16   C     C_R   0.629794 0.207737 0.079791 0.034919
C17   C     C_R   0.181604 0.248662 0.618206 0.344480
C18   C     C_R   0.179978 0.750061 0.116820 0.371114
C19   C     C_R   0.680305 0.748350 0.614741 0.366019
C20   C     C_R   0.680917 0.249804 0.113829 0.380560
C21   C     C_R   0.214808 0.249430 0.767188 -0.065406
C22   C     C_R   0.213311 0.750297 0.265808 -0.083954
C23   C     C_R   0.711269 0.747100 0.766215 -0.072611
C24   C     C_R   0.712824 0.250930 0.264238 -0.067777
C25   C     C_R   0.210473 0.304091 0.863539 -0.093009
C26   C     C_R   0.208416 0.696786 0.364597 -0.095132
C27   C     C_R   0.705104 0.800567 0.865834 -0.125952
C28   C     C_R   0.707566 0.197706 0.363768 -0.103815
C29   C     C_R   0.792092 0.694538 0.951577 -0.080988
C30   C     C_R   0.794527 0.303936 0.446235 -0.089466
C31   C     C_R   0.296965 0.197637 0.948929 -0.072309
C32   C     C_R   0.296117 0.802613 0.446241 -0.093627
C33   C     C_R   0.789092 0.749354 0.045688 0.020239
C34   C     C_R   0.793107 0.249183 0.539281 0.018559
C35   C     C_R   0.298622 0.254462 0.036002 0.020766
C36   C     C_R   0.296484 0.746748 0.536534 -0.013014
C37   C     C_R   0.839268 0.645099 0.998192 0.013729
C38   C     C_R   0.840526 0.354044 0.493898 0.019617
C39   C     C_R   0.341585 0.146363 0.997545 0.016403
C40   C     C_R   0.341672 0.853139 0.494217 0.032717
C41   C     C_R   0.874965 0.650924 0.142829 -0.309560
C42   C     C_R   0.875406 0.349128 0.639647 -0.314058
C43   C     C_R   0.376179 0.151296 0.143506 -0.298076
C44   C     C_R   0.376604 0.847923 0.640123 -0.302420
C45   C     C_3   0.021759 0.223008 0.981660 0.324595
C46   C     C_3   0.020330 0.775677 0.475549 0.330323
C47   C     C_3   0.527054 0.724981 0.958310 0.385938
C48   C     C_3   0.524526 0.274982 0.473252 0.335792
C49   C     C_R   0.865949 0.702545 0.240807 0.070137
C50   C     C_R   0.867752 0.297664 0.736169 0.064191
C51   C     C_R   0.371604 0.205342 0.234957 0.074298
C52   C     C_R   0.371890 0.794665 0.732661 0.039226
C53   C     C_R   0.824675 0.751447 0.190978 -0.005755
C54   C     C_R   0.829470 0.247956 0.683083 0.028280
C55   C     C_R   0.338462 0.257456 0.174580 -0.038825
C56   C     C_R   0.336460 0.743742 0.675342 -0.014900
C57   C     C_R   0.748785 0.693370 0.816649 0.434824
C58   C     C_R   0.749923 0.304729 0.313728 0.439289
C59   C     C_R   0.251141 0.195677 0.819783 0.442888
C60   C     C_R   0.251056 0.803644 0.314339 0.451324
C61   C     C_3   0.057877 0.160023 0.983670 -0.260839
C62   C     C_3   0.056395 0.837898 0.475300 -0.281394
C63   C     C_3   0.565159 0.663063 0.958335 -0.264444
C64   C     C_3   0.561875 0.336625 0.475661 -0.281867
C65   C     C_3   0.780195 0.486139 0.959129 0.389839
C66   C     C_3   0.775458 0.514356 0.453044 0.476195
C67   C     C_3   0.281910 0.988730 0.974354 0.392345
C68   C     C_3   0.278500 0.014611 0.462103 0.428363
C69   C     C_3   0.703687 0.492415 0.970583 0.034217
C70   C     C_3   0.698189 0.513561 0.449169 -0.037452
C71   C     C_3   0.210767 0.007254 0.022121 0.006448
C72   C     C_3   0.201748 0.014066 0.469889 -0.016812
C73   C     C_3   0.207357 0.531649 0.899860 0.628487
C74   C     C_3   0.207918 0.467498 0.398830 0.629871
C75   C     C_3   0.719475 0.023569 0.897558 0.612028
C76   C     C_3   0.716585 0.971309 0.403678 0.587256
C77   C     C_3   0.272562 0.566781 0.954127 0.457216
C78   C     C_3   0.273330 0.431396 0.451430 0.454997
C79   C     C_3   0.788405 0.051092 0.955418 0.490707
C80   C     C_3   0.783697 0.939214 0.467820 0.515459
C81   C     C_3   0.994238 0.197014 0.450514 0.458898
C82   C     C_3   0.982712 0.800938 0.943612 0.474455
C83   C     C_3   0.494872 0.693866 0.414022 0.487975
C84   C     C_3   0.487147 0.302178 0.940047 0.465960
C85   C     C_R   0.259897 0.307867 0.988692 0.168428
C86   C     C_R   0.257575 0.693566 0.490503 0.162100
C87   C     C_R   0.751448 0.802671 0.996138 0.161504
C88   C     C_R   0.755048 0.195780 0.492490 0.155241
H1    H     H_    0.687860 0.470586 0.078680 0.206215
H2    H     H_    0.678235 0.539710 0.548756 0.163651
H3    H     H_    0.200025 0.985726 0.134292 0.183301
H4    H     H_    0.177978 0.030144 0.357492 0.122884
H5    H     H_    0.689448 0.542448 0.980627 0.131135
H6    H     H_    0.681528 0.464579 0.462036 0.121227
H7    H     H_    0.207962 0.058459 0.043235 0.092808
H8    H     H_    0.184648 0.047553 0.557615 0.160929
H9    H     H_    0.205388 0.525677 0.771131 0.084952
H10   H     H_    0.205346 0.472755 0.270147 0.081069
H11   H     H_    0.720423 0.011002 0.771888 0.033891
H12   H     H_    0.718278 0.980893 0.277308 0.087331
H13   H     H_    0.048860 0.112241 0.520619 0.032955
H14   H     H_    0.924341 0.881038 0.021609 0.014617
H15   H     H_    0.543545 0.602058 0.437858 0.036420
H16   H     H_    0.430890 0.383226 0.020819 0.035610
H17   H     H_    0.059827 0.140572 0.863016 0.164290
H18   H     H_    0.035951 0.868115 0.379163 0.201208
H19   H     H_    0.618687 0.672228 0.942121 0.076939
H20   H     H_    0.545253 0.365991 0.374276 0.188796
H21   H     H_    0.069837 0.365476 0.674573 0.097227
H22   H     H_    0.067659 0.636391 0.177080 0.095493
H23   H     H_    0.572166 0.869284 0.662450 0.095108
H24   H     H_    0.573589 0.130725 0.162636 0.087854
H25   H     H_    0.819985 0.791276 0.268381 0.125437
H26   H     H_    0.827973 0.208225 0.757617 0.124401
H27   H     H_    0.344451 0.300628 0.237768 0.117968
H28   H     H_    0.340500 0.701435 0.741916 0.140950
H29   H     H_    0.910312 0.614780 0.180143 0.052079
H30   H     H_    0.909300 0.385696 0.678641 0.051358
H31   H     H_    0.407861 0.113081 0.185471 0.045979
H32   H     H_    0.408575 0.885553 0.681774 0.048203
H33   H     H_    0.025635 0.244563 0.098898 0.104562
H34   H     H_    0.030828 0.752180 0.588569 0.111348
H35   H     H_    0.541831 0.751423 0.065563 0.106697
H36   H     H_    0.535252 0.250385 0.584545 0.110231
H37   H     H_    0.047728 0.253897 0.900557 -0.012376
H38   H     H_    0.041702 0.746043 0.383000 -0.024397
H39   H     H_    0.542729 0.752307 0.856600 -0.070489
H40   H     H_    0.544518 0.245658 0.378178 -0.034789
H41   H     H_    0.109753 0.165775 0.032329 0.111008
H42   H     H_    0.110436 0.829457 0.458750 0.102099
H43   H     H_    0.561830 0.639261 0.072225 0.179597
H44   H     H_    0.616280 0.327088 0.469971 0.088535
H45   H     H_    0.031626 0.126498 0.056866 0.204578
H46   H     H_    0.051592 0.862333 0.588790 0.194975
H47   H     H_    0.545767 0.632076 0.862312 0.189823
H48   H     H_    0.553716 0.362557 0.585716 0.200159
H49   H     H_    0.803428 0.503691 0.070006 0.050370
H50   H     H_    0.793937 0.495517 0.566987 0.021978
H51   H     H_    0.316161 0.999501 0.075555 0.051886
H52   H     H_    0.301089 0.997601 0.574380 0.055277
O1    O     O_2   0.130070 0.404060 0.104920 -0.440634
O2    O     O_2   0.130070 0.595940 0.604920 -0.442409
O3    O     O_2   0.630070 0.904060 0.104920 -0.403028
O4    O     O_2   0.630070 0.095940 0.604920 -0.416901
O5    O     O_3   0.797596 0.478048 0.328925 -0.612875
O6    O     O_3   0.800114 0.520501 0.831089 -0.618284
O7    O     O_3   0.296836 0.977650 0.335497 -0.624352
O8    O     O_3   0.298367 0.021459 0.840166 -0.625547
O9    O     O_3   0.953979 0.215381 0.936549 -0.581905
O10   O     O_3   0.950867 0.784396 0.450427 -0.599380
O11   O     O_3   0.457534 0.715132 0.951739 -0.552797
O12   O     O_3   0.455134 0.285204 0.452070 -0.596299
O13   O     O_3   0.924190 0.533610 0.949240 -0.497967
O14   O     O_3   0.924190 0.466390 0.449240 -0.499421
O15   O     O_3   0.424190 0.033610 0.949240 -0.503497
O16   O     O_3   0.424190 0.966390 0.449240 -0.505630
O17   O     O_3   0.075780 0.466370 0.861070 -0.427781
O18   O     O_3   0.075780 0.533630 0.361070 -0.426164
O19   O     O_3   0.575780 0.966370 0.861070 -0.436837
O20   O     O_3   0.575780 0.033630 0.361070 -0.435449
O21   O     O_3   0.022320 0.344950 0.359800 -0.456408
O22   O     O_3   0.022320 0.655050 0.859800 -0.457992
O23   O     O_3   0.522320 0.844950 0.359800 -0.463003
O24   O     O_3   0.522320 0.155050 0.859800 -0.470539
O25   O     O_2   0.132416 0.294825 0.255513 -0.430152
O26   O     O_2   0.128837 0.707143 0.758351 -0.430196
O27   O     O_2   0.634179 0.799220 0.255599 -0.411245
O28   O     O_2   0.630223 0.204957 0.753380 -0.429815
O29   O     O_3   0.207547 0.473211 0.972624 -0.637146
O30   O     O_3   0.208439 0.526524 0.470509 -0.631818
O31   O     O_3   0.707311 0.971228 0.987280 -0.662201
O32   O     O_3   0.706962 0.026985 0.486023 -0.627087
O33   O     O_3   0.049779 0.212015 0.358075 -0.624633
O34   O     O_3   0.041910 0.789185 0.859190 -0.574245
O35   O     O_3   0.553296 0.711787 0.336338 -0.616969
O36   O     O_3   0.545893 0.289075 0.855250 -0.579187
O37   O     O_2   0.869860 0.403670 0.205810 -0.404818
O38   O     O_2   0.869860 0.596330 0.705810 -0.399156
O39   O     O_2   0.369860 0.903670 0.205810 -0.412589
O40   O     O_2   0.369860 0.096330 0.705810 -0.407231
O41   O     O_3   0.977590 0.344880 0.951200 -0.526572
O42   O     O_3   0.977590 0.655120 0.451200 -0.525670
O43   O     O_3   0.477590 0.844880 0.951200 -0.525371
O44   O     O_3   0.477590 0.155120 0.451200 -0.525522
O45   O     O_2   0.870476 0.293153 0.067379 -0.437608
O46   O     O_2   0.868632 0.704359 0.570142 -0.434715
O47   O     O_2   0.369822 0.794176 0.062933 -0.420190
O48   O     O_2   0.368800 0.206243 0.564086 -0.436175
P1    P     P_3+3 0.136530 0.426510 0.931350 1.082436
P2    P     P_3+3 0.136530 0.573490 0.431350 1.085415
P3    P     P_3+3 0.636530 0.926510 0.931350 1.041375
P4    P     P_3+3 0.636530 0.073490 0.431350 1.080339
P5    P     P_3+3 0.863410 0.426100 0.379280 1.020330
P6    P     P_3+3 0.863410 0.573900 0.879280 1.025339
P7    P     P_3+3 0.363410 0.926100 0.379280 1.021794
P8    P     P_3+3 0.363410 0.073900 0.879280 1.015790
P9    P     P_3+3 0.915480 0.289524 0.924168 0.982029
P10   P     P_3+3 0.913937 0.710411 0.428534 0.969765
P11   P     P_3+3 0.417235 0.787987 0.924697 1.004086
P12   P     P_3+3 0.416352 0.212190 0.426467 0.966842
P13   P     P_3+3 0.079680 0.714675 0.893238 1.057539
P14   P     P_3+3 0.083754 0.287271 0.390757 1.042736
P15   P     P_3+3 0.581621 0.213566 0.888916 1.059605
P16   P     P_3+3 0.583887 0.787205 0.385011 1.061225
N1    N     N_3   0.931450 0.213761 0.365800 -0.443048
H53   H     H_    0.932127 0.196235 0.251268 0.237004
H54   H     H_    0.928742 0.262353 0.354759 0.172577
N2    N     N_3   0.924482 0.772962 0.861980 -0.518975
H55   H     H_    0.923479 0.786285 0.744541 0.233392
H56   H     H_    0.928705 0.724416 0.863051 0.184319
N3    N     N_3   0.435636 0.719291 0.328914 -0.407687
H57   H     H_    0.431471 0.767255 0.349870 0.169641
H58   H     H_    0.392972 0.698619 0.370793 0.203547
N4    N     N_3   0.428358 0.274635 0.859862 -0.508000
H59   H     H_    0.427765 0.286672 0.741606 0.245134
H60   H     H_    0.431209 0.226070 0.864138 0.180068
N5    N     N_3   0.665979 0.464290 0.838025 -0.402890
H61   H     H_    0.692480 0.468702 0.736657 0.166874
H62   H     H_    0.661846 0.416311 0.857723 0.278478
N6    N     N_3   0.668646 0.539602 0.304067 -0.498485
H63   H     H_    0.665558 0.588243 0.315462 0.231130
H64   H     H_    0.619337 0.524128 0.291952 0.243199
N7    N     N_3   0.158171 0.988888 0.907828 -0.394690
H65   H     H_    0.168671 0.006246 0.798190 0.223974
H66   H     H_    0.156755 0.940124 0.899607 0.269367
N8    N     N_3   0.177149 0.952026 0.505819 -0.438389
H67   H     H_    0.126409 0.956417 0.528454 0.226187
H68   H     H_    0.201461 0.935626 0.608235 0.152069
Cl1   Cl    Cl    0.136295 0.573741 0.954159 -0.701462
Cl2   Cl    Cl    0.137252 0.427077 0.455513 -0.703721
Cl3   Cl    Cl    0.654681 0.077364 0.927649 -0.686327
Cl4   Cl    Cl    0.647648 0.923347 0.430333 -0.693541
Cl5   Cl    Cl    0.282177 0.567886 0.162912 -0.738569
Cl6   Cl    Cl    0.284680 0.432549 0.659862 -0.728327
Cl7   Cl    Cl    0.791001 0.068528 0.161314 -0.728458
Cl8   Cl    Cl    0.839357 0.995138 0.557110 -0.509464
N9    N     N_3   0.271383 0.631780 0.901876 -0.494268
H69   H     H_    0.312794 0.654093 0.954841 0.236167
H70   H     H_    0.230572 0.655304 0.945999 0.219062
N10   N     N_3   0.271583 0.365811 0.402035 -0.501491
H71   H     H_    0.313327 0.343261 0.454458 0.227628
H72   H     H_    0.231391 0.343609 0.449609 0.217396
N11   N     N_3   0.801270 0.109399 0.875536 -0.455325
H73   H     H_    0.848239 0.125585 0.914479 0.255159
H74   H     H_    0.767165 0.143520 0.911156 0.210594
N12   N     N_3   0.770596 0.891356 0.585019 -0.472439
H75   H     H_    0.815531 0.869776 0.622527 0.231588
H76   H     H_    0.752104 0.913575 0.683657 0.151059
N13   N     N_3   0.330767 0.535133 0.889933 -0.376208
H77   H     H_    0.339363 0.493017 0.949278 0.256871
H78   H     H_    0.373384 0.561995 0.913737 0.284770
N14   N     N_3   0.330917 0.460923 0.382952 -0.409144
H79   H     H_    0.338386 0.504510 0.436316 0.296665
H80   H     H_    0.374020 0.434526 0.410903 0.261797
N15   N     N_3   0.841897 0.006086 0.922582 -0.396797
H81   H     H_    0.843186 0.971563 0.008174 0.194701
H82   H     H_    0.888328 0.027838 0.935909 0.293540
N16   N     N_3   0.818993 0.910083 0.339777 -0.511321
H83   H     H_    0.834527 0.945207 0.265409 0.235459
H84   H     H_    0.862854 0.888610 0.384687 0.247055
N17   N     N_3   0.996152 0.227506 0.604922 -0.476817
H85   H     H_    0.989041 0.275811 0.597453 0.115985
H86   H     H_    0.041779 0.216660 0.661533 0.125863
N18   N     N_3   0.988054 0.778253 0.105288 -0.512259
H87   H     H_    0.034281 0.791798 0.153884 0.176310
H88   H     H_    0.985433 0.729557 0.108615 0.102464
N19   N     N_3   0.496073 0.713809 0.579051 -0.498835
H89   H     H_    0.489826 0.762155 0.590000 0.096977
H90   H     H_    0.542120 0.700232 0.630422 0.148030
N20   N     N_3   0.492824 0.280119 0.102304 -0.517237
H91   H     H_    0.539419 0.293279 0.149664 0.176663
H92   H     H_    0.489641 0.231475 0.107030 0.099734
Cl9   Cl    Cl    0.944307 0.104060 0.635788 -0.530792
Cl10  Cl    Cl    0.955995 0.908506 0.767635 -0.593441
Cl11  Cl    Cl    0.440326 0.590444 0.558346 -0.613453
Cl12  Cl    Cl    0.457764 0.409824 0.763397 -0.571810
Cl13  Cl    Cl    0.209394 0.198935 0.466426 -0.660732
Cl14  Cl    Cl    0.211674 0.792706 0.958268 -0.638036
Cl15  Cl    Cl    0.712110 0.702913 0.459720 -0.675404
Cl16  Cl    Cl    0.711600 0.294730 0.958680 -0.660043
N21   N     N_3   0.280377 0.366275 0.054615 -0.490785
H93   H     H_    0.293433 0.395827 0.964826 0.252920
H94   H     H_    0.243528 0.384393 0.123196 0.237173
N22   N     N_3   0.278171 0.635271 0.557627 -0.452185
H95   H     H_    0.291876 0.604878 0.468678 0.276955
H96   H     H_    0.241089 0.617868 0.624768 0.236154
N23   N     N_3   0.774885 0.860720 0.054931 -0.508400
H97   H     H_    0.784070 0.888943 0.959314 0.187814
H98   H     H_    0.740501 0.878760 0.130655 0.253448
N24   N     N_3   0.776362 0.137875 0.558683 -0.421559
H99   H     H_    0.788139 0.107619 0.467774 0.307722
H100  H     H_    0.739458 0.121227 0.627686 0.241972
Cl17  Cl    Cl    0.717906 0.621776 0.749751 -0.730747
Cl18  Cl    Cl    0.716506 0.376244 0.251576 -0.692217
Cl19  Cl    Cl    0.213648 0.124872 0.773086 -0.756836
Cl20  Cl    Cl    0.220049 0.874952 0.244308 -0.633602
Cl21  Cl    Cl    0.975644 0.078396 0.313416 -0.550123
Cl22  Cl    Cl    0.036900 0.912339 0.054885 -0.578243
Cl23  Cl    Cl    0.463327 0.589369 0.227266 -0.581490
Cl24  Cl    Cl    0.543881 0.413660 0.043637 -0.601702
N25   N     N_3   0.799736 0.420846 0.936271 -0.379649
H101  H     H_    0.779813 0.404930 0.828343 0.158039
H102  H     H_    0.851435 0.419892 0.924321 0.183110
N26   N     N_3   0.799222 0.578048 0.434163 -0.372549
H103  H     H_    0.782053 0.594698 0.324679 0.171551
H104  H     H_    0.851136 0.575625 0.427037 0.177198
N27   N     N_3   0.287127 0.921828 0.941105 -0.370471
H105  H     H_    0.262047 0.911988 0.834244 0.169482
H106  H     H_    0.337292 0.911923 0.921694 0.179577
N28   N     N_3   0.299948 0.078402 0.434036 -0.392001
H107  H     H_    0.278557 0.093327 0.326439 0.159084
H108  H     H_    0.351492 0.077091 0.419614 0.180299

loop_
_geom_bond_atom_site_label_1
_geom_bond_atom_site_label_2
_ccdc_geom_bond_type
C4    Cl24  S    
C85   N21   S    
C51   C55   A    
C73   H9    S    
N23   H97   S    
C30   C38   A    
C69   H1    S    
C25   C85   A    
C71   H3    S    
C1    H13   S    
C87   N23   S    
C45   O9    S    
C13   P14   S    
C7    P3    S    
C5    P1    S    
N12   H76   S    
N19   H89   S    
Ba4   O4    S    
C34   C88   A    
C82   O34   S    
N10   H71   S    
O42   P10   S    
C68   H52   S    
N20   H91   S    
C5    C9    A    
C7    C11   A    
C8    C12   A    
C60   Cl20  S    
C73   O29   S    
C82   N18   S    
O2    P2    D    
C76   C80   S    
C61   H45   S    
C8    P4    S    
C80   N16   S    
O47   P11   D    
C3    Cl11  S    
O31   P3    S    
O9    P9    S    
C21   C25   A    
C23   C27   A    
C48   H40   S    
C24   C28   A    
O26   P13   D    
C47   H39   S    
C41   H29   S    
N28   H107  S    
C10   H22   S    
C13   C17   A    
Ba4   O24   S    
Ba3   O43   S    
C15   C19   A    
N3    H57   S    
C77   Cl5   S    
C75   O31   S    
C74   C78   S    
C43   H31   S    
N7    H65   S    
C32   C36   A    
C12   C16   A    
C68   O7    S    
O48   P12   D    
C62   H18   S    
N8    H68   S    
Ba3   O20   S    
O15   P8    S    
N18   H88   S    
Ba1   O18   S    
O30   P2    S    
C86   N22   S    
C11   H23   S    
C64   H48   S    
C2    Cl10  S    
C67   H51   S    
Ba4   P4    S    
N15   H82   S    
C81   N1    S    
Ba1   O41   S    
C72   H8    S    
C69   N5    S    
O45   P9    D    
Ba4   O44   S    
C71   N7    S    
C47   H35   S    
N21   H94   S    
C47   O11   S    
C72   H4    S    
C28   C88   A    
Ba2   O13   S    
N2    H55   S    
C29   C57   A    
C65   H49   S    
C79   N11   S    
C67   O8    S    
C37   C41   A    
Ba1   P1    S    
C42   H30   S    
C31   C59   A    
C77   N13   S    
C32   C60   A    
C1    Cl21  S    
C35   C85   A    
C33   C53   A    
C40   C44   A    
C3    Cl23  S    
Ba3   O3    S    
C36   C56   A    
O43   P11   S    
C76   Cl4   S    
Ba1   O1    S    
O37   P5    D    
Ba3   O23   S    
C70   H6    S    
O8    P8    S    
C65   O6    S    
N23   H98   S    
N13   H77   S    
C77   N9    S    
O33   P14   S    
N9    H69   S    
C64   H20   S    
C17   Cl13  S    
C62   H42   S    
N25   H102  S    
N14   H80   S    
O22   P13   S    
C63   H47   S    
C1    C81   S    
C41   C49   A    
Ba3   O15   S    
C75   H11   S    
O11   P11   S    
N26   H104  S    
O16   P7    S    
C57   Cl17  S    
C18   Cl14  S    
O46   P10   D    
O44   P12   S    
O32   P4    S    
C4    C84   S    
N22   H96   S    
C66   C70   S    
N5    H61   S    
N4    H60   S    
C62   H46   S    
C74   Cl2   S    
C71   H7    S    
N1    H53   S    
Ba4   O19   S    
O17   P1    S    
C47   C63   S    
C65   C69   S    
N17   H86   S    
N7    H66   S    
C22   C26   A    
C27   C87   A    
N27   H106  S    
C15   P16   S    
C3    H15   S    
C6    C26   A    
Ba3   Ba4   S    
C70   N6    S    
C17   C21   A    
C14   C18   A    
O28   P15   D    
Ba1   P5    S    
C20   C24   A    
O20   P4    S    
N16   H83   S    
C19   Cl15  S    
C50   P9    S    
C59   Cl19  S    
C2    C82   S    
C9    C13   A    
C36   C86   A    
O23   P16   S    
C75   Cl3   S    
C68   N28   S    
C39   C43   A    
C84   N4    S    
N20   H92   S    
Ba4   P8    S    
C16   P15   S    
Ba3   O39   S    
C6    C10   A    
C24   C58   A    
C74   H10   S    
C70   H2    S    
C26   C86   A    
N6    H63   S    
C48   H36   S    
C52   P11   S    
C11   C15   A    
C76   H12   S    
C14   P13   S    
Ba1   O14   S    
C82   N2    S    
C6    P2    S    
C50   C54   A    
N24   H99   S    
Ba4   O15   S    
N28   H108  S    
C88   N24   S    
C30   C58   A    
C44   C52   A    
C38   C42   A    
O41   P9    S    
C2    Cl22  S    
C34   C54   A    
C3    C83   S    
C79   N15   S    
C39   P8    S    
O36   P15   S    
Ba2   O22   S    
O1    P1    D    
C30   C34   A    
C78   N14   S    
C66   O5    S    
C12   H24   S    
O10   P10   S    
C84   O36   S    
N11   H74   S    
C80   N12   S    
O25   P14   D    
C49   C53   A    
N12   H75   S    
C29   C33   A    
C52   C56   A    
Ba2   P2    S    
C63   H43   S    
N21   H93   S    
O19   P3    S    
Ba2   O14   S    
C35   C55   A    
C42   C50   A    
O24   P15   S    
C61   H17   S    
C63   H19   S    
N2    H56   S    
O29   P1    S    
C48   O12   S    
C53   H25   S    
C72   N8    S    
O35   P16   S    
C55   H27   S    
C38   P5    S    
C45   H33   S    
C49   P10   S    
C29   C37   A    
C75   C79   S    
C51   P12   S    
C56   H28   S    
N8    H67   S    
Ba3   P3    S    
N18   H87   S    
C81   O33   S    
C73   C77   S    
C18   C22   A    
C83   N3    S    
C65   N25   S    
O6    P6    S    
C67   C71   S    
N27   H105  S    
C10   C14   A    
C31   C35   A    
O38   P6    D    
C68   C72   S    
Ba1   O37   S    
C69   H5    S    
C45   C61   S    
N25   H101  S    
O13   P6    S    
N3    H58   S    
Ba2   O38   S    
O34   P13   S    
C54   H26   S    
O14   P5    S    
Ba1   Ba2   S    
C21   C59   A    
C22   C60   A    
C84   N20   S    
C46   H38   S    
C83   N19   S    
O4    P4    D    
C20   Cl16  S    
N10   H72   S    
Ba3   P7    S    
O3    P3    D    
C46   H34   S    
C19   C23   A    
C23   C57   A    
O21   P14   S    
C48   C64   S    
C5    C25   A    
C7    C27   A    
C8    C28   A    
O7    P7    S    
C80   Cl8   S    
C4    H16   S    
Ba2   O17   S    
C4    Cl12  S    
C2    H14   S    
C79   Cl7   S    
C66   H50   S    
C33   C87   A    
C81   N17   S    
C64   H44   S    
C1    Cl9   S    
C76   O32   S    
N13   H78   S    
N16   H84   S    
O40   P8    D    
C45   H37   S    
O39   P7    D    
N9    H70   S    
Ba2   O42   S    
Ba1   O21   S    
N14   H79   S    
O18   P2    S    
C73   Cl1   S    
C78   N10   S    
Ba4   O40   S    
C46   C62   S    
C66   N26   S    
Ba3   O16   S    
C58   Cl18  S    
N15   H81   S    
O12   P12   S    
C67   N27   S    
C31   C39   A    
N26   H103  S    
C43   C51   A    
N17   H85   S    
N19   H90   S    
Ba2   P6    S    
C37   P6    S    
N6    H64   S    
C44   H32   S    
N11   H73   S    
Ba2   O2    S    
N22   H95   S    
Ba1   O13   S    
N5    H62   S    
N24   H100  S    
N4    H59   S    
Ba4   O16   S    
C46   O10   S    
C78   Cl6   S    
N1    H54   S    
C16   C20   A    
C61   H41   S    
C32   C40   A    
C83   O35   S    
C40   P7    S    
C74   O30   S    
O27   P16   D    
C9    H21   S    
O5    P5    S    
