data_mof_unit_32203.cif
_audit_creation_date              2012-12-10T18:09:45-0500
_audit_creation_method            fapswitch 2.2
_symmetry_space_group_name_H-M    P1
_symmetry_Int_Tables_number       1
_space_group_crystal_system       triclinic
_cell_length_a                    10.701894
_cell_length_b                    12.578927
_cell_length_c                    13.337513
_cell_angle_alpha                 83.603404
_cell_angle_beta                  89.318277
_cell_angle_gamma                 99.893533
_cell_volume                      1756.87774806

loop_
_atom_site_label
_atom_site_type_symbol
_atom_type_description
_atom_site_fract_x
_atom_site_fract_y
_atom_site_fract_z
_atom_type_partial_charge
C1    C     C_R   0.484294 0.440152 0.690579 0.861104
C2    C     C_3   0.119466 0.497842 0.514850 0.000131
C3    C     C_3   0.084091 0.561883 0.416146 -0.446359
C4    C     C_3   0.078474 0.551109 0.609732 0.979175
C5    C     C_R   0.514703 0.723891 0.062318 -0.199506
C6    C     C_R   0.546628 0.595325 0.202371 -0.169098
C7    C     C_R   0.543454 0.309374 0.823269 -0.151521
C8    C     C_R   0.603720 0.294222 0.913428 -0.162851
C9    C     C_R   0.613433 0.372643 0.979786 -0.190105
C10   C     C_R   0.550980 0.463540 0.962857 0.103884
C11   C     C_R   0.491855 0.479595 0.869469 0.083445
C12   C     C_R   0.740692 0.497413 0.502125 0.819206
C13   C     C_R   0.548048 0.541408 0.032781 -0.031582
C14   C     C_R   0.508704 0.641799 0.999322 0.107555
C15   C     C_R   0.453027 0.656026 0.906804 -0.237787
C16   C     C_R   0.435338 0.572434 0.847315 -0.222002
C17   C     C_R   0.570192 0.520054 0.136580 0.442678
C18   C     C_R   0.535286 0.700909 0.163800 -0.210679
C19   C     C_R   0.495774 0.405357 0.797617 -0.124138
C20   C     C_R   0.421841 0.118301 0.305833 0.442827
C21   C     C_R   0.624789 0.789936 0.643250 -0.036477
C22   C     C_R   0.660049 0.892389 0.673773 -0.238422
C23   C     C_R   0.522008 0.559758 0.309823 0.932742
C24   C     C_R   0.633892 0.984456 0.614145 0.016797
C25   C     C_R   0.564155 0.970877 0.524575 -0.046918
C26   C     C_R   0.537016 0.864560 0.493786 0.119104
C27   C     C_R   0.513547 0.055057 0.465481 -0.052537
C28   C     C_R   0.477431 0.040303 0.365043 0.036572
C29   C     C_R   0.483169 0.941839 0.329216 -0.236351
C30   C     C_R   0.479950 0.851868 0.399901 -0.040359
C31   C     C_R   0.485841 0.148222 0.504020 -0.050563
C32   C     C_R   0.399249 0.209107 0.348959 -0.035733
C33   C     C_R   0.257850 0.498725 0.507546 0.925122
C34   C     C_3   0.905231 0.375744 0.502271 -0.112146
C35   C     C_3   0.046655 0.377828 0.520278 -0.503962
C36   C     C_3   0.944490 0.571507 0.419419 -0.478930
C37   C     C_3   0.926675 0.534154 0.609676 -0.307616
C38   C     C_3   0.876018 0.492877 0.508073 -0.016772
H1    H     H_    0.935067 0.656647 0.429037 0.212067
H2    H     H_    0.138282 0.644916 0.405511 0.244554
H3    H     H_    0.530808 0.762900 0.212826 0.212091
H4    H     H_    0.415162 0.729190 0.883287 0.153464
H5    H     H_    0.492347 0.802716 0.035068 0.160954
H6    H     H_    0.546948 0.251623 0.769239 0.182885
H7    H     H_    0.676091 0.361330 0.040263 0.193935
H8    H     H_    0.650156 0.224457 0.929282 0.182564
H9    H     H_    0.850273 0.318994 0.562956 0.206563
H10   H     H_    0.379892 0.583486 0.781584 0.196404
H11   H     H_    0.358364 0.271479 0.305319 0.155473
H12   H     H_    0.450870 0.929108 0.253964 0.220836
H13   H     H_    0.503948 0.163697 0.580764 0.122983
H14   H     H_    0.648842 0.720404 0.689128 0.154106
H15   H     H_    0.712785 0.899765 0.742226 0.188571
H16   H     H_    0.059019 0.333286 0.595334 0.246112
H17   H     H_    0.085567 0.331858 0.464142 0.197068
H18   H     H_    0.902840 0.554786 0.345867 0.158458
H19   H     H_    0.105568 0.521042 0.349663 0.191853
H20   H     H_    0.894341 0.612071 0.613692 0.111669
N1    N     N_R   0.433240 0.222190 0.444680 -0.136137
N2    N     N_R   0.566070 0.776970 0.554790 -0.128188
O1    O     O_R   0.468120 0.366740 0.627160 -0.622486
O2    O     O_R   0.510770 0.544830 0.662520 -0.639690
O3    O     O_R   0.663880 0.410950 0.482330 -0.596269
O4    O     O_R   0.706530 0.589040 0.517700 -0.637657
O5    O     O_R   0.489230 0.455170 0.337480 -0.575863
O6    O     O_R   0.531880 0.633260 0.372840 -0.613462
O7    O     O_R   0.293470 0.410960 0.482300 -0.637173
O8    O     O_R   0.336120 0.589050 0.517670 -0.598052
Zn1   Zn    Zn3+2 0.471520 0.381090 0.476390 0.977304
Zn2   Zn    Zn3+2 0.528480 0.618910 0.523610 0.952291
C39   C     C_2   0.871323 0.331262 0.403242 0.393317
H21   H     H_    0.921398 0.369405 0.333813 0.059767
O9    O     O_2   0.790881 0.250081 0.400919 -0.591169
O10   O     O_3   0.145105 0.661682 0.595922 -0.648286
C40   C     C_3   0.082634 0.743381 0.626816 -0.441125
H22   H     H_    0.021192 0.770589 0.566142 0.191369
H23   H     H_    0.155694 0.814742 0.637906 0.210855
H24   H     H_    0.028390 0.719066 0.699468 0.155833
O11   O     O_3   0.593946 0.419551 0.176085 -0.630740
C41   C     C_3   0.719654 0.431533 0.209449 -0.344664
H25   H     H_    0.725699 0.462994 0.283656 0.182207
H26   H     H_    0.788929 0.484653 0.154310 0.134385
H27   H     H_    0.747310 0.350174 0.218177 0.216470
O12   O     O_3   0.375494 0.098152 0.211941 -0.631228
C42   C     C_3   0.442449 0.175324 0.136974 -0.254182
H28   H     H_    0.547124 0.184488 0.145454 0.174379
H29   H     H_    0.410636 0.254873 0.136679 0.201987
H30   H     H_    0.421015 0.146804 0.062298 0.193367
C43   C     C_2   0.696269 0.091999 0.640149 0.363984
H31   H     H_    0.713822 0.160716 0.582658 0.116910
O13   O     O_2   0.730882 0.104545 0.725634 -0.565352
C44   C     C_2   0.362188 0.775188 0.395679 0.465848
H32   H     H_    0.297873 0.761588 0.460544 0.122096
O14   O     O_2   0.329578 0.737524 0.317608 -0.625495
C45   C     C_2   0.858603 0.462757 0.700731 0.353836
H33   H     H_    0.780704 0.489269 0.738199 0.065023
O15   O     O_2   0.887038 0.375243 0.731626 -0.518158
O16   O     O_3   0.122947 0.493591 0.696837 -0.629178
C46   C     C_3   0.122091 0.547424 0.784540 -0.229484
H34   H     H_    0.026227 0.560423 0.806357 0.140176
H35   H     H_    0.188186 0.626212 0.776325 0.173318
H36   H     H_    0.154376 0.495517 0.848313 0.188775

loop_
_geom_bond_atom_site_label_1
_geom_bond_atom_site_label_2
_ccdc_geom_bond_type
C2    C35   S    
C9    H7    S    
C4    O16   S    
C45   H33   S    
C24   C43   S    
C16   H10   S    
C7    C8    A    
C42   H28   S    
C11   C19   A    
C29   C30   A    
C23   O6    A    
C28   C29   A    
C12   O4    A    
C15   C16   A    
C17   O11   S    
O2    Zn2   S    
C34   C35   S    
C31   N1    A    
O3    Zn1   S    
C8    C9    A    
O4    Zn2   S    
C43   O13   D    
C9    C10   A    
C4    O10   S    
C37   H20   S    
C5    H5    S    
C21   C22   A    
C1    O2    A    
C35   H16   S    
C41   H27   S    
C22   H15   S    
C29   H12   S    
C42   H29   S    
C6    C18   A    
C1    C19   S    
O10   C40   S    
C27   C31   A    
C24   C25   A    
C21   N2    A    
C30   C44   S    
C18   H3    S    
C39   O9    D    
C12   O3    A    
C5    C18   A    
C20   C28   A    
C25   C26   A    
C35   H17   S    
O7    Zn1   S    
C2    C4    S    
C40   H22   S    
C37   C38   S    
C36   H18   S    
C11   C16   A    
C46   H34   S    
N2    Zn2   S    
C44   O14   D    
C7    H6    S    
O12   C42   S    
C40   H23   S    
C5    C14   A    
N1    Zn1   S    
C3    H19   S    
C2    C33   S    
C41   H26   S    
C46   H35   S    
C3    H2    S    
C26   C30   A    
C7    C19   A    
C20   O12   S    
C22   C24   A    
C33   O7    A    
C20   C32   A    
C42   H30   S    
O1    Zn1   S    
C6    C17   A    
C34   C38   S    
C36   H1    S    
C15   H4    S    
C31   H13   S    
C41   H25   S    
C10   C13   A    
C1    O1    A    
C45   O15   D    
C25   C27   A    
C13   C17   A    
C23   O5    A    
C36   C38   S    
C2    C3    S    
C39   H21   S    
O6    Zn2   S    
C3    C36   S    
O5    Zn1   S    
C6    C23   S    
C44   H32   S    
C12   C38   S    
C40   H24   S    
C8    H8    S    
C32   H11   S    
C37   C45   S    
C10   C11   A    
O11   C41   S    
C46   H36   S    
C4    C37   S    
O8    Zn2   S    
O16   C46   S    
C27   C28   A    
C14   C15   A    
C34   H9    S    
C32   N1    A    
C43   H31   S    
C13   C14   A    
C26   N2    A    
C34   C39   S    
C21   H14   S    
C33   O8    A    
