data_mof_unit_35536.cif
_audit_creation_date              2012-12-10T16:51:27-0500
_audit_creation_method            fapswitch 2.2
_symmetry_space_group_name_H-M    P1
_symmetry_Int_Tables_number       1
_space_group_crystal_system       triclinic
_cell_length_a                    7.821235
_cell_length_b                    8.595016
_cell_length_c                    12.195331
_cell_angle_alpha                 92.4678
_cell_angle_beta                  100.859706
_cell_angle_gamma                 94.233572
_cell_volume                      801.576627869

loop_
_atom_site_label
_atom_site_type_symbol
_atom_type_description
_atom_site_fract_x
_atom_site_fract_y
_atom_site_fract_z
_atom_type_partial_charge
C1    C     C_R   0.044989 0.794386 0.497617 0.856370
C2    C     C_R   0.163533 0.521520 0.830569 -0.116014
C3    C     C_2   0.070794 0.957170 0.497046 0.445269
C4    C     C_R   0.106046 0.504993 0.710013 0.859162
C5    C     C_2   0.934983 0.041637 0.504936 -0.533850
C6    C     C_R   0.956019 0.205278 0.503132 0.978017
C7    C     C_R   0.893313 0.491058 0.290081 0.879134
C8    C     C_R   0.833854 0.341768 0.993331 -0.179425
C9    C     C_R   0.835635 0.477300 0.170151 -0.089665
C10   C     C_R   0.081790 0.625059 0.891347 -0.291132
C11   C     C_R   0.170934 0.693387 0.992728 -0.186103
C12   C     C_R   0.419038 0.539787 0.979978 -0.063279
C13   C     C_R   0.341977 0.660445 0.033574 0.602962
C14   C     C_R   0.323561 0.466187 0.878948 0.009496
C15   C     C_R   0.587956 0.491496 0.020328 0.089905
C16   C     C_R   0.664133 0.384580 0.955141 0.157822
C17   C     C_R   0.564844 0.311286 0.857842 -0.213863
C18   C     C_R   0.393290 0.344401 0.824223 -0.151510
C19   C     C_R   0.676304 0.533768 0.128230 -0.196222
C20   C     C_R   0.920558 0.389125 0.101153 -0.170084
F1    F     F_    0.431861 0.758885 0.118089 -0.686490
F2    F     F_    0.233433 0.018663 0.488537 -0.638399
H1    H     H_    0.045890 0.346003 0.133292 0.166642
H2    H     H_    0.316351 0.275905 0.752858 0.171574
H3    H     H_    0.806602 0.990153 0.512169 0.178618
H4    H     H_    0.470226 0.375404 0.416659 0.212609
H5    H     H_    0.529782 0.624484 0.583427 0.199006
H6    H     H_    0.617096 0.222777 0.810534 0.155141
H7    H     H_    0.894406 0.263781 0.942773 0.141664
H8    H     H_    0.614524 0.595306 0.186323 0.234181
H9    H     H_    0.956577 0.665620 0.855483 0.189681
H10   H     H_    0.112552 0.782790 0.035121 0.182083
N1    N     N_2   0.434800 0.456690 0.470850 -0.148424
N2    N     N_2   0.565200 0.543310 0.529150 -0.160246
O1    O     O_R   0.893060 0.738880 0.507150 -0.650330
O2    O     O_R   0.172250 0.711130 0.488470 -0.573882
O3    O     O_R   0.944700 0.520730 0.667600 -0.619944
O4    O     O_R   0.223890 0.492980 0.648920 -0.624769
O5    O     O_R   0.827750 0.288870 0.511530 -0.622007
O6    O     O_R   0.106940 0.261120 0.492850 -0.536343
O7    O     O_R   0.776110 0.507020 0.351080 -0.621270
O8    O     O_R   0.055300 0.479270 0.332400 -0.611938
Zn1   Zn    Zn3+2 0.813580 0.518530 0.512470 0.963495
Zn2   Zn    Zn3+2 0.186420 0.481470 0.487530 1.012360

loop_
_geom_bond_atom_site_label_1
_geom_bond_atom_site_label_2
_ccdc_geom_bond_type
O3    Zn1   S    
C2    C4    S    
C20   H1    S    
O4    Zn2   S    
O1    Zn1   S    
C14   C18   A    
H4    N1    S    
C12   C15   A    
O6    Zn2   S    
N1    N2    D    
C13   F1    S    
C19   H8    S    
C8    C16   A    
C12   C13   A    
C15   C19   A    
O7    Zn1   S    
C8    C20   A    
O8    Zn2   S    
C18   H2    S    
C8    H7    S    
C12   C14   A    
C11   H10   S    
C17   C18   A    
C6    O6    A    
C7    O7    A    
H5    N2    S    
C5    C6    S    
C2    C14   A    
C5    H3    S    
O2    Zn2   S    
C10   C11   A    
C15   C16   A    
C2    C10   A    
C3    C5    D    
C11   C13   A    
C4    O3    A    
C1    O1    A    
C7    O8    A    
C7    C9    S    
C6    O5    A    
C3    F2    S    
O5    Zn1   S    
C9    C20   A    
C1    C3    S    
C17   H6    S    
C10   H9    S    
C9    C19   A    
N2    Zn1   S    
C1    O2    A    
C4    O4    A    
C16   C17   A    
N1    Zn2   S    
