data_mof_unit_25489.cif
_audit_creation_date              2013-03-05T15:49:56-0500
_audit_creation_method            fapswitch 2.2
_symmetry_space_group_name_H-M    P1
_symmetry_Int_Tables_number       1
_space_group_crystal_system       triclinic
_cell_length_a                    6.945339
_cell_length_b                    19.903471
_cell_length_c                    23.751145
_cell_angle_alpha                 93.502576
_cell_angle_beta                  91.294492
_cell_angle_gamma                 88.550244
_cell_volume                      3275.36088881

loop_
_atom_site_label
_atom_site_type_symbol
_atom_site_description
_atom_site_fract_x
_atom_site_fract_y
_atom_site_fract_z
_atom_type_partial_charge
O1    O     O_R   0.620100 0.812200 0.810870 -0.598953
O2    O     O_R   0.379900 0.187800 0.189130 -0.599154
O3    O     O_R   0.296960 0.671650 0.794750 -0.593257
O4    O     O_R   0.703040 0.328350 0.205250 -0.592349
O5    O     O_R   0.120160 0.687800 0.689130 -0.597922
O6    O     O_R   0.879840 0.312200 0.310870 -0.601255
C1    C     C_R   0.468693 0.646865 0.804359 0.921797
C2    C     C_R   0.531307 0.353134 0.195639 0.923926
O7    O     O_R   0.290810 0.810670 0.817290 -0.602604
O8    O     O_R   0.709190 0.189330 0.182710 -0.601210
O9    O     O_R   0.113980 0.827820 0.711840 -0.578826
O10   O     O_R   0.886020 0.172180 0.288160 -0.592616
C3    C     C_R   0.459461 0.831790 0.834300 0.948070
C4    C     C_R   0.540535 0.168218 0.165694 0.946369
O11   O     O_R   0.626290 0.672180 0.788160 -0.594160
O12   O     O_R   0.373710 0.327820 0.211840 -0.593339
O13   O     O_3   0.451520 0.755460 0.715370 -0.256237
O14   O     O_3   0.548480 0.244540 0.284630 -0.264980
V1    V     V_3+5 0.179200 0.748980 0.756420 1.170543
V2    V     V_3+5 0.820800 0.251020 0.243580 1.160693
O15   O     O_R   0.783880 0.828350 0.705250 -0.576836
O16   O     O_R   0.216120 0.171650 0.294750 -0.578047
C5    C     C_R   0.950018 0.852422 0.694317 0.938806
C6    C     C_R   0.050445 0.147407 0.305518 0.952154
O17   O     O_R   0.790030 0.689320 0.682700 -0.596375
O18   O     O_R   0.209970 0.310680 0.317300 -0.593150
C7    C     C_R   0.958979 0.668225 0.665651 0.957995
C8    C     C_R   0.041032 0.331709 0.334393 0.967346
V3    V     V_3+5 0.678400 0.751010 0.743570 1.184455
V4    V     V_3+5 0.321600 0.248990 0.256430 1.177077
O19   O     O_3   0.955950 0.744540 0.784620 -0.280739
O20   O     O_3   0.044050 0.255460 0.215380 -0.278750
C9    C     C_R   0.181358 0.425691 0.396426 -0.243832
C10   C     C_R   0.818875 0.574059 0.603750 -0.242079
C11   C     C_R   0.031013 0.380616 0.384086 -0.142574
C12   C     C_R   0.969119 0.619193 0.616041 -0.148496
C13   C     C_R   0.868917 0.383350 0.418816 -0.193448
C14   C     C_R   0.131357 0.616375 0.581364 -0.216512
C15   C     C_R   0.856752 0.430089 0.465463 0.138038
C16   C     C_R   0.143656 0.569561 0.534775 0.138839
C17   C     C_R   0.006608 0.475840 0.476964 0.031361
C18   C     C_R   0.993821 0.523799 0.523288 0.032352
C19   C     C_R   0.169043 0.473804 0.442153 0.153517
C20   C     C_R   0.831342 0.525862 0.558083 0.148628
C21   C     C_R   0.697159 0.432001 0.500809 -0.173232
C22   C     C_R   0.303299 0.567626 0.499449 -0.184562
C23   C     C_R   0.684725 0.479375 0.546732 -0.210026
C24   C     C_R   0.315716 0.520262 0.453522 -0.216518
H1    H     H_    0.306102 0.424287 0.369696 0.129821
H2    H     H_    0.694071 0.575505 0.630458 0.131488
H3    H     H_    0.752890 0.348590 0.409851 0.148676
H4    H     H_    0.247354 0.651156 0.590304 0.156712
H5    H     H_    0.581052 0.397113 0.492717 0.158254
H6    H     H_    0.419397 0.602519 0.507539 0.156884
H7    H     H_    0.559508 0.479932 0.573178 0.144879
H8    H     H_    0.440919 0.519711 0.427071 0.141943
C25   C     C_R   0.951344 0.914537 0.663138 -0.129208
C26   C     C_R   0.056477 0.085827 0.337558 -0.143689
C27   C     C_R   0.902232 0.035183 0.662824 -0.121971
C28   C     C_R   0.178839 0.971653 0.343860 -0.134599
C29   C     C_R   0.900933 0.975927 0.691075 -0.160929
C30   C     C_R   0.139606 0.027235 0.312381 -0.164407
C31   C     C_R   0.001784 0.913012 0.605926 -0.101755
C32   C     C_R   0.011928 0.087944 0.395300 -0.141897
C33   C     C_R   0.015971 0.973455 0.576974 0.138181
C34   C     C_R   0.068588 0.034102 0.429804 0.139287
C35   C     C_R   0.957751 0.034445 0.606254 0.118815
C36   C     C_R   0.145995 0.974704 0.402083 0.122976
C37   C     C_R   0.077904 0.975348 0.519574 -0.123993
C38   C     C_R   0.049055 0.036332 0.490284 -0.125221
C39   C     C_R   0.010933 0.097249 0.523350 0.367627
C40   C     C_R   0.174630 0.919829 0.490802 0.364212
C41   C     C_R   0.960580 0.094959 0.579781 -0.304528
C42   C     C_R   0.200411 0.919588 0.432717 -0.321452
H9    H     H_    0.929799 0.141786 0.604051 0.176912
H10   H     H_    0.272910 0.876598 0.411497 0.176778
H11   H     H_    0.935885 0.132299 0.412135 0.149348
H12   H     H_    0.022226 0.864042 0.584608 0.136977
H13   H     H_    0.177098 0.024917 0.268247 0.109733
H14   H     H_    0.859970 0.977941 0.734910 0.109034
H15   H     H_    0.860649 0.082031 0.685500 0.119678
H16   H     H_    0.242065 0.926750 0.322895 0.119186
C43   C     C_R   0.489724 0.585396 0.835546 -0.100759
C44   C     C_R   0.510275 0.414602 0.164451 -0.101010
C45   C     C_R   0.604727 0.470006 0.837944 -0.172159
C46   C     C_R   0.395264 0.529991 0.162051 -0.173958
C47   C     C_R   0.565296 0.526898 0.808105 -0.159653
C48   C     C_R   0.434698 0.473100 0.191891 -0.161440
C49   C     C_R   0.454348 0.586854 0.893600 -0.248144
C50   C     C_R   0.545651 0.413143 0.106396 -0.247803
C51   C     C_R   0.498494 0.529936 0.925532 0.109061
C52   C     C_R   0.501502 0.470060 0.074464 0.108911
C53   C     C_R   0.574051 0.471153 0.896184 0.181780
C54   C     C_R   0.425943 0.528843 0.103812 0.183285
C55   C     C_R   0.474168 0.529590 0.985404 0.061722
C56   C     C_R   0.525827 0.470406 0.014592 0.061362
C57   C     C_R   0.599102 0.413495 0.982903 -0.197954
C58   C     C_R   0.400891 0.586501 0.017093 -0.198057
C59   C     C_R   0.621946 0.414019 0.925070 -0.235251
C60   C     C_R   0.378045 0.585977 0.074926 -0.236691
H17   H     H_    0.679710 0.369102 0.902698 0.135082
H18   H     H_    0.320280 0.630894 0.097297 0.134336
H19   H     H_    0.600658 0.366209 0.087439 0.104998
H20   H     H_    0.399344 0.633788 0.912558 0.104791
H21   H     H_    0.404351 0.474440 0.236511 0.108654
H22   H     H_    0.595641 0.525558 0.763485 0.110197
H23   H     H_    0.663377 0.425264 0.815566 0.122169
H24   H     H_    0.336612 0.574733 0.184429 0.120229
H25   H     H_    0.641459 0.367290 0.001508 0.131715
H26   H     H_    0.358532 0.632706 0.998488 0.131506
C61   C     C_R   0.685371 0.074180 0.103822 -0.255077
C62   C     C_R   0.314639 0.925854 0.896149 -0.252959
C63   C     C_R   0.530112 0.119161 0.116096 -0.143839
C64   C     C_R   0.469883 0.880861 0.883887 -0.143813
C65   C     C_R   0.363106 0.116241 0.081349 -0.258961
C66   C     C_R   0.636890 0.883786 0.918632 -0.259434
C67   C     C_R   0.351052 0.069537 0.034667 0.150675
C68   C     C_R   0.648957 0.930500 0.965305 0.151237
C69   C     C_R   0.506170 0.023950 0.023187 0.027326
C70   C     C_R   0.493843 0.976090 0.976781 0.027218
C71   C     C_R   0.673473 0.026076 0.058083 0.149837
C72   C     C_R   0.326542 0.973965 0.941884 0.149098
C73   C     C_R   0.186518 0.067556 0.999223 -0.218701
C74   C     C_R   0.813500 0.932486 0.000745 -0.219282
C75   C     C_R   0.174521 0.020286 0.953214 -0.207483
C76   C     C_R   0.825502 0.979758 0.046750 -0.208609
H27   H     H_    0.813963 0.075692 0.130582 0.135192
H28   H     H_    0.186055 0.924344 0.869384 0.135285
H29   H     H_    0.243148 0.150895 0.090282 0.140687
H30   H     H_    0.756841 0.849127 0.909704 0.140318
H31   H     H_    0.066316 0.102332 0.007286 0.141701
H32   H     H_    0.933701 0.897709 0.992682 0.141423
H33   H     H_    0.045496 0.019685 0.926681 0.141994
H34   H     H_    0.954533 0.980362 0.073281 0.141704
N1    N     N_R   0.052753 0.162117 0.503908 0.221324
O21   O     O_R   0.218256 0.171669 0.481395 -0.398049
O22   O     O_R   0.941507 0.214007 0.517218 -0.401997
N2    N     N_R   0.276097 0.868535 0.520456 0.221961
O23   O     O_R   0.390028 0.885471 0.562962 -0.402443
O24   O     O_R   0.280275 0.806493 0.499647 -0.416931

loop_
_geom_bond_atom_site_label_1
_geom_bond_atom_site_label_2
_geom_bond_distance
_ccdc_geom_bond_type
C26   C30   1.395430 A    
C43   C47   1.395604 A    
C31   C33   1.428266 A    
C58   H26   1.075937 S    
C61   C71   1.405897 A    
O13   V3    1.700578 S    
C17   C18   1.414707 A    
C1    C43   1.470924 S    
C55   C56   1.436708 A    
C24   H8    1.083668 S    
O4    C2    1.299910 A    
V1    O19   1.709297 S    
C62   C64   1.408117 A    
C55   C58   1.411569 A    
N1    O21   1.301757 A    
C15   C17   1.411304 A    
C16   C22   1.403845 A    
O9    V1    1.983440 S    
C18   C20   1.412009 A    
C23   H7    1.083668 S    
C40   N2    1.436671 S    
C11   C13   1.408620 A    
O3    C1    1.299908 A    
C67   C69   1.411339 A    
C39   N1    1.436125 S    
C13   H3    1.084368 S    
C46   C48   1.390356 A    
C73   C75   1.400150 A    
C14   H4    1.084397 S    
C34   C36   1.417360 A    
C29   H14   1.083624 S    
C36   C42   1.392756 A    
C52   C56   1.436259 A    
C74   H32   1.083756 S    
C28   C30   1.390584 A    
C32   H11   1.077507 S    
C21   C23   1.400240 A    
O7    C3    1.301825 A    
C46   C54   1.403048 A    
C27   C35   1.405307 A    
O5    C7    1.297406 A    
C28   H16   1.084054 S    
O7    V1    1.994807 S    
O6    C8    1.297497 A    
C8    C11   1.485044 S    
O8    V2    1.994808 S    
C33   C35   1.416134 A    
C42   H10   1.084739 S    
O3    V1    1.985079 S    
C38   C39   1.426103 A    
C35   C41   1.393086 A    
C49   C51   1.424606 A    
C19   C24   1.403716 A    
C53   C59   1.392974 A    
C10   C12   1.408086 A    
C3    C64   1.485067 S    
C20   C23   1.403745 A    
C15   C21   1.403863 A    
C45   C47   1.390358 A    
C21   H5    1.083715 S    
C2    O12   1.292523 A    
C26   C32   1.410613 A    
C17   C19   1.411994 A    
C22   H6    1.083718 S    
C44   C50   1.404468 A    
O1    V3    1.992159 S    
C57   C59   1.386985 A    
C70   C72   1.411952 A    
O11   V3    1.990835 S    
C69   C71   1.411948 A    
O17   V3    1.996104 S    
C43   C49   1.404463 A    
C22   C24   1.400183 A    
C10   H2    1.084404 S    
C27   C29   1.392408 A    
C9    C19   1.405996 A    
C44   C48   1.395602 A    
C30   H13   1.083765 S    
C10   C20   1.406104 A    
C40   C42   1.394850 A    
O8    C4    1.301836 A    
C39   C41   1.396505 A    
C1    O11   1.292521 A    
C65   C67   1.405094 A    
O15   V3    1.998245 S    
C32   C34   1.430480 A    
C37   C40   1.424887 A    
C62   C72   1.405915 A    
V4    O20   2.144990 S    
C51   C53   1.419836 A    
C57   H25   1.075939 S    
C50   C52   1.424607 A    
C45   C53   1.403051 A    
C54   C60   1.392971 A    
V3    O19   2.144991 S    
C56   C57   1.411569 A    
O10   V2    1.983442 S    
C5    C25   1.479763 S    
C60   H18   1.084421 S    
C61   C63   1.408105 A    
C68   C74   1.403868 A    
C76   H34   1.083712 S    
N2    O24   1.301623 A    
O14   V4    1.700578 S    
C59   H17   1.084423 S    
O18   V4    1.996103 S    
C58   C60   1.386982 A    
O15   C5    1.298133 A    
C49   H20   1.076868 S    
C61   H27   1.084395 S    
O16   C6    1.295663 A    
O1    C3    1.298459 A    
C41   H9    1.084642 S    
O12   V4    1.990835 S    
C74   C76   1.400132 A    
V2    O20   1.709298 S    
C75   H33   1.083714 S    
N1    O22   1.301674 A    
O16   V4    1.998243 S    
C73   H31   1.083756 S    
C2    C44   1.470926 S    
C46   H24   1.083989 S    
C27   H15   1.083963 S    
C25   C31   1.409286 A    
C16   C18   1.411299 A    
C64   C66   1.408580 A    
C69   C70   1.414617 A    
C25   C29   1.394836 A    
O5    V1    1.990750 S    
C65   H29   1.084391 S    
C7    C12   1.485093 S    
O17   C7    1.301115 A    
C4    C63   1.485091 S    
O6    V2    1.990749 S    
O10   C6    1.300878 A    
O18   C8    1.301002 A    
O2    V4    1.992158 S    
C72   C75   1.403745 A    
C12   C14   1.408635 A    
C67   C73   1.403878 A    
C71   C76   1.403740 A    
C13   C15   1.405111 A    
C14   C16   1.405044 A    
C48   H21   1.083791 S    
C9    C11   1.408042 A    
C52   C54   1.419835 A    
C34   C38   1.443769 A    
C47   H22   1.083792 S    
C33   C37   1.441760 A    
O9    C5    1.298095 A    
O13   V1    2.157656 S    
C66   C68   1.405066 A    
O14   V2    2.157656 S    
C37   C38   1.442898 A    
O2    C4    1.298460 A    
C68   C70   1.411339 A    
C50   H19   1.076869 S    
C62   H28   1.084404 S    
N2    O23   1.301849 A    
C51   C55   1.436256 A    
O4    V2    1.985078 S    
C66   H30   1.084391 S    
C28   C36   1.404047 A    
C6    C26   1.480883 S    
C45   H23   1.083989 S    
C9    H1    1.084407 S    
C63   C65   1.408597 A    
C31   H12   1.078169 S    
