data_mof_unit_19888.cif
_audit_creation_date              2012-12-10T19:04:12-0500
_audit_creation_method            fapswitch 2.2
_symmetry_space_group_name_H-M    P1
_symmetry_Int_Tables_number       1
_space_group_crystal_system       triclinic
_cell_length_a                    10.682482
_cell_length_b                    10.822932
_cell_length_c                    9.574161
_cell_angle_alpha                 90.103397
_cell_angle_beta                  90.211494
_cell_angle_gamma                 91.49843
_cell_volume                      1106.53599488

loop_
_atom_site_label
_atom_site_type_symbol
_atom_type_description
_atom_site_fract_x
_atom_site_fract_y
_atom_site_fract_z
_atom_type_partial_charge
C1    C     C_R   0.499001 0.262435 0.499848 0.823854
C2    C     C_3   0.960100 0.597641 0.421011 -0.298172
C3    C     C_3   0.037984 0.489555 0.366986 0.277620
C4    C     C_3   0.122853 0.498854 0.496974 -0.134060
C5    C     C_R   0.488494 0.063359 0.624942 0.110395
C6    C     C_R   0.489789 0.128978 0.499384 -0.097434
C7    C     C_R   0.476337 0.063361 0.373125 -0.192340
C8    C     C_R   0.475315 0.934661 0.373304 -0.218362
C9    C     C_R   0.488482 0.870340 0.499732 -0.086470
C10   C     C_R   0.486741 0.936185 0.625071 0.138153
C11   C     C_3   0.571049 0.930377 0.749776 -0.514611
C12   C     C_R   0.259519 0.498922 0.499314 0.824386
C13   C     C_3   0.572460 0.071195 0.750738 -0.231487
C14   C     C_R   0.561415 0.591791 0.074056 0.242720
C15   C     C_R   0.425098 0.419446 0.074105 -0.025210
C16   C     C_R   0.424806 0.419625 0.924909 -0.011361
C17   C     C_R   0.562828 0.590812 0.927042 0.249275
C18   C     C_3   0.699909 0.619962 0.924170 -0.504321
C19   C     C_3   0.697122 0.623785 0.082574 -0.512857
C20   C     C_R   0.498670 0.737489 0.500031 0.798960
C21   C     C_R   0.740442 0.500902 0.500185 0.820043
C22   C     C_3   0.039054 0.403376 0.575076 -0.194446
C23   C     C_3   0.954811 0.395511 0.444182 0.291997
C24   C     C_3   0.876936 0.501494 0.499883 -0.088894
C25   C     C_3   0.960373 0.511421 0.631541 -0.188140
C26   C     C_3   0.045005 0.605155 0.552245 -0.016389
Cu1   Cu    Cu3+1 0.499990 0.499980 0.640670 0.966449
Cu2   Cu    Cu3+1 0.500010 0.500020 0.359330 0.943952
H1    H     H_    0.662379 0.888506 0.724692 0.192063
H2    H     H_    0.526035 0.111480 0.843349 0.155621
H3    H     H_    0.754447 0.541943 0.883350 0.215227
H4    H     H_    0.721963 0.711298 0.876292 0.194916
H5    H     H_    0.749783 0.548973 0.132435 0.223579
H6    H     H_    0.715104 0.717692 0.126642 0.194664
H7    H     H_    0.071995 0.323719 0.636569 0.180267
H8    H     H_    0.928596 0.521912 0.740833 0.149131
H9    H     H_    0.925767 0.676393 0.358748 0.151978
H10   H     H_    0.472561 0.110728 0.273839 0.173174
H11   H     H_    0.470099 0.886337 0.274192 0.165673
H12   H     H_    0.522278 0.889162 0.841599 0.197039
N1    N     N_R   0.500800 0.500930 0.147930 -0.214520
N2    N     N_R   0.500800 0.500890 0.852020 -0.211035
O1    O     O_R   0.500000 0.319640 0.618810 -0.578802
O2    O     O_R   0.500010 0.319680 0.381230 -0.587521
O3    O     O_R   0.316850 0.499950 0.618770 -0.573312
O4    O     O_R   0.316860 0.499990 0.381190 -0.587793
O5    O     O_R   0.499990 0.680320 0.618770 -0.576364
O6    O     O_R   0.500000 0.680360 0.381190 -0.591349
O7    O     O_R   0.683140 0.500010 0.618810 -0.580070
O8    O     O_R   0.683150 0.500050 0.381230 -0.599314
N3    N     N_2   0.899028 0.281802 0.389837 -0.432797
H13   H     H_    0.826529 0.294533 0.320502 0.245737
C27   C     C_3   0.986046 0.189840 0.345443 -0.611380
H14   H     H_    0.934394 0.101139 0.325823 0.219558
H15   H     H_    0.057580 0.174229 0.427599 0.240475
H16   H     H_    0.032573 0.219509 0.247262 0.254370
C28   C     C_1   0.697014 0.126870 0.721462 0.295883
N4    N     N_1   0.794694 0.170803 0.698488 -0.273594
C29   C     C_1   0.344841 0.332332 0.147397 0.320814
N5    N     N_1   0.279877 0.262072 0.204824 -0.307045
C30   C     C_1   0.344042 0.332675 0.850759 0.300335
N6    N     N_1   0.278850 0.262354 0.792835 -0.314647
C31   C     C_1   0.097257 0.720296 0.612246 0.237070
N7    N     N_1   0.138694 0.811037 0.659452 -0.283068
N8    N     N_2   0.087162 0.478369 0.226543 -0.406116
H17   H     H_    0.158168 0.541884 0.205970 0.269666
C32   C     C_3   0.996739 0.474156 0.114321 -0.723229
H18   H     H_    0.043221 0.443808 0.017025 0.238887
H19   H     H_    0.960375 0.567942 0.096575 0.226366
H20   H     H_    0.919091 0.407498 0.137129 0.236210

loop_
_geom_bond_atom_site_label_1
_geom_bond_atom_site_label_2
_ccdc_geom_bond_type
C4    C26   S    
C23   C24   S    
Cu1   N2    S    
C6    C7    A    
C12   O3    A    
C8    H11   S    
Cu1   O1    S    
C4    C12   S    
C4    C22   S    
C9    C10   A    
Cu2   N1    S    
C9    C20   S    
C5    C13   S    
C30   N6    T    
C14   C17   A    
C26   C31   S    
C32   H20   S    
Cu1   O3    S    
C21   O7    A    
C17   C18   S    
C25   C26   S    
C29   N5    T    
C2    C26   S    
C3    N8    S    
C27   H14   S    
N8    H17   S    
C22   H7    S    
C11   C13   S    
C2    H9    S    
Cu2   O4    S    
C28   N4    T    
C20   O6    A    
C15   C29   S    
C14   N1    A    
C5    C6    A    
C15   N1    A    
C5    C10   A    
C21   O8    A    
C7    H10   S    
C1    O1    A    
C2    C3    S    
C27   H15   S    
C2    C24   S    
C11   H12   S    
C3    C4    S    
C21   C24   S    
C20   O5    A    
C13   C28   S    
C16   C30   S    
C25   H8    S    
Cu1   O7    S    
N3    H13   S    
C16   N2    A    
C13   H2    S    
C7    C8    A    
C18   H4    S    
C24   C25   S    
C11   H1    S    
C12   O4    A    
C18   C19   S    
C10   C11   S    
C27   H16   S    
Cu1   O5    S    
Cu1   Cu2   S    
C22   C23   S    
C8    C9    A    
N8    C32   S    
C18   H3    S    
C1    O2    A    
N3    C27   S    
C3    C23   S    
C17   N2    A    
C22   C25   S    
Cu2   O8    S    
C14   C19   S    
Cu2   O2    S    
C15   C16   A    
Cu2   O6    S    
C23   N3    S    
C32   H18   S    
C19   H5    S    
C31   N7    T    
C32   H19   S    
C19   H6    S    
C1    C6    S    
