data_mof_unit_27625.cif
_audit_creation_date              2012-12-11T14:32:52-0500
_audit_creation_method            fapswitch 2.2
_symmetry_space_group_name_H-M    P1
_symmetry_Int_Tables_number       1
_space_group_crystal_system       triclinic
_cell_length_a                    6.995909
_cell_length_b                    14.005301
_cell_length_c                    18.080575
_cell_angle_alpha                 112.640617
_cell_angle_beta                  95.135446
_cell_angle_gamma                 90.276818
_cell_volume                      1626.96159995

loop_
_atom_site_label
_atom_site_type_symbol
_atom_type_description
_atom_site_fract_x
_atom_site_fract_y
_atom_site_fract_z
_atom_type_partial_charge
O1    O     O_R   0.484560 0.544530 0.414330 -0.541798
O2    O     O_R   0.197040 0.638810 0.585080 -0.556403
O3    O     O_R   0.026800 0.455470 0.585670 -0.580827
C1    C     C_R   0.373523 0.676131 0.612952 0.674031
O4    O     O_R   0.155000 0.556150 0.414940 -0.516137
O5    O     O_R   0.984450 0.372220 0.414320 -0.547040
C2    C     C_R   0.319853 0.567330 0.388144 0.764129
O6    O     O_R   0.526900 0.627780 0.585680 -0.529710
O7    O     O_3   0.339170 0.439750 0.499990 -0.382922
V1    V     V_3+5 0.064350 0.511180 0.500000 1.468477
O8    O     O_R   0.654880 0.361190 0.414920 -0.531729
C3    C     C_R   0.817480 0.323803 0.387559 0.694840
O9    O     O_R   0.696930 0.443850 0.585060 -0.524093
C4    C     C_R   0.872569 0.430273 0.610148 0.780398
V2    V     V_3+5 0.564340 0.488820 0.500000 1.525583
O10   O     O_3   0.839390 0.560250 0.500010 -0.367456
C5    C     C_R   0.044703 0.868642 0.828820 -0.086668
C6    C     C_R   0.903006 0.392084 0.676333 -0.121033
C7    C     C_R   0.917449 0.825498 0.691148 0.405097
C8    C     C_R   0.975273 0.796375 0.755046 -0.251686
C9    C     C_R   0.057531 0.973385 0.839855 -0.185860
C10   C     C_R   0.978292 0.008863 0.779146 -0.027603
C11   C     C_R   0.916986 0.931295 0.702365 -0.051699
C12   C     C_R   0.966866 0.116980 0.790204 -0.066976
C13   C     C_R   0.901710 0.144625 0.723024 -0.129662
C14   C     C_R   0.817869 0.062983 0.651888 0.235903
C15   C     C_R   0.851898 0.959583 0.638114 0.387877
C16   C     C_R   0.016820 0.198505 0.866184 0.259419
C17   C     C_R   0.042913 0.300619 0.872943 0.366606
C18   C     C_R   0.993697 0.328493 0.806341 -0.080479
C19   C     C_R   0.925853 0.251265 0.729255 -0.103032
C20   C     C_R   0.015827 0.433657 0.815335 0.378250
C21   C     C_R   0.966249 0.463701 0.751962 -0.276826
C22   C     C_R   0.900481 0.285616 0.662077 0.304725
H1    H     H_    0.982097 0.544871 0.761830 0.138045
H2    H     H_    0.965408 0.715662 0.747192 0.085507
H3    H     H_    0.135470 0.023004 0.895474 0.173122
H4    H     H_    0.097962 0.233570 0.297157 0.157382
H5    H     H_    0.850263 0.025089 0.205068 0.153894
C23   C     C_2   0.134327 0.041574 0.179447 0.172442
C24   C     C_2   0.977372 0.076181 0.219352 -0.089672
C25   C     C_2   0.813987 0.217011 0.322843 0.170730
C26   C     C_2   0.970869 0.182467 0.282872 -0.082727
C27   C     C_R   0.406280 0.780067 0.681795 -0.092971
C28   C     C_R   0.545595 0.464902 0.845221 -0.079460
C29   C     C_R   0.531084 0.872550 0.821055 -0.087050
C30   C     C_R   0.481108 0.781186 0.755968 -0.221502
C31   C     C_R   0.389342 0.876161 0.672380 -0.028048
C32   C     C_R   0.435492 0.974428 0.741761 -0.009873
C33   C     C_R   0.508441 0.968876 0.815745 0.066743
C34   C     C_R   0.412261 0.077380 0.742435 0.063271
C35   C     C_R   0.485121 0.170542 0.810200 0.028245
C36   C     C_R   0.559150 0.156457 0.879726 -0.273684
C37   C     C_R   0.559894 0.058945 0.884697 0.300763
C38   C     C_R   0.309001 0.090717 0.678582 -0.086655
C39   C     C_R   0.319458 0.181872 0.668749 -0.167467
C40   C     C_R   0.416212 0.270072 0.726291 0.025137
C41   C     C_R   0.482096 0.272219 0.803517 0.013111
C42   C     C_R   0.436900 0.356837 0.706795 -0.129147
C43   C     C_R   0.495698 0.453158 0.766071 0.244710
C44   C     C_R   0.539926 0.374894 0.865653 -0.100722
H6    H     H_    0.254019 0.180645 0.612602 0.172564
H7    H     H_    0.590062 0.866800 0.876368 0.196550
H8    H     H_    0.507126 0.710604 0.763969 0.169436
H9    H     H_    0.627075 0.218506 0.930893 0.133385
H10   H     H_    0.213008 0.032418 0.635060 0.120725
H11   H     H_    0.338162 0.654568 0.190476 0.152242
C45   C     C_2   0.323241 0.603785 0.320379 -0.369884
C46   C     C_2   0.488281 0.625436 0.293119 0.017601
H12   H     H_    0.780292 0.656628 0.211538 0.164767
C47   C     C_2   0.638015 0.663392 0.185535 -0.257172
C48   C     C_2   0.479163 0.648412 0.218437 -0.147751
H13   H     H_    0.185843 0.607036 0.288508 0.173436
O11   O     O_R   0.421600 0.630430 0.917010 -0.511020
O12   O     O_R   0.793840 0.702190 0.087630 -0.541360
O13   O     O_R   0.964010 0.886170 0.088190 -0.552870
C49   C     C_R   0.631000 0.694347 0.115865 0.757133
O14   O     O_R   0.751460 0.619510 0.917500 -0.541781
O15   O     O_R   0.921330 0.802900 0.916840 -0.539190
C50   C     C_R   0.576875 0.575758 0.905360 0.823437
O16   O     O_R   0.464290 0.713700 0.088350 -0.546775
O17   O     O_3   0.609200 0.818520 0.002630 -0.383361
V3    V     V_3+5 0.884140 0.747190 0.002530 1.488100
O18   O     O_R   0.251150 0.814630 0.917340 -0.542663
C51   C     C_R   0.076240 0.832368 0.895244 0.727162
O19   O     O_R   0.293530 0.897310 0.087470 -0.542708
C52   C     C_R   0.130923 0.934693 0.114843 0.627355
V4    V     V_3+5 0.384070 0.769710 0.002370 1.494836
O20   O     O_3   0.109180 0.698190 0.002460 -0.354038
O21   O     O_3   0.817517 0.884138 0.561115 -0.594679
H14   H     H_    0.810820 0.916572 0.520993 0.338639
O22   O     O_3   0.089925 0.510445 0.885733 -0.601562
H15   H     H_    0.002106 0.513512 0.926352 0.361236
O23   O     O_3   0.653157 0.151037 0.303891 -0.624888
H16   H     H_    0.556014 0.184500 0.341276 0.335546
O24   O     O_3   0.295131 0.107560 0.198353 -0.627087
H17   H     H_    0.392300 0.074060 0.160991 0.324898
O25   O     O_3   0.618606 0.049639 0.956758 -0.659955
H18   H     H_    0.636925 0.119385 0.000598 0.295860
C53   C     C_2   0.573515 0.394707 0.952302 0.338756
H19   H     H_    0.478396 0.359843 0.979718 0.092988
O26   O     O_2   0.707733 0.451250 0.994462 -0.540440
O27   O     O_3   0.505698 0.538690 0.747037 -0.671203
H20   H     H_    0.374214 0.546947 0.725439 0.249161
O28   O     O_3   0.892243 0.220903 0.581693 -0.628116
H21   H     H_    0.960922 0.157746 0.576145 0.309723
C54   C     C_2   0.337418 0.865296 0.587956 0.367711
H22   H     H_    0.218095 0.813478 0.552215 0.065546
O29   O     O_2   0.431711 0.909215 0.556053 -0.483966
C55   C     C_2   0.398735 0.349355 0.623375 0.431870
H23   H     H_    0.334203 0.412687 0.614173 0.098926
O30   O     O_2   0.450252 0.276853 0.566126 -0.512134
C56   C     C_2   0.678904 0.631569 0.338545 0.436297
H24   H     H_    0.704670 0.685239 0.400917 0.089029
O31   O     O_2   0.804244 0.573361 0.307654 -0.539228
O32   O     O_3   0.116331 0.375814 0.946068 -0.641040
H25   H     H_    0.149767 0.347185 0.987462 0.338149
O33   O     O_3   0.851200 0.750426 0.618288 -0.592920
H26   H     H_    0.854191 0.683648 0.624776 0.313414
O34   O     O_3   0.688857 0.078353 0.595809 -0.593656
H27   H     H_    0.637914 0.147314 0.620537 0.363225
O35   O     O_3   0.030341 0.183756 0.937428 -0.664570
H28   H     H_    0.920644 0.138096 0.935370 0.306493

loop_
_geom_bond_atom_site_label_1
_geom_bond_atom_site_label_2
_ccdc_geom_bond_type
C13   C19   A    
C18   C20   A    
C38   C39   A    
C28   C43   A    
C24   C26   S    
C4    C6    S    
O2    C1    A    
C7    C8    A    
O15   C51   A    
C1    O6    A    
C42   C55   S    
O21   H14   S    
H5    C24   S    
C36   C37   A    
C39   C40   A    
C46   C56   S    
C14   C15   A    
C33   C37   A    
C5    C51   S    
C23   C52   S    
C16   C17   A    
C14   O34   S    
O5    C3    A    
C18   C19   A    
O19   V4    S    
C40   C42   A    
C31   C54   S    
V2    O10   S    
C5    C8    A    
O32   H25   S    
C15   O21   S    
H11   C48   S    
C32   C33   A    
O33   H26   S    
C53   H19   S    
C3    C25   S    
O1    C2    A    
C2    C45   S    
C55   H23   S    
O8    V2    S    
O14   V3    S    
C7    O33   S    
C45   C46   D    
C32   C34   A    
C54   H22   S    
H12   C47   S    
O1    V2    S    
C11   C15   A    
C43   O27   S    
C36   H9    S    
O7    V1    S    
C34   C38   A    
C27   C30   A    
C39   H6    S    
C41   C44   A    
C42   C43   A    
O11   C50   A    
O9    C4    A    
C54   O29   D    
C23   O24   S    
O13   V3    S    
O4    V1    S    
C10   C11   A    
V3    O20   S    
C34   C35   A    
O18   V4    S    
O18   C51   A    
C30   H8    S    
O4    C2    A    
O19   C52   A    
C1    C27   S    
C13   C14   A    
C5    C9    A    
C46   C48   S    
C7    C11   A    
C17   C18   A    
O12   C49   A    
C49   O16   A    
O24   H17   S    
C53   O26   D    
C19   C22   A    
C12   C13   A    
C6    C22   A    
O13   C52   A    
O3    C4    A    
C35   C41   A    
C31   C32   A    
C17   O32   S    
O25   H18   S    
O6    V2    S    
O9    V2    S    
C10   C12   A    
C44   C53   S    
C25   C26   D    
O2    V1    S    
C47   C49   S    
C38   H10   S    
C35   C36   A    
C56   H24   S    
C16   O35   S    
C29   C30   A    
C23   C24   D    
C25   O23   S    
C22   O28   S    
C12   C16   A    
O5    V1    S    
O8    C3    A    
O28   H21   S    
C29   C33   A    
C29   H7    S    
C20   C21   A    
C45   H13   S    
H4    C26   S    
O3    V1    S    
V1    O10   S    
O15   V3    S    
O12   V3    S    
C40   C41   A    
C20   O22   S    
O17   V4    S    
C28   C44   A    
O22   H15   S    
C21   H1    S    
C28   C50   S    
O14   C50   A    
O7    V2    S    
O23   H16   S    
C6    C21   A    
C55   O30   D    
O16   V4    S    
C8    H2    S    
C47   C48   D    
C9    H3    S    
V4    O20   S    
O17   V3    S    
O27   H20   S    
O34   H27   S    
C37   O25   S    
O11   V4    S    
O35   H28   S    
C9    C10   A    
C27   C31   A    
C56   O31   D    
