data_mof_unit_7792.cif
_audit_creation_date              2012-10-26T17:44:35-0400
_audit_creation_method            fapswitch 2.2
_symmetry_space_group_name_H-M    P1
_symmetry_Int_Tables_number       1
_space_group_crystal_system       triclinic
_cell_length_a                    28.814034
_cell_length_b                    18.33028
_cell_length_c                    18.318241
_cell_angle_alpha                 90.255982
_cell_angle_beta                  130.871195
_cell_angle_gamma                 89.931502
_cell_volume                      7316.07431752

loop_
_atom_site_label
_atom_site_type_symbol
_atom_type_description
_atom_site_fract_x
_atom_site_fract_y
_atom_site_fract_z
_atom_type_partial_charge
C1    C     C_R   0.500339 0.999866 0.360428 0.552568
C2    C     C_R   0.221333 0.034021 0.282126 0.026692
C3    C     C_R   0.803712 0.455821 0.117657 0.256569
C4    C     C_R   0.682847 0.943614 0.937852 0.291187
C5    C     C_R   0.318121 0.921263 0.066306 0.282388
C6    C     C_R   0.181023 0.425023 0.931901 0.284097
C7    C     C_R   0.819283 0.416517 0.069506 0.281404
C8    C     C_R   0.661352 0.871808 0.918487 -0.187775
C9    C     C_R   0.340216 0.849936 0.093594 -0.190730
C10   C     C_R   0.161058 0.352602 0.908032 -0.177641
C11   C     C_R   0.841078 0.345153 0.097534 -0.180584
C12   C     C_R   0.783201 0.956901 0.832740 0.202939
C13   C     C_R   0.278764 0.533869 0.718062 0.057464
C14   C     C_R   0.216123 0.957819 0.166302 0.219303
C15   C     C_R   0.283531 0.457747 0.832775 0.210504
C16   C     C_R   0.716084 0.456333 0.167374 0.217784
C17   C     C_3   0.989006 0.103977 0.732259 0.021283
C18   C     C_3   0.034532 0.115593 0.717239 -0.372155
C19   C     C_3   0.064734 0.107639 0.403584 -0.009474
C20   C     C_3   0.025317 0.153154 0.414419 -0.339081
C21   C     C_3   0.434062 0.609255 0.594731 -0.015658
C22   C     C_3   0.472424 0.654968 0.582087 -0.342782
C23   C     C_3   0.569872 0.613013 0.411409 -0.017872
C24   C     C_R   0.721386 0.536188 0.280764 0.024294
C25   C     C_3   0.533073 0.658136 0.427973 -0.345422
C26   C     C_3   0.914210 0.280728 0.723337 0.028704
C27   C     C_3   0.976856 0.309617 0.765009 -0.339251
C28   C     C_3   0.057741 0.236749 0.245741 0.037022
C29   C     C_3   0.035348 0.314940 0.229528 -0.362794
C30   C     C_3   0.441574 0.738038 0.754662 0.037945
C31   C     C_3   0.463543 0.816526 0.771441 -0.359889
C32   C     C_3   0.558563 0.740401 0.248712 0.036024
C33   C     C_3   0.537260 0.819092 0.231676 -0.355460
C34   C     C_3   0.772218 0.064316 0.962797 0.045202
C35   C     C_R   0.714544 0.034958 0.657535 0.249003
C36   C     C_3   0.782175 0.137782 0.010437 -0.322356
C37   C     C_3   0.227894 0.045459 0.011913 0.030087
C38   C     C_3   0.199065 0.107335 0.025829 -0.349516
C39   C     C_3   0.266214 0.554268 0.974183 0.025591
C40   C     C_3   0.288599 0.617918 0.951258 -0.345096
C41   C     C_3   0.729316 0.541803 0.014255 0.032136
C42   C     C_3   0.701704 0.605191 0.028301 -0.342728
C43   C     C_3   0.833480 0.850343 0.907199 0.015304
C44   C     C_3   0.864462 0.805706 0.998259 -0.335961
C45   C     C_3   0.165410 0.850752 0.091555 0.011016
C46   C     C_R   0.286007 0.033342 0.344362 0.229350
C47   C     C_3   0.132376 0.806720 0.998970 -0.342067
C48   C     C_3   0.334328 0.350881 0.906270 0.012587
C49   C     C_3   0.366181 0.306163 0.997512 -0.338558
C50   C     C_3   0.665071 0.348836 0.095317 0.009952
C51   C     C_3   0.634215 0.302074 0.005393 -0.337989
C52   C     C_3   0.673154 0.133668 0.554783 0.011737
C53   C     C_3   0.630356 0.154963 0.448846 -0.377740
C54   C     C_3   0.329865 0.126938 0.456806 0.006158
C55   C     C_3   0.371393 0.143042 0.564372 -0.372575
C56   C     C_3   0.170396 0.627121 0.544498 0.016017
C57   C     C_R   0.214104 0.533562 0.655866 0.257577
C58   C     C_3   0.129166 0.643127 0.437145 -0.381224
C59   C     C_3   0.829210 0.633373 0.449910 0.006904
C60   C     C_3   0.872713 0.652317 0.556884 -0.372420
C61   C     C_3   0.738466 0.970655 0.489755 0.025031
C62   C     C_3   0.690653 0.912866 0.458848 -0.301312
C63   C     C_3   0.266568 0.939069 0.500164 0.024912
C64   C     C_3   0.308658 0.883402 0.507738 -0.295673
C65   C     C_3   0.233137 0.438822 0.499187 0.023178
C66   C     C_3   0.191172 0.383076 0.491682 -0.294047
C67   C     C_3   0.774091 0.449668 0.506216 0.036803
C68   C     C_R   0.786028 0.536418 0.342179 0.220288
C69   C     C_3   0.818578 0.398156 0.514271 -0.313159
C70   C     C_3   0.832729 0.067203 0.468974 -0.006943
C71   C     C_3   0.833076 0.021820 0.399596 -0.347045
C72   C     C_3   0.216124 0.043076 0.587649 -0.024533
C73   C     C_3   0.227745 0.991170 0.662714 -0.348627
C74   C     C_3   0.282809 0.543575 0.411750 -0.031780
C75   C     C_3   0.271244 0.492202 0.335827 -0.346684
C76   C     C_3   0.721825 0.551424 0.592238 -0.028546
C77   C     C_3   0.736757 0.500276 0.670385 -0.351385
C78   C     C_R   0.685340 0.999844 0.686180 0.009399
C79   C     C_R   0.314577 0.999040 0.313866 0.006496
C80   C     C_R   0.185347 0.499386 0.685839 0.013571
C81   C     C_R   0.499827 0.000090 0.639745 0.552505
C82   C     C_R   0.814546 0.499397 0.313234 0.001013
C83   C     C_R   0.719550 0.962337 0.774688 0.008376
C84   C     C_R   0.279952 0.960686 0.225337 0.021826
C85   C     C_R   0.219676 0.460811 0.773604 0.016593
C86   C     C_R   0.779936 0.458933 0.226322 0.022206
C87   C     C_R   0.813644 0.036473 0.626893 0.247127
C88   C     C_R   0.194428 0.022856 0.385860 0.260573
C89   C     C_R   0.305607 0.522778 0.614126 0.251935
C90   C     C_R   0.696976 0.527151 0.387943 0.258772
C91   C     C_R   0.851999 0.064216 0.611104 0.222775
C92   C     C_R   0.000204 0.499826 0.360287 0.553242
C93   C     C_R   0.171600 0.051654 0.428744 0.212914
C94   C     C_R   0.328071 0.551933 0.571063 0.216466
C95   C     C_R   0.675073 0.556684 0.431832 0.215764
C96   C     C_R   0.890414 0.124234 0.666003 0.197130
C97   C     C_R   0.142024 0.120273 0.398612 0.212523
C98   C     C_R   0.357480 0.620831 0.601600 0.209251
C99   C     C_R   0.644530 0.624690 0.400287 0.211348
C100  C     C_R   0.882814 0.164722 0.723376 0.241905
C101  C     C_R   0.142022 0.163534 0.335346 0.238700
C102  C     C_R   0.357585 0.663941 0.665475 0.235090
C103  C     C_R   0.999712 0.500160 0.639626 0.554391
C104  C     C_R   0.642747 0.666752 0.334321 0.239027
C105  C     C_R   0.841952 0.139533 0.735480 0.172304
C106  C     C_R   0.167699 0.136868 0.295736 0.154901
C107  C     C_R   0.332234 0.636853 0.705225 0.175470
C108  C     C_R   0.667232 0.639180 0.293172 0.155289
C109  C     C_R   0.618820 0.000008 0.620619 0.587124
C110  C     C_R   0.381146 0.999756 0.378996 0.584691
C111  C     C_R   0.118826 0.499909 0.620710 0.585966
C112  C     C_R   0.881146 0.499806 0.378613 0.583712
C113  C     C_R   0.810479 0.072638 0.691690 -0.041225
C114  C     C_R   0.813412 0.997579 0.809667 -0.017223
C115  C     C_R   0.192084 0.064972 0.319053 -0.027751
C116  C     C_R   0.308085 0.564790 0.681491 -0.027126
C117  C     C_R   0.692494 0.567706 0.318042 -0.029564
C118  C     C_1   0.501177 0.999729 0.283760 -0.045995
C119  C     C_1   0.499013 0.000241 0.716443 -0.048609
C120  C     C_1   0.001021 0.499520 0.283591 -0.047257
C121  C     C_1   0.998892 0.500639 0.716312 -0.048641
C122  C     C_1   0.501507 0.999982 0.218754 -0.041472
C123  C     C_1   0.498577 0.000330 0.781340 -0.043440
C124  C     C_1   0.001443 0.499706 0.218680 -0.040321
C125  C     C_R   0.186459 0.998425 0.190814 -0.013058
C126  C     C_1   0.998517 0.500772 0.781282 -0.042929
C127  C     C_R   0.999873 0.139960 0.999864 0.656507
C128  C     C_R   0.500244 0.639963 0.000415 0.645365
C129  C     C_R   0.880784 0.999769 0.879693 0.602992
C130  C     C_R   0.119199 0.000768 0.120481 0.607637
C131  C     C_R   0.380780 0.500806 0.879495 0.608766
C132  C     C_R   0.619200 0.500731 0.120489 0.610316
C133  C     C_R   0.000031 0.860094 0.999901 0.534039
C134  C     C_R   0.499987 0.360093 0.999857 0.532872
C135  C     C_R   0.500050 0.139658 0.999949 0.548016
C136  C     C_R   0.313477 0.498371 0.809006 -0.007939
C137  C     C_R   0.000051 0.639658 0.999960 0.548087
C138  C     C_R   0.500565 0.000174 0.140247 0.542726
C139  C     C_R   0.499447 0.000240 0.859769 0.540916
C140  C     C_R   0.000558 0.499994 0.140237 0.546276
C141  C     C_R   0.999433 0.500361 0.859755 0.546529
C142  C     C_R   0.499954 0.860363 0.000116 0.538988
C143  C     C_R   0.999934 0.360355 0.999753 0.546057
C144  C     C_1   0.999746 0.217541 0.999420 0.098706
C145  C     C_1   0.500133 0.717561 0.000668 0.036006
C146  C     C_R   0.654206 0.831001 0.847499 -0.161503
C147  C     C_R   0.686461 0.498525 0.190790 -0.012258
C148  C     C_R   0.346586 0.815894 0.167264 -0.162123
C149  C     C_R   0.155194 0.316845 0.835346 -0.173954
C150  C     C_R   0.846906 0.311938 0.171148 -0.179463
C151  C     C_1   0.499931 0.782889 0.000403 0.015610
C152  C     C_1   0.999797 0.282867 0.999421 0.053217
C153  C     C_1   0.000104 0.782558 0.999759 -0.066543
C154  C     C_1   0.500076 0.282556 0.999727 -0.066223
C155  C     C_1   0.500124 0.217214 0.999835 -0.050951
C156  C     C_1   0.000134 0.717216 0.999852 -0.052916
C157  C     C_R   0.670228 0.859754 0.795978 0.259863
C158  C     C_R   0.779062 0.035392 0.720667 0.033983
C159  C     C_R   0.329381 0.851081 0.214175 0.253012
C160  C     C_R   0.171349 0.351275 0.786774 0.235241
C161  C     C_R   0.829204 0.347921 0.216950 0.236072
C162  C     C_R   0.691719 0.932922 0.813908 0.004683
C163  C     C_R   0.307948 0.924336 0.189296 0.010022
C164  C     C_R   0.191330 0.425248 0.809216 0.016721
C165  C     C_R   0.807988 0.421226 0.191128 0.017841
C166  C     C_R   0.696839 0.975373 0.884098 0.251736
C167  C     C_R   0.302786 0.959726 0.115366 0.258223
C168  C     C_R   0.194755 0.462627 0.880675 0.256937
Cu1   Cu    Cu3+1 0.500000 0.927480 0.500000 1.149240
Cu2   Cu    Cu3+1 0.438200 0.999990 0.938190 1.025153
Cu3   Cu    Cu3+1 0.061800 0.499990 0.061810 1.020067
Cu4   Cu    Cu3+1 0.938200 0.499990 0.938190 1.015239
Cu5   Cu    Cu3+1 0.000000 0.427480 0.500000 1.146427
Cu6   Cu    Cu3+1 0.500000 0.072500 0.500000 0.972115
Cu7   Cu    Cu3+1 0.000000 0.572500 0.500000 0.967064
Cu8   Cu    Cu3+1 0.999980 0.000040 0.072510 0.970849
Cu9   Cu    Cu3+1 0.000020 0.000040 0.927490 0.962651
Cu10  Cu    Cu3+1 0.499980 0.500040 0.072510 0.967284
Cu11  Cu    Cu3+1 0.500020 0.500040 0.927490 0.969159
Cu12  Cu    Cu3+1 0.561800 0.999990 0.061810 1.040370
H1    H     H_    0.650073 0.846805 0.958586 0.189441
H2    H     H_    0.010474 0.123332 0.806032 0.168710
H3    H     H_    0.593035 0.330371 0.941513 0.174339
H4    H     H_    0.717551 0.161120 0.589868 0.171447
H5    H     H_    0.653526 0.154274 0.586759 0.196682
H6    H     H_    0.584732 0.129341 0.409435 0.185083
H7    H     H_    0.624733 0.215150 0.442183 0.122006
H8    H     H_    0.649713 0.136891 0.415621 0.140085
H9    H     H_    0.286150 0.154828 0.423538 0.181833
H10   H     H_    0.350931 0.150342 0.428494 0.190137
H11   H     H_    0.417274 0.118918 0.602751 0.180816
H12   H     H_    0.376645 0.202944 0.576767 0.125942
H13   H     H_    0.077364 0.084840 0.772401 0.092804
H14   H     H_    0.351157 0.119973 0.594128 0.142224
H15   H     H_    0.214148 0.655344 0.578464 0.185096
H16   H     H_    0.149087 0.650281 0.572675 0.196199
H17   H     H_    0.083315 0.618497 0.398114 0.180560
H18   H     H_    0.123769 0.703008 0.425370 0.122670
H19   H     H_    0.149748 0.620486 0.407595 0.141289
H20   H     H_    0.785449 0.660470 0.418124 0.183330
H21   H     H_    0.848172 0.655635 0.417724 0.187016
H22   H     H_    0.918377 0.627952 0.594095 0.184581
H23   H     H_    0.877931 0.712466 0.566516 0.125344
H24   H     H_    0.014505 0.095900 0.644351 0.176628
H25   H     H_    0.854175 0.631317 0.590180 0.139168
H26   H     H_    0.757169 0.957397 0.454241 0.171787
H27   H     H_    0.714932 0.024571 0.463275 0.134563
H28   H     H_    0.670969 0.923146 0.493567 0.208680
H29   H     H_    0.653094 0.914306 0.379265 0.115228
H30   H     H_    0.711901 0.857843 0.479852 0.201479
H31   H     H_    0.251020 0.915643 0.536728 0.186087
H32   H     H_    0.294166 0.989302 0.539155 0.143023
H33   H     H_    0.328820 0.906259 0.477922 0.219686
H34   H     H_    0.346493 0.869791 0.584677 0.135029
H35   H     H_    0.045881 0.174416 0.723807 0.154851
H36   H     H_    0.282779 0.832776 0.467840 0.206771
H37   H     H_    0.248210 0.415521 0.461699 0.188926
H38   H     H_    0.205577 0.489001 0.461033 0.143262
H39   H     H_    0.171720 0.405767 0.522848 0.215647
H40   H     H_    0.152822 0.369714 0.414661 0.136972
H41   H     H_    0.216938 0.332355 0.530397 0.210589
H42   H     H_    0.762198 0.425435 0.547501 0.169388
H43   H     H_    0.798630 0.502352 0.540627 0.147001
H44   H     H_    0.829498 0.417881 0.470031 0.238294
H45   H     H_    0.861988 0.396398 0.590330 0.062072
H46   H     H_    0.079105 0.058051 0.448365 0.184937
H47   H     H_    0.798570 0.342483 0.490027 0.170703
H48   H     H_    0.859740 0.117625 0.486399 0.209998
H49   H     H_    0.784325 0.082593 0.431409 0.104317
H50   H     H_    0.805656 0.971281 0.378970 0.165482
H51   H     H_    0.812847 0.053727 0.333364 0.151421
H52   H     H_    0.880914 0.006859 0.434254 0.167951
H53   H     H_    0.196756 0.093985 0.591173 0.215243
H54   H     H_    0.261016 0.056092 0.607832 0.107886
H55   H     H_    0.249433 0.940154 0.664962 0.157189
H56   H     H_    0.258912 0.017427 0.735113 0.142848
H57   H     H_    0.035821 0.090904 0.326311 0.100526
H58   H     H_    0.183773 0.977563 0.644934 0.182765
H59   H     H_    0.301826 0.594935 0.408724 0.189973
H60   H     H_    0.237954 0.555798 0.392057 0.106914
H61   H     H_    0.249438 0.440948 0.332519 0.166226
H62   H     H_    0.240225 0.518812 0.264016 0.131391
H63   H     H_    0.315242 0.479002 0.353487 0.187908
H64   H     H_    0.701175 0.601281 0.595091 0.193990
H65   H     H_    0.765587 0.566741 0.609855 0.107353
H66   H     H_    0.759544 0.450205 0.673142 0.151182
H67   H     H_    0.768101 0.527996 0.741794 0.132811
H68   H     H_    0.983817 0.121759 0.387664 0.099181
H69   H     H_    0.693979 0.484769 0.655445 0.187443
H70   H     H_    0.051784 0.167054 0.491623 0.209854
H71   H     H_    0.010730 0.204313 0.372243 0.170335
H72   H     H_    0.419549 0.559300 0.549951 0.186593
H73   H     H_    0.352158 0.819707 0.057046 0.179706
H74   H     H_    0.463750 0.593206 0.672144 0.103846
H75   H     H_    0.513874 0.624068 0.607845 0.106984
H76   H     H_    0.445151 0.668111 0.504627 0.200578
H77   H     H_    0.487059 0.706533 0.624119 0.182042
H78   H     H_    0.585393 0.563052 0.455886 0.185972
H79   H     H_    0.538814 0.596908 0.333684 0.103522
H80   H     H_    0.492607 0.626491 0.405238 0.105422
H81   H     H_    0.562086 0.671982 0.505776 0.202785
H82   H     H_    0.516923 0.709328 0.385536 0.175804
H83   H     H_    0.889242 0.324945 0.726650 0.159720
H84   H     H_    0.150214 0.323013 0.946232 0.186387
H85   H     H_    0.887474 0.267265 0.645589 0.143915
H86   H     H_    0.005202 0.265009 0.771068 0.180732
H87   H     H_    0.971202 0.352078 0.716874 0.113311
H88   H     H_    0.001120 0.333418 0.837787 0.152612
H89   H     H_    0.033841 0.203962 0.263157 0.135399
H90   H     H_    0.044745 0.215717 0.177944 0.155587
H91   H     H_    0.060200 0.350240 0.215838 0.186462
H92   H     H_    0.985407 0.317420 0.166225 0.113323
H93   H     H_    0.043330 0.335443 0.294086 0.157542
H94   H     H_    0.465191 0.705920 0.736013 0.135566
H95   H     H_    0.853245 0.314309 0.061679 0.187036
H96   H     H_    0.455194 0.716639 0.822535 0.160232
H97   H     H_    0.438558 0.851304 0.785540 0.190082
H98   H     H_    0.513502 0.819578 0.834632 0.100503
H99   H     H_    0.455337 0.837199 0.706948 0.156134
H100  H     H_    0.536762 0.710185 0.271635 0.137540
H101  H     H_    0.542385 0.716859 0.179780 0.154792
H102  H     H_    0.559188 0.851708 0.210509 0.189872
H103  H     H_    0.486621 0.821714 0.173103 0.105607
H104  H     H_    0.549974 0.842540 0.298704 0.161437
H105  H     H_    0.756545 0.159002 0.801207 0.350848
H106  H     H_    0.637331 0.775527 0.834192 0.165996
H107  H     H_    0.247434 0.167664 0.226868 0.342317
H108  H     H_    0.259531 0.727814 0.787608 0.376063
H109  H     H_    0.747258 0.671206 0.226388 0.338355
H110  H     H_    0.688626 0.689082 0.715393 0.363934
H111  H     H_    0.309729 0.687899 0.303630 0.365552
H112  H     H_    0.167911 0.184534 0.737105 0.342483
H113  H     H_    0.829812 0.183033 0.264440 0.343701
H114  H     H_    0.791792 0.069003 0.927441 0.156944
H115  H     H_    0.798445 0.021847 0.019902 0.189379
H116  H     H_    0.763760 0.136874 0.047925 0.221266
H117  H     H_    0.363461 0.760365 0.185948 0.166718
H118  H     H_    0.832026 0.150345 0.064061 0.093791
H119  H     H_    0.758721 0.181500 0.955191 0.173902
H120  H     H_    0.197578 0.996572 0.984266 0.183354
H121  H     H_    0.229124 0.063587 0.955594 0.214036
H122  H     H_    0.226567 0.158009 0.047798 0.173666
H123  H     H_    0.151666 0.117532 0.957347 0.106167
H124  H     H_    0.197162 0.092916 0.082351 0.188025
H125  H     H_    0.298760 0.507972 0.001032 0.183234
H126  H     H_    0.267724 0.572328 0.033532 0.219331
H127  H     H_    0.260317 0.667036 0.933401 0.166622
H128  H     H_    0.139531 0.260749 0.818794 0.131707
H129  H     H_    0.337252 0.630414 0.014565 0.123681
H130  H     H_    0.284946 0.604131 0.888735 0.206083
H131  H     H_    0.698584 0.493480 0.988048 0.183659
H132  H     H_    0.729958 0.558246 0.956808 0.221268
H133  H     H_    0.729373 0.655389 0.048168 0.173234
H134  H     H_    0.653986 0.615175 0.960475 0.120768
H135  H     H_    0.700947 0.592531 0.086463 0.182882
H136  H     H_    0.680946 0.970837 0.133669 0.356549
H137  H     H_    0.328620 0.924863 0.878820 0.364248
H138  H     H_    0.171657 0.435155 0.120652 0.363025
H139  H     H_    0.863824 0.256486 0.190695 0.133161
H140  H     H_    0.830309 0.417544 0.882769 0.371412
H141  H     H_    0.866258 0.856855 0.894916 0.134509
H142  H     H_    0.793004 0.819195 0.845813 0.212226
H143  H     H_    0.832081 0.796624 0.010861 0.179111
H144  H     H_    0.878705 0.752019 0.990331 0.128025
H145  H     H_    0.905709 0.834929 0.061333 0.172724
H146  H     H_    0.134087 0.857182 0.106803 0.139589
H147  H     H_    0.206133 0.819183 0.150837 0.212704
H148  H     H_    0.163463 0.797449 0.983774 0.173954
H149  H     H_    0.118053 0.753110 0.006626 0.131396
H150  H     H_    0.979607 0.044282 0.726500 0.151127
H151  H     H_    0.091017 0.836507 0.937584 0.174675
H152  H     H_    0.366538 0.357967 0.892939 0.138527
H153  H     H_    0.293931 0.319430 0.845483 0.216987
H154  H     H_    0.334249 0.296329 0.010865 0.175634
H155  H     H_    0.380698 0.252825 0.989295 0.130911
H156  H     H_    0.407322 0.335724 0.060277 0.175488
H157  H     H_    0.632311 0.356774 0.107419 0.139143
H158  H     H_    0.705413 0.318458 0.157252 0.218754
H159  H     H_    0.666716 0.291620 0.993268 0.174841
H160  H     H_    0.619927 0.249071 0.014506 0.137993
O1    O     O_R   0.500010 0.938760 0.394210 -0.503325
O2    O     O_R   0.552210 0.000000 0.946390 -0.425473
O3    O     O_3   0.682410 0.416239 0.082194 -0.576880
O4    O     O_3   0.679695 0.057057 0.562174 -0.579612
O5    O     O_3   0.321562 0.050812 0.441735 -0.585024
O6    O     O_3   0.178690 0.551020 0.558728 -0.592687
O7    O     O_3   0.821917 0.556986 0.438667 -0.587778
O8    O     O_3   0.786068 0.968448 0.591176 -0.513207
O9    O     O_3   0.215048 0.951206 0.401780 -0.521048
O10   O     O_3   0.285040 0.450998 0.597525 -0.524285
O11   O     O_3   0.720181 0.456556 0.408148 -0.516888
O12   O     O_3   0.858523 0.025967 0.552953 -0.539631
O13   O     O_R   0.947790 0.500000 0.053610 -0.419761
O14   O     O_3   0.174868 0.010094 0.495056 -0.566718
O15   O     O_3   0.324377 0.510586 0.503835 -0.561231
O16   O     O_3   0.680605 0.516295 0.501077 -0.560935
O17   O     O_R   0.052210 0.500000 0.946390 -0.422188
O18   O     O_R   0.552190 0.894190 0.052180 -0.470335
O19   O     O_R   0.447810 0.894190 0.947820 -0.477940
O20   O     O_R   0.052190 0.394190 0.052180 -0.481078
O21   O     O_R   0.947810 0.394190 0.947820 -0.473377
O22   O     O_R   0.499990 0.061230 0.394210 -0.516049
O23   O     O_R   0.500010 0.061230 0.605790 -0.513936
O24   O     O_R   0.999990 0.561230 0.394210 -0.516655
O25   O     O_R   0.499990 0.938760 0.605790 -0.497146
O26   O     O_R   0.000010 0.561230 0.605790 -0.515095
O27   O     O_R   0.590180 0.938760 0.590180 -0.443322
O28   O     O_R   0.409820 0.938760 0.409820 -0.448484
O29   O     O_R   0.090180 0.438760 0.590180 -0.451536
O30   O     O_R   0.909820 0.438760 0.409820 -0.454256
O31   O     O_R   0.590160 0.061230 0.590180 -0.517084
O32   O     O_R   0.409840 0.061230 0.409820 -0.518958
O33   O     O_R   0.090160 0.561230 0.590180 -0.514428
O34   O     O_R   0.909840 0.561230 0.409820 -0.515392
O35   O     O_R   0.999970 0.105830 0.061210 -0.525825
O36   O     O_R   0.000010 0.438760 0.394210 -0.501684
O37   O     O_R   0.000030 0.105830 0.938790 -0.499969
O38   O     O_R   0.499970 0.605830 0.061210 -0.519993
O39   O     O_R   0.500030 0.605830 0.938790 -0.520065
O40   O     O_R   0.909810 0.000030 0.971060 -0.459277
O41   O     O_R   0.090190 0.000030 0.028940 -0.472795
O42   O     O_R   0.409810 0.500030 0.971060 -0.463269
O43   O     O_R   0.590190 0.500030 0.028940 -0.463917
O44   O     O_R   0.909820 0.000000 0.848600 -0.525342
O45   O     O_R   0.090180 0.000000 0.151400 -0.517600
O46   O     O_R   0.409820 0.500000 0.848600 -0.519247
O47   O     O_R   0.999990 0.438760 0.605790 -0.499272
O48   O     O_R   0.590180 0.500000 0.151400 -0.518505
O49   O     O_R   1.000000 0.894230 0.061260 -0.511605
O50   O     O_R   0.000000 0.894230 0.938740 -0.514773
O51   O     O_R   0.500000 0.394230 0.061260 -0.513066
O52   O     O_R   0.500000 0.394230 0.938740 -0.510682
O53   O     O_R   0.552180 0.105790 0.052210 -0.499159
O54   O     O_R   0.447820 0.105790 0.947790 -0.501193
O55   O     O_R   0.052180 0.605790 0.052210 -0.501890
O56   O     O_R   0.947820 0.605790 0.947790 -0.504766
O57   O     O_3   0.935149 0.144087 0.662326 -0.558683
O58   O     O_R   0.552180 0.999990 0.157990 -0.540461
O59   O     O_3   0.116579 0.149144 0.435677 -0.523769
O60   O     O_3   0.382352 0.650235 0.564054 -0.534844
O61   O     O_3   0.620686 0.654631 0.439388 -0.532619
O62   O     O_3   0.922343 0.221810 0.780325 -0.519135
O63   O     O_3   0.122106 0.234972 0.320522 -0.497982
O64   O     O_3   0.377151 0.735616 0.680689 -0.497514
O65   O     O_3   0.623239 0.738384 0.319258 -0.491526
O66   O     O_2   0.870159 0.159205 0.906690 -0.334505
O67   O     O_2   0.850158 0.269177 0.815751 -0.229597
O68   O     O_3   0.757836 0.189904 0.758383 -0.557163
O69   O     O_R   0.447820 0.999990 0.842010 -0.541216
O70   O     O_2   0.133055 0.161055 0.121087 -0.356183
O71   O     O_2   0.147545 0.269376 0.211312 -0.219788
O72   O     O_3   0.243721 0.202210 0.264477 -0.540219
O73   O     O_2   0.369186 0.662257 0.881125 -0.341206
O74   O     O_2   0.348943 0.770288 0.786669 -0.248133
O75   O     O_3   0.256887 0.696330 0.740903 -0.586673
O76   O     O_2   0.632760 0.658971 0.117677 -0.355013
O77   O     O_2   0.641560 0.769055 0.200557 -0.211605
O78   O     O_3   0.740960 0.707781 0.259085 -0.538314
O79   O     O_2   0.594929 0.784170 0.631944 -0.299841
O80   O     O_R   0.052180 0.499990 0.157990 -0.541687
O81   O     O_2   0.687542 0.831961 0.668295 -0.297728
O82   O     O_3   0.698502 0.721749 0.767182 -0.553144
O83   O     O_2   0.401092 0.785952 0.385986 -0.290578
O84   O     O_2   0.303922 0.834329 0.332916 -0.325188
O85   O     O_3   0.301001 0.716954 0.250388 -0.546806
O86   O     O_2   0.098880 0.284247 0.615094 -0.292726
O87   O     O_2   0.194867 0.333433 0.665588 -0.296149
O88   O     O_3   0.200091 0.216747 0.749729 -0.531660
O89   O     O_2   0.899882 0.282500 0.389254 -0.286324
O90   O     O_2   0.803845 0.333981 0.336089 -0.306100
O91   O     O_R   0.947820 0.499990 0.842010 -0.542115
O92   O     O_3   0.798243 0.215515 0.253354 -0.536469
O93   O     O_3   0.708510 0.049793 0.892200 -0.545920
O94   O     O_3   0.288604 0.033630 0.099368 -0.545968
O95   O     O_3   0.204905 0.537454 0.891584 -0.543682
O96   O     O_3   0.790184 0.529823 0.101164 -0.548497
O97   O     O_2   0.762338 0.004687 0.113021 -0.334795
O98   O     O_2   0.662138 0.063579 0.996724 -0.257598
O99   O     O_3   0.668876 0.942471 0.077349 -0.493428
O100  O     O_2   0.239820 0.956708 0.879948 -0.350759
O101  O     O_2   0.329954 0.035787 0.988456 -0.257279
O102  O     O_R   0.447790 0.000000 0.053610 -0.419363
O103  O     O_3   0.344598 0.908111 0.942939 -0.500661
O104  O     O_2   0.260014 0.467119 0.116094 -0.331556
O105  O     O_2   0.167175 0.541095 0.006051 -0.257437
O106  O     O_3   0.157720 0.414181 0.059228 -0.492542
O107  O     O_2   0.741502 0.450124 0.882695 -0.336682
O108  O     O_2   0.830815 0.530405 0.990483 -0.260008
O109  O     O_3   0.847029 0.402425 0.947857 -0.485719
O110  O     O_3   0.816210 0.918683 0.918756 -0.571433
O111  O     O_3   0.182497 0.919095 0.080087 -0.576302
O112  O     O_3   0.316834 0.418821 0.918342 -0.575609
S1    S     S_3+6 0.831576 0.190975 0.807180 -0.006645
S2    S     S_3+6 0.307155 0.958375 0.967087 -0.006977
S3    S     S_3+6 0.192363 0.464835 0.030536 0.005658
S4    S     S_3+6 0.808708 0.452732 0.970281 0.002306
S5    S     S_3+6 0.171208 0.193965 0.220247 -0.010282
S6    S     S_3+6 0.328647 0.693514 0.781362 -0.027765
S7    S     S_3+6 0.668768 0.695099 0.214645 -0.006091
S8    S     S_3+6 0.662042 0.800337 0.711292 -0.017828
S9    S     S_3+6 0.334490 0.798346 0.300268 -0.022265
S10   S     S_3+6 0.165576 0.297560 0.700198 -0.010884
S11   S     S_3+6 0.833576 0.296252 0.303075 -0.020952
S12   S     S_3+6 0.694823 0.991522 0.033022 0.020006

loop_
_geom_bond_atom_site_label_1
_geom_bond_atom_site_label_2
_ccdc_geom_bond_type
C48   H153  S    
Cu8   O40   S    
C33   H103  S    
C54   H9    S    
C87   C91   A    
Cu7   O26   S    
Cu1   O1    S    
C19   C20   S    
C63   H32   S    
C43   H141  S    
C68   O7    S    
Cu12  O2    S    
C44   H145  S    
Cu4   O56   S    
C146  C157  A    
O92   S11   S    
C39   H125  S    
C19   H46   S    
C70   H48   S    
C40   H130  S    
C46   C79   A    
C95   C99   A    
C128  C145  S    
Cu7   O33   S    
C50   H158  S    
C89   C94   A    
C91   C96   A    
C25   H80   S    
C17   H2    S    
C41   H131  S    
C21   O60   S    
C39   O95   S    
Cu1   Cu6   S    
C134  O51   A    
C14   C84   A    
O101  S2    D    
C40   H127  S    
Cu11  O39   S    
C61   H26   S    
C15   C85   A    
H136  O99   S    
C47   H151  S    
C59   C60   S    
Cu4   O21   S    
C106  S5    S    
C86   C165  S    
Cu10  O48   S    
Cu6   O31   S    
O76   S7    D    
C62   H28   S    
C92   O24   A    
Cu5   O47   S    
C45   C47   S    
C22   H77   S    
C58   H19   S    
O79   S8    D    
C142  O18   A    
C28   H90   S    
C90   C117  A    
C164  C168  A    
O97   S12   D    
C157  S8    S    
C36   H119  S    
C98   C102  A    
Cu5   O30   S    
C77   H67   S    
Cu1   O28   S    
C66   H41   S    
C142  C151  S    
C45   O111  S    
C14   O111  S    
C81   O23   A    
C37   C38   S    
C75   H61   S    
C56   H15   S    
C11   C150  A    
C20   H70   S    
C27   H88   S    
H140  O109  S    
C24   C117  S    
O107  S4    D    
C153  C156  T    
C67   H43   S    
C137  O55   A    
C154  C155  T    
C60   H22   S    
C108  S7    S    
O90   S11   D    
H111  O85   S    
C32   H101  S    
C103  C121  S    
C110  O32   A    
C7    S4    S    
C150  C161  A    
C65   O10   S    
C35   C78   A    
C102  O64   S    
C96   O57   S    
O77   S7    D    
C9    H73   S    
C52   H4    S    
C100  O62   S    
C72   C73   S    
C20   H71   S    
C26   H83   S    
C119  C123  T    
C131  O46   A    
C81   C119  S    
C126  C141  S    
C51   H3    S    
C1    O22   A    
O88   S10   S    
H109  O78   S    
C87   O8    S    
Cu6   O23   S    
H105  O68   S    
C65   H37   S    
C25   H82   S    
C133  O50   A    
C1    O1    A    
C60   H25   S    
C87   C113  A    
C33   H102  S    
C36   H116  S    
C47   H149  S    
C85   C164  S    
C71   H51   S    
H110  O82   S    
C157  C162  A    
C161  C165  A    
C49   H155  S    
C106  C115  A    
C8    H1    S    
Cu3   O55   S    
C51   H159  S    
C35   O4    S    
O67   S1    D    
H137  O103  S    
Cu2   O102  S    
Cu10  Cu11  S    
C129  O40   A    
H138  O106  S    
Cu10  O42   S    
O83   S9    D    
C105  C113  A    
Cu11  O46   S    
C81   O25   A    
Cu7   O24   S    
C10   C149  A    
O85   S9    S    
C79   C84   A    
C44   H144  S    
C27   H86   S    
C13   C57   A    
C130  O41   A    
C123  C139  S    
Cu2   O69   S    
C118  C122  T    
C48   H152  S    
C73   H56   S    
C19   O59   S    
C34   H114  S    
Cu12  O58   S    
C127  O37   A    
C30   O64   S    
C74   O15   S    
C168  O95   S    
C63   O9    S    
Cu2   O19   S    
C45   H146  S    
C131  O42   A    
C162  C166  A    
C21   H74   S    
C74   H60   S    
O99   S12   S    
C57   C80   A    
Cu12  O18   S    
C94   O15   S    
C12   C114  A    
Cu5   Cu7   S    
C29   H93   S    
C6    C168  A    
C47   H148  S    
C109  O31   A    
C29   H91   S    
C64   H33   S    
C131  C136  S    
C39   C40   S    
C141  O91   A    
Cu3   O20   S    
O82   S8    S    
C15   C136  A    
O104  S3    D    
C150  H139  S    
C93   O14   S    
C135  O54   A    
C53   H6    S    
C5    C9    A    
C36   H118  S    
C59   H20   S    
C42   H134  S    
C17   C18   S    
C62   H30   S    
C102  C107  A    
O89   S11   D    
Cu1   O25   S    
O87   S10   D    
C23   O61   S    
C22   H75   S    
C5    S2    S    
C84   C163  S    
C43   O110  S    
C83   C162  S    
O100  S2    D    
C38   H123  S    
O74   S6    D    
C93   C97   A    
O70   S5    D    
C52   C53   S    
C3    C165  A    
C55   H12   S    
C101  C106  A    
C54   C55   S    
C97   O59   S    
C54   H10   S    
C132  C147  S    
C108  C117  A    
C8    C146  A    
C32   O65   S    
C63   H31   S    
C24   C147  A    
C90   C95   A    
Cu9   O50   S    
C9    C148  A    
Cu4   O91   S    
Cu9   O37   S    
C88   C115  A    
C56   O6    S    
C92   C120  S    
C70   H49   S    
C73   H58   S    
C132  O48   A    
C48   O112  S    
C133  O49   A    
C96   C100  A    
C56   C58   S    
C148  H117  S    
C78   C109  S    
C34   C36   S    
O108  S4    D    
C61   C62   S    
C149  C160  A    
C107  C116  A    
C63   C64   S    
C2    C125  A    
C55   H14   S    
C54   O5    S    
Cu9   O44   S    
C18   H24   S    
O73   S6    D    
C21   C22   S    
C104  O65   S    
C112  O34   A    
C58   H17   S    
C30   H96   S    
C41   C42   S    
C76   H65   S    
Cu6   O32   S    
C3    O96   S    
C21   H72   S    
H107  O72   S    
C111  O29   A    
C166  O93   S    
C59   O7    S    
C26   C27   S    
C16   C147  A    
C160  C164  A    
C28   C29   S    
C53   H8    S    
C3    C7    A    
C19   H57   S    
C30   C31   S    
C128  O39   A    
C94   C98   A    
Cu5   O29   S    
Cu8   O49   S    
C72   H53   S    
C77   H66   S    
Cu1   O27   S    
C31   H98   S    
C88   O9    S    
C114  C158  A    
C28   O63   S    
C66   H40   S    
C56   H16   S    
C12   O110  S    
C78   C83   A    
C27   H87   S    
C23   H78   S    
C70   C71   S    
C76   O16   S    
O66   S1    D    
Cu10  O38   S    
C129  O44   A    
C4    C8    A    
C99   C104  A    
C33   H104  S    
C16   C86   A    
C43   H142  S    
O106  S3    S    
C38   H122  S    
O103  S2    S    
C39   H126  S    
C122  C138  S    
C40   H129  S    
C34   O93   S    
C82   C86   A    
Cu7   O34   S    
C12   C83   A    
C148  C159  A    
C82   C112  S    
C80   C85   A    
C45   H147  S    
C25   H81   S    
C2    C115  S    
C41   O96   S    
C50   C51   S    
C90   O11   S    
C37   O94   S    
C61   H27   S    
C103  O26   A    
C143  C152  S    
C30   H94   S    
Cu8   O35   S    
C109  O27   A    
C114  C129  S    
C77   H69   S    
Cu6   O22   S    
C104  C108  A    
C49   H154  S    
C89   O10   S    
C26   O62   S    
C28   H89   S    
C79   C110  S    
C91   O12   S    
C124  C140  S    
C69   H45   S    
C72   O14   S    
C6    C10   A    
C16   O3    S    
Cu10  O51   S    
Cu4   O13   S    
C32   C33   S    
C105  S1    S    
C35   C158  A    
C68   C82   A    
C75   H62   S    
C67   O11   S    
C134  C154  S    
C142  O19   A    
C51   H160  S    
C80   C111  S    
O68   S1    S    
C4    S12   S    
O98   S12   D    
C127  C144  S    
C99   O61   S    
C137  O56   A    
C73   H55   S    
C13   C116  S    
C57   O6    S    
C24   C68   A    
C141  O17   A    
C34   H115  S    
C52   O4    S    
C130  O45   A    
C50   H157  S    
C107  S6    S    
C144  C152  T    
O84   S9    D    
Cu12  O53   S    
C55   H11   S    
C70   O12   S    
Cu3   Cu4   S    
C41   H132  S    
Cu9   O41   S    
C18   H35   S    
C43   C44   S    
Cu11  O43   S    
Cu3   O80   S    
C143  O21   A    
C2    C46   A    
C7    C11   A    
C100  C105  A    
C66   H39   S    
C14   C125  A    
C50   O3    S    
C133  C153  S    
C15   O112  S    
C64   H34   S    
C76   H64   S    
O81   S8    D    
O86   S10   D    
C65   H38   S    
C37   H121  S    
C135  C155  S    
Cu5   O36   S    
C74   H59   S    
C135  O53   A    
C101  O63   S    
C98   O60   S    
C125  C130  S    
C62   H29   S    
C149  H128  S    
C128  O38   A    
C72   H54   S    
C42   H135  S    
C71   H52   S    
C17   H150  S    
C113  C158  S    
C140  O80   A    
C31   H99   S    
Cu11  O52   S    
C22   H76   S    
C32   H100  S    
C49   H156  S    
C111  O33   A    
H108  O75   S    
O105  S3    D    
C37   H120  S    
C23   C25   S    
C92   O36   A    
C89   C116  A    
C23   H79   S    
C18   H13   S    
O72   S5    S    
C69   H47   S    
C110  O28   A    
Cu8   O45   S    
H112  O88   S    
C127  O35   A    
C74   C75   S    
C139  O2    A    
C160  S10   S    
C167  O94   S    
C75   H63   S    
C76   C77   S    
C161  S11   S    
O75   S6    S    
C103  O47   A    
C137  C156  S    
Cu2   Cu12  S    
C67   C69   S    
C67   H42   S    
C163  C167  A    
C146  H106  S    
C143  O20   A    
C59   H21   S    
C60   H23   S    
C112  O30   A    
C46   O5    S    
C11   H95   S    
C145  C151  T    
Cu8   Cu9   S    
C138  O102  A    
C6    S3    S    
C13   C136  A    
C159  C163  A    
C52   H5    S    
C139  O69   A    
C17   O57   S    
C88   C93   A    
C48   C49   S    
C29   H92   S    
C64   H36   S    
C134  O52   A    
Cu3   O17   S    
Cu2   O54   S    
O109  S4    S    
C38   H124  S    
C61   O8    S    
O78   S7    S    
C69   H44   S    
C26   H85   S    
C53   H7    S    
C121  C126  T    
C10   H84   S    
H113  O92   S    
C140  O13   A    
C42   H133  S    
C71   H50   S    
C4    C166  A    
C159  S9    S    
C1    C118  S    
C5    C167  A    
C31   H97   S    
C58   H18   S    
C20   H68   S    
C65   C66   S    
C138  O58   A    
C95   O16   S    
C44   H143  S    
C132  O43   A    
O71   S5    D    
C97   C101  A    
C120  C124  T    
