data_mof_unit_29722.cif
_audit_creation_date              2012-12-10T20:31:58-0500
_audit_creation_method            fapswitch 2.2
_symmetry_space_group_name_H-M    P1
_symmetry_Int_Tables_number       1
_space_group_crystal_system       triclinic
_cell_length_a                    9.877957
_cell_length_b                    10.694552
_cell_length_c                    15.504731
_cell_angle_alpha                 90.053043
_cell_angle_beta                  68.360672
_cell_angle_gamma                 89.291588
_cell_volume                      1522.34686842

loop_
_atom_site_label
_atom_site_type_symbol
_atom_type_description
_atom_site_fract_x
_atom_site_fract_y
_atom_site_fract_z
_atom_type_partial_charge
C1    C     C_R   0.501385 0.740221 0.496837 0.894732
C2    C     C_R   0.741923 0.470997 0.030759 0.152588
C3    C     C_R   0.596071 0.439957 0.085075 0.097092
C4    C     C_R   0.409386 0.497368 0.675788 0.896854
C5    C     C_R   0.839988 0.502205 0.073467 -0.202105
C6    C     C_R   0.792955 0.508517 0.169728 -0.201189
C7    C     C_R   0.551316 0.448159 0.181402 -0.255966
C8    C     C_R   0.396956 0.938367 0.469884 0.129272
C9    C     C_R   0.511554 0.871670 0.480722 -0.103939
C10   C     C_R   0.640644 0.933778 0.471781 -0.217576
C11   C     C_R   0.641837 0.063101 0.471334 -0.219950
C12   C     C_R   0.429663 0.435862 0.906289 0.098367
C13   C     C_R   0.514003 0.128920 0.479723 -0.101985
C14   C     C_R   0.398298 0.066115 0.469485 0.128410
C15   C     C_3   0.238663 0.077342 0.524026 -0.458438
C16   C     C_R   0.502902 0.260043 0.496384 0.874055
C17   C     C_3   0.236998 0.935918 0.524692 -0.488498
C18   C     C_R   0.883399 0.535719 0.577435 0.155503
C19   C     C_R   0.970993 0.453346 0.426818 -0.139341
C20   C     C_R   0.114749 0.453089 0.426891 -0.136185
C21   C     C_R   0.025987 0.535571 0.577512 0.177254
C22   C     C_3   0.002306 0.661149 0.622527 0.184615
C23   C     C_R   0.290276 0.386766 0.956138 0.180308
C24   C     C_3   0.848055 0.660381 0.623743 -0.534083
C25   C     C_R   0.590753 0.497550 0.324280 0.864229
C26   C     C_R   0.356625 0.473372 0.775287 -0.040505
C27   C     C_R   0.647241 0.484727 0.223610 -0.053570
C28   C     C_R   0.187392 0.377389 0.913600 -0.236856
C29   C     C_R   0.221386 0.418799 0.822711 -0.158573
C30   C     C_R   0.455878 0.486610 0.819028 -0.256129
C31   C     C_R   0.537653 0.436815 0.945900 0.055275
C32   C     C_R   0.496272 0.412178 0.041622 0.072156
C33   C     C_R   0.356265 0.362781 0.090405 -0.227577
C34   C     C_R   0.256225 0.347824 0.047356 -0.234706
C35   C     C_R   0.685853 0.460126 0.892602 -0.199432
C36   C     C_R   0.786717 0.474397 0.934667 -0.197514
Cl1   Cl    Cl    0.011220 0.656770 0.735163 -0.664970
H1    H     H_    0.150565 0.308785 0.086384 0.149043
H2    H     H_    0.203371 0.416641 0.367216 0.144985
H3    H     H_    0.439409 0.432765 0.224925 0.147443
H4    H     H_    0.071210 0.732591 0.576411 0.121824
H5    H     H_    0.762717 0.654980 0.694313 0.225154
H6    H     H_    0.827739 0.733132 0.578615 0.186628
H7    H     H_    0.868883 0.535783 0.201726 0.157216
H8    H     H_    0.898864 0.493479 0.892223 0.197865
H9    H     H_    0.082347 0.335629 0.949813 0.144859
H10   H     H_    0.144407 0.404983 0.788862 0.176641
H11   H     H_    0.554764 0.536547 0.783207 0.152217
H12   H     H_    0.951318 0.526476 0.032516 0.158407
H13   H     H_    0.322882 0.330910 0.161123 0.138759
H14   H     H_    0.727261 0.464812 0.817791 0.169332
H15   H     H_    0.736446 0.883862 0.472264 0.168066
H16   H     H_    0.737980 0.110307 0.471796 0.173146
H17   H     H_    0.213309 0.119302 0.594017 0.213057
H18   H     H_    0.178620 0.119411 0.482797 0.203202
H19   H     H_    0.210920 0.896381 0.595231 0.232462
H20   H     H_    0.175853 0.897189 0.483477 0.195378
H21   H     H_    0.951885 0.417693 0.367044 0.142879
N1    N     N_R   0.856900 0.500860 0.500610 -0.098619
N2    N     N_R   0.142540 0.500820 0.500610 -0.124933
O1    O     O_R   0.385310 0.683210 0.499990 -0.608178
O2    O     O_R   0.614650 0.683240 0.500000 -0.622644
O3    O     O_R   0.319830 0.499970 0.632240 -0.577614
O4    O     O_R   0.549170 0.500000 0.632250 -0.618484
O5    O     O_R   0.385350 0.316760 0.500000 -0.619201
O6    O     O_R   0.614690 0.316790 0.500010 -0.618502
O7    O     O_R   0.450830 0.500000 0.367750 -0.625182
O8    O     O_R   0.680170 0.500030 0.367760 -0.623519
Zn1   Zn    Zn3+2 0.346870 0.499980 0.499990 0.962186
Zn2   Zn    Zn3+2 0.653130 0.500020 0.500010 0.944504

loop_
_geom_bond_atom_site_label_1
_geom_bond_atom_site_label_2
_ccdc_geom_bond_type
C3    C32   A    
C4    C26   S    
C7    H3    S    
C23   C28   A    
C1    O1    A    
C22   Cl1   S    
O4    Zn2   S    
C20   N2    A    
C18   C21   A    
C24   H5    S    
C9    C10   A    
C4    O4    A    
C6    C27   A    
C11   H16   S    
C28   H9    S    
C23   C34   A    
C10   H15   S    
C1    O2    A    
C22   C24   S    
C2    C3    A    
C1    C9    S    
C36   H8    S    
C19   H21   S    
C15   H18   S    
O1    Zn1   S    
C13   C14   A    
C32   C33   A    
C8    C17   S    
C11   C13   A    
C17   H19   S    
C5    H12   S    
C21   N2    A    
O6    Zn2   S    
C25   O8    A    
N2    Zn1   S    
C29   H10   S    
C4    O3    A    
C18   C24   S    
C31   C35   A    
C21   C22   S    
C28   C29   A    
C33   C34   A    
C26   C30   A    
C3    C7    A    
C12   C31   A    
C35   H14   S    
C5    C6    A    
O5    Zn1   S    
C22   H4    S    
C25   C27   S    
C10   C11   A    
N1    Zn2   S    
C2    C36   A    
C2    C5    A    
C15   H17   S    
O3    Zn1   S    
C18   N1    A    
C7    C27   A    
O2    Zn2   S    
C26   C29   A    
C15   C17   S    
C6    H7    S    
C13   C16   S    
C30   H11   S    
C24   H6    S    
C20   H2    S    
C14   C15   S    
C16   O6    A    
C12   C23   A    
C16   O5    A    
C8    C14   A    
C19   N1    A    
C33   H13   S    
C34   H1    S    
O8    Zn2   S    
C12   C30   A    
C31   C32   A    
C19   C20   A    
C17   H20   S    
C8    C9    A    
O7    Zn1   S    
C35   C36   A    
C25   O7    A    
