data_mof_unit_52271.cif
_audit_creation_date              2012-10-26T20:59:15-0400
_audit_creation_method            fapswitch 2.2
_symmetry_space_group_name_H-M    P1
_symmetry_Int_Tables_number       1
_space_group_crystal_system       triclinic
_cell_length_a                    15.85178
_cell_length_b                    9.128512
_cell_length_c                    7.815512
_cell_angle_alpha                 90.354548
_cell_angle_beta                  93.470137
_cell_angle_gamma                 91.39275
_cell_volume                      1128.4889977

loop_
_atom_site_label
_atom_site_type_symbol
_atom_type_description
_atom_site_fract_x
_atom_site_fract_y
_atom_site_fract_z
_atom_type_partial_charge
C1    C     C_1   0.499945 0.065321 0.499553 -0.040998
C2    C     C_3   0.990607 0.606162 0.616953 0.237107
C3    C     C_1   0.249255 0.484723 0.481265 -0.017255
C4    C     C_1   0.750838 0.511745 0.520403 0.019165
C5    C     C_3   0.039905 0.466348 0.663211 0.208485
C6    C     C_3   0.960258 0.518144 0.357400 0.213880
C7    C     C_3   0.082107 0.475912 0.488756 -0.029563
C8    C     C_3   0.918443 0.509586 0.530876 0.002628
C9    C     C_1   0.173493 0.476605 0.476311 0.010310
C10   C     C_1   0.826668 0.515373 0.531994 0.057719
C11   C     C_3   0.943940 0.186980 0.246841 -0.122442
C12   C     C_1   0.500023 0.934679 0.500446 -0.040032
C13   C     C_3   0.052992 0.791849 0.786536 -0.131559
C14   C     C_3   0.979331 0.141618 0.701928 -0.125294
C15   C     C_3   0.013883 0.847300 0.332906 -0.126057
C16   C     C_3   0.952071 0.535257 0.063424 -0.042939
C17   C     C_3   0.148332 0.356350 0.830349 -0.125881
C18   C     C_R   0.499876 0.220073 0.499662 0.549498
C19   C     C_R   0.500104 0.779927 0.500336 0.552134
C20   C     C_R   0.339241 0.495836 0.494668 0.536662
C21   C     C_R   0.660774 0.504069 0.505440 0.542325
C22   C     C_3   0.967565 0.370000 0.577232 0.234626
C23   C     C_3   0.031417 0.615586 0.443490 0.239204
C24   C     C_3   0.008750 0.378076 0.403030 0.222421
Cu1   Cu    Cu3+1 0.500010 0.500000 0.669080 1.035834
Cu2   Cu    Cu3+1 0.499990 0.500000 0.330920 1.043332
H1    H     H_    0.891452 0.262269 0.213775 0.165259
H2    H     H_    0.972992 0.870457 0.439952 0.148085
H3    H     H_    0.974287 0.818578 0.215123 0.152625
H4    H     H_    0.049962 0.949412 0.307008 0.159434
H5    H     H_    0.962725 0.418433 0.035673 0.199885
H6    H     H_    0.012900 0.598749 0.072104 0.187458
H7    H     H_    0.912017 0.576949 0.954459 0.196698
H8    H     H_    0.205519 0.427602 0.820946 0.149498
H9    H     H_    0.144807 0.271023 0.727844 0.101761
H10   H     H_    0.155019 0.298869 0.954886 0.161877
H11   H     H_    0.925438 0.115064 0.352507 0.148480
H12   H     H_    0.951474 0.116751 0.132744 0.115490
H13   H     H_    0.083022 0.851811 0.682241 0.149526
H14   H     H_    0.097928 0.712879 0.845807 0.176865
H15   H     H_    0.040259 0.872792 0.887601 0.110459
H16   H     H_    0.008212 0.170320 0.830910 0.152610
H17   H     H_    0.028675 0.120656 0.609962 0.122191
H18   H     H_    0.942431 0.037967 0.714492 0.164312
N1    N     N_1   0.499990 0.500000 0.076820 -0.076796
N2    N     N_1   0.500010 0.500000 0.923180 -0.076447
O1    O     O_R   0.500000 0.288400 0.642760 -0.496193
O2    O     O_3   0.975523 0.724645 0.726990 -0.599217
O3    O     O_3   0.923088 0.250169 0.645399 -0.571158
O4    O     O_3   0.072548 0.737833 0.373101 -0.577774
O5    O     O_3   0.907648 0.550875 0.211482 -0.603855
O6    O     O_3   0.076166 0.443223 0.830435 -0.605026
O7    O     O_R   0.500000 0.711600 0.357240 -0.494428
O8    O     O_R   0.500000 0.288400 0.357240 -0.496331
O9    O     O_R   0.500000 0.711600 0.642760 -0.494103
O10   O     O_R   0.379080 0.500000 0.642760 -0.507955
O11   O     O_R   0.620920 0.500000 0.357240 -0.488371
O12   O     O_R   0.379070 0.500000 0.357190 -0.495621
O13   O     O_R   0.620930 0.500000 0.642810 -0.495580
O14   O     O_3   0.021825 0.260607 0.290281 -0.586969

loop_
_geom_bond_atom_site_label_1
_geom_bond_atom_site_label_2
_ccdc_geom_bond_type
C13   O2    S    
C8    C22   S    
C16   O5    S    
C5    O6    S    
C21   O11   A    
C3    C9    T    
C17   H10   S    
C16   H7    S    
C11   H12   S    
Cu1   O13   S    
Cu1   O1    S    
Cu1   O10   S    
C11   H1    S    
C24   O14   S    
C6    C24   S    
C18   O1    A    
C19   O7    A    
C13   H15   S    
C1    C18   S    
C3    C20   S    
C21   O13   A    
C14   H16   S    
C16   H5    S    
C4    C21   S    
Cu2   O12   S    
C15   H2    S    
C1    C12   T    
C22   O3    S    
C7    C23   S    
C6    C23   S    
Cu2   O8    S    
C17   O6    S    
C14   H18   S    
Cu1   O9    S    
C15   H3    S    
C5    C7    S    
C20   O10   A    
C6    O5    S    
Cu2   O11   S    
C22   C24   S    
C13   H13   S    
C14   O3    S    
C16   H6    S    
C17   H8    S    
C18   O8    A    
C4    C10   T    
C7    C24   S    
C2    C5    S    
Cu2   O7    S    
C7    C9    S    
C12   C19   S    
C15   H4    S    
C8    C10   S    
C15   O4    S    
C19   O9    A    
C2    C23   S    
C11   H11   S    
C23   O4    S    
C6    C8    S    
C17   H9    S    
Cu2   N1    S    
C2    O2    S    
Cu1   Cu2   S    
N1    N2    T    
C20   O12   A    
Cu1   N2    S    
C2    C8    S    
C5    C22   S    
C11   O14   S    
C14   H17   S    
C13   H14   S    
