data_mof_unit_25720.cif
_audit_creation_date              2013-03-05T16:01:05-0500
_audit_creation_method            fapswitch 2.2
_symmetry_space_group_name_H-M    P1
_symmetry_Int_Tables_number       1
_space_group_crystal_system       triclinic
_cell_length_a                    14.677241
_cell_length_b                    14.395752
_cell_length_c                    15.867525
_cell_angle_alpha                 76.320227
_cell_angle_beta                  103.144319
_cell_angle_gamma                 115.178505
_cell_volume                      2917.22490139

loop_
_atom_site_label
_atom_site_type_symbol
_atom_site_description
_atom_site_fract_x
_atom_site_fract_y
_atom_site_fract_z
_atom_type_partial_charge
O1    O     O_R   0.977900 0.338120 0.529810 -0.580575
O2    O     O_R   0.022100 0.661880 0.470190 -0.586273
O3    O     O_R   0.839850 0.379180 0.491620 -0.577324
O4    O     O_R   0.160150 0.620820 0.508380 -0.574419
C1    C     C_R   0.880226 0.310334 0.517455 0.788054
C2    C     C_R   0.119532 0.689246 0.479982 0.799281
O5    O     O_R   0.069010 0.479460 0.640020 -0.594373
O6    O     O_R   0.930990 0.520540 0.359980 -0.597591
O7    O     O_R   0.930960 0.520530 0.601820 -0.573560
O8    O     O_R   0.069040 0.479470 0.398180 -0.576971
C3    C     C_R   0.000094 0.500066 0.660153 0.829106
C4    C     C_R   0.999278 0.498582 0.340019 0.814637
Cu1   Cu    Cu3+1 0.081740 0.475690 0.522610 0.911246
Cu2   Cu    Cu3+1 0.918260 0.524310 0.477390 0.912047
C5    C     C_3   0.044997 0.430323 0.052358 0.159649
C6    C     C_3   0.952383 0.552158 0.951168 0.157696
C7    C     C_3   0.950653 0.394940 0.981919 0.147517
C8    C     C_3   0.046746 0.587410 0.021238 0.146611
C9    C     C_1   0.000398 0.499026 0.749932 -0.196468
C10   C     C_1   0.996959 0.493959 0.251106 -0.195721
C11   C     C_3   0.096344 0.529732 0.988194 0.056389
C12   C     C_3   0.901044 0.452704 0.015176 0.053097
C13   C     C_3   0.001687 0.494471 0.918146 0.030546
C14   C     C_3   0.995711 0.488267 0.085098 0.029816
C15   C     C_1   0.001517 0.497254 0.825934 -0.036171
C16   C     C_1   0.995573 0.490136 0.176282 -0.036426
C17   C     C_R   0.811634 0.198409 0.532166 -0.155059
C18   C     C_R   0.185413 0.801274 0.461453 -0.138140
C19   C     C_R   0.757956 0.026088 0.624479 0.072194
C20   C     C_R   0.216724 0.980388 0.386861 0.080597
C21   C     C_R   0.835532 0.125912 0.602723 0.034223
C22   C     C_R   0.158393 0.870628 0.390247 0.039493
C23   C     C_R   0.713822 0.168663 0.481844 0.003973
C24   C     C_R   0.278055 0.840547 0.515992 0.010289
C25   C     C_R   0.635189 0.075659 0.513132 0.012823
C26   C     C_R   0.352170 0.936153 0.484553 0.000348
C27   C     C_R   0.662683 0.996946 0.569635 0.057572
C28   C     C_R   0.319546 0.014673 0.432652 0.045966
C29   C     C_R   0.530084 0.056879 0.489971 0.029552
C30   C     C_R   0.456949 0.955079 0.505676 0.022474
C31   C     C_R   0.490349 0.873079 0.535836 -0.246644
C32   C     C_R   0.496290 0.138042 0.460574 -0.232692
C33   C     C_R   0.592216 0.892506 0.568544 0.158264
C34   C     C_R   0.393399 0.120030 0.430421 0.161657
H1    H     H_    0.437171 0.793153 0.534285 0.163291
H2    H     H_    0.550234 0.216884 0.464367 0.152862
N1    N     N_R   0.795440 0.560790 0.443380 -0.188166
N2    N     N_R   0.204560 0.439210 0.556620 -0.188486
C35   C     C_R   0.692471 0.626400 0.325979 -0.019778
C36   C     C_R   0.310168 0.375397 0.672776 -0.025156
C37   C     C_R   0.784218 0.615297 0.362319 0.047828
C38   C     C_R   0.219496 0.389831 0.639307 0.053870
C39   C     C_R   0.718646 0.517230 0.492918 -0.000200
C40   C     C_R   0.277700 0.476896 0.503802 -0.004921
C41   C     C_R   0.625971 0.532202 0.463485 -0.060006
C42   C     C_R   0.369439 0.459736 0.531266 -0.057596
C43   C     C_R   0.618330 0.598458 0.382051 0.084363
C44   C     C_R   0.378911 0.396305 0.613653 0.092203
C45   C     C_R   0.541120 0.482899 0.511722 0.045330
C46   C     C_R   0.452611 0.505714 0.481289 0.050804
C47   C     C_R   0.452756 0.579579 0.405321 -0.245673
C48   C     C_R   0.538923 0.405563 0.585741 -0.252129
C49   C     C_R   0.536826 0.632588 0.360392 0.089523
C50   C     C_R   0.456372 0.356936 0.632949 0.094048
H3    H     H_    0.262022 0.519683 0.440931 0.132334
H4    H     H_    0.732136 0.471843 0.555107 0.132056
H5    H     H_    0.162776 0.366686 0.681514 0.131064
H6    H     H_    0.844397 0.643199 0.322819 0.129248
H7    H     H_    0.389303 0.601932 0.381060 0.132235
H8    H     H_    0.598618 0.376942 0.605869 0.131585
C51   C     C_3   0.898908 0.285748 0.958294 -0.874851
H9    H     H_    0.864117 0.229586 0.014750 0.232923
H10   H     H_    0.839133 0.283044 0.900722 0.226357
H11   H     H_    0.956003 0.263914 0.941842 0.236676
C52   C     C_3   0.098941 0.696656 0.044198 -0.877142
H12   H     H_    0.132850 0.752582 0.987283 0.232405
H13   H     H_    0.041576 0.717613 0.060791 0.246419
H14   H     H_    0.159251 0.699842 0.101400 0.228633
C53   C     C_3   0.671290 0.651303 0.226361 -0.451784
C54   C     C_3   0.686818 0.577755 0.179686 -0.330545
C55   C     C_3   0.652852 0.596659 0.080976 -0.873619
H15   H     H_    0.570110 0.579592 0.067051 0.259109
H16   H     H_    0.695824 0.678620 0.052917 0.257471
H17   H     H_    0.667477 0.544970 0.048623 0.244200
H18   H     H_    0.768318 0.589970 0.190367 0.212401
H19   H     H_    0.642047 0.495590 0.206223 0.223892
H20   H     H_    0.591075 0.641737 0.204657 0.213684
H21   H     H_    0.721942 0.732911 0.204306 0.193344
C56   C     C_3   0.336785 0.353399 0.772077 -0.456066
C57   C     C_3   0.330717 0.432698 0.818561 -0.330853
C58   C     C_3   0.369589 0.415865 0.916436 -0.871993
H22   H     H_    0.326584 0.334952 0.946760 0.256862
H23   H     H_    0.451845 0.431195 0.926984 0.259519
H24   H     H_    0.359207 0.469892 0.949262 0.245610
H25   H     H_    0.377333 0.512973 0.789316 0.224218
H26   H     H_    0.250840 0.425070 0.810994 0.209765
H27   H     H_    0.284308 0.273971 0.797269 0.189254
H28   H     H_    0.416005 0.358346 0.790451 0.216508
C59   C     C_3   0.093263 0.358530 0.111794 -0.880143
H29   H     H_    0.128180 0.331810 0.072294 0.233859
H30   H     H_    0.152273 0.400220 0.162655 0.229059
H31   H     H_    0.034078 0.290114 0.144622 0.238156
C60   C     C_3   0.904023 0.624215 0.892352 -0.876224
H32   H     H_    0.868994 0.650298 0.932285 0.234164
H33   H     H_    0.963150 0.693018 0.859784 0.236955
H34   H     H_    0.845106 0.582936 0.841245 0.229871
C61   C     C_3   0.792481 0.405124 0.037416 -0.381172
C62   C     C_3   0.711603 0.393416 0.955706 -0.334604
C63   C     C_3   0.605787 0.322525 0.979320 -0.880822
H35   H     H_    0.602508 0.243048 0.007747 0.258977
H36   H     H_    0.586399 0.353712 0.027393 0.258560
H37   H     H_    0.548595 0.317517 0.919363 0.238063
H38   H     H_    0.711001 0.470749 0.924381 0.220140
H39   H     H_    0.728491 0.360391 0.907495 0.225792
H40   H     H_    0.780711 0.327739 0.077777 0.205597
H41   H     H_    0.785040 0.454602 0.077415 0.192879
C64   C     C_3   0.205705 0.577672 0.967797 -0.386633
C65   C     C_3   0.285008 0.586035 0.050558 -0.332396
C66   C     C_3   0.390351 0.664317 0.030592 -0.882696
H42   H     H_    0.412608 0.644234 0.977104 0.257187
H43   H     H_    0.390795 0.743875 0.010698 0.257619
H44   H     H_    0.447250 0.663808 0.090016 0.235194
H45   H     H_    0.263911 0.610762 0.101938 0.225958
H46   H     H_    0.288897 0.508942 0.076833 0.219612
H47   H     H_    0.213915 0.530199 0.926302 0.189469
H48   H     H_    0.218828 0.656288 0.929755 0.214015
C67   C     C_3   0.623551 0.801342 0.588801 -0.917786
H49   H     H_    0.592369 0.756574 0.533356 0.244466
H50   H     H_    0.707416 0.826518 0.598075 0.237539
H51   H     H_    0.592602 0.748398 0.648095 0.233751
C68   C     C_3   0.370465 0.216781 0.405606 -0.903096
H52   H     H_    0.430333 0.281567 0.438216 0.237100
H53   H     H_    0.369435 0.245096 0.334158 0.231877
H54   H     H_    0.300133 0.204622 0.428537 0.247346
C69   C     C_3   0.292091 0.791704 0.612125 -0.401182
C70   C     C_3   0.213981 0.793121 0.661372 -0.328750
C71   C     C_3   0.230683 0.749756 0.758238 -0.885167
H55   H     H_    0.224081 0.668422 0.766374 0.259251
H56   H     H_    0.307043 0.798018 0.789636 0.255969
H57   H     H_    0.171947 0.750473 0.791267 0.241604
H58   H     H_    0.220725 0.874356 0.654906 0.220790
H59   H     H_    0.135388 0.745821 0.633559 0.218216
H60   H     H_    0.287339 0.711479 0.618422 0.219307
H61   H     H_    0.368351 0.836392 0.645904 0.204169
C72   C     C_3   0.702067 0.225278 0.387269 -0.349156
C73   C     C_3   0.646987 0.150999 0.319664 -0.354905
C74   C     C_3   0.662138 0.208229 0.226568 -0.883293
H62   H     H_    0.634587 0.272137 0.211076 0.261028
H63   H     H_    0.744020 0.240925 0.219631 0.249201
H64   H     H_    0.618933 0.153221 0.179152 0.246517
H65   H     H_    0.676517 0.088630 0.333573 0.230102
H66   H     H_    0.564257 0.115082 0.322933 0.232888
H67   H     H_    0.664883 0.279766 0.380998 0.195744
H68   H     H_    0.778556 0.274413 0.367783 0.200462
C75   C     C_3   0.070011 0.829735 0.317769 -0.400485
C76   C     C_3   0.106392 0.854862 0.228183 -0.361753
C77   C     C_3   0.019247 0.851894 0.153420 -0.878038
H69   H     H_    0.958024 0.772521 0.156891 0.254878
H70   H     H_    0.987305 0.908092 0.156997 0.251232
H71   H     H_    0.047915 0.874058 0.089585 0.245854
H72   H     H_    0.169630 0.932405 0.218907 0.221873
H73   H     H_    0.136012 0.796836 0.224196 0.216105
H74   H     H_    0.029358 0.744600 0.328668 0.207457
H75   H     H_    0.012016 0.860985 0.315636 0.197306
C78   C     C_3   0.944467 0.149471 0.649633 -0.386709
C79   C     C_3   0.006244 0.126844 0.596345 -0.312287
C80   C     C_3   0.098487 0.109856 0.653483 -0.887141
H76   H     H_    0.144232 0.174797 0.690937 0.252648
H77   H     H_    0.073277 0.036195 0.700416 0.248895
H78   H     H_    0.147048 0.104907 0.611713 0.241736
H79   H     H_    0.957863 0.055533 0.566578 0.214313
H80   H     H_    0.032610 0.192268 0.542334 0.241222
H81   H     H_    0.982329 0.229912 0.664282 0.191116
H82   H     H_    0.947080 0.103024 0.715615 0.202759
C81   C     C_3   0.768357 0.961618 0.715136 -0.413978
C82   C     C_3   0.767903 0.016105 0.787632 -0.353290
C83   C     C_3   0.789248 0.957833 0.878580 -0.860843
H83   H     H_    0.730769 0.877121 0.886744 0.253695
H84   H     H_    0.865682 0.955506 0.888334 0.252861
H85   H     H_    0.787336 0.998272 0.929307 0.244149
H86   H     H_    0.825103 0.097382 0.782955 0.215489
H87   H     H_    0.691987 0.019214 0.780168 0.220962
H88   H     H_    0.703767 0.885674 0.722734 0.219622
H89   H     H_    0.836939 0.943536 0.726180 0.197294
C84   C     C_3   0.166452 0.054279 0.334559 -0.396377
C85   C     C_3   0.102612 0.069384 0.390707 -0.347944
C86   C     C_3   0.066585 0.156396 0.345372 -0.853884
H90   H     H_    0.132793 0.231600 0.335624 0.260493
H91   H     H_    0.020414 0.138788 0.280812 0.249892
H92   H     H_    0.018817 0.163739 0.386501 0.239505
H93   H     H_    0.034961 0.995981 0.402479 0.214101
H94   H     H_    0.146676 0.087308 0.455804 0.217017
H95   H     H_    0.220617 0.127892 0.304414 0.206874
H96   H     H_    0.115037 0.025317 0.275461 0.202311
C87   C     C_3   0.538362 0.729794 0.295003 -0.438764
C88   C     C_3   0.523261 0.809137 0.334915 -0.328731
C89   C     C_3   0.506794 0.894831 0.263689 -0.868590
H97   H     H_    0.576671 0.942022 0.232627 0.254277
H98   H     H_    0.442159 0.860995 0.212715 0.254849
H99   H     H_    0.487900 0.945709 0.293279 0.243908
H100  H     H_    0.456275 0.772413 0.370311 0.220030
H101  H     H_    0.591611 0.844735 0.382276 0.227804
H102  H     H_    0.612141 0.772819 0.269886 0.202132
H103  H     H_    0.477087 0.705131 0.239136 0.199354
C90   C     C_3   0.448659 0.256528 0.696039 -0.449173
C91   C     C_3   0.448257 0.173474 0.650227 -0.323166
C92   C     C_3   0.435774 0.072086 0.713218 -0.863171
H104  H     H_    0.498494 0.085650 0.769288 0.252065
H105  H     H_    0.361608 0.038984 0.738160 0.253331
H106  H     H_    0.438135 0.015044 0.678268 0.250064
H107  H     H_    0.384056 0.157501 0.595493 0.238390
H108  H     H_    0.520584 0.200749 0.623612 0.221013
H109  H     H_    0.513498 0.274069 0.750297 0.195793
H110  H     H_    0.376705 0.220514 0.724248 0.209587

loop_
_geom_bond_atom_site_label_1
_geom_bond_atom_site_label_2
_geom_bond_distance
_ccdc_geom_bond_type
C79   H80   1.109157 S    
C8    C52   1.520477 S    
C41   C45   1.437027 A    
C8    C11   1.545355 S    
C25   C29   1.422040 A    
C74   H62   1.111170 S    
C84   H96   1.103634 S    
C52   H12   1.109524 S    
C68   H54   1.102542 S    
C53   H20   1.106239 S    
C72   C73   1.536328 S    
C57   C58   1.527349 S    
C69   C70   1.536325 S    
C80   H77   1.110825 S    
C40   H3    1.073826 S    
C90   C91   1.536584 S    
C17   C23   1.413931 A    
C34   C68   1.512444 S    
O5    C3    1.288511 A    
C68   H52   1.110793 S    
C71   H56   1.110954 S    
C65   H45   1.110468 S    
C3    C9    1.420111 S    
C7    C13   1.543936 S    
C8    C14   1.541550 S    
C12   C14   1.544637 S    
C76   C77   1.527248 S    
C74   H63   1.110102 S    
C14   C16   1.453931 S    
N2    C38   1.354786 A    
C63   H36   1.110769 S    
C69   H61   1.109726 S    
C88   C89   1.525636 S    
C87   H102  1.106311 S    
C11   C64   1.531504 S    
C12   C61   1.531458 S    
O4    Cu1   1.894627 S    
C35   C43   1.426945 A    
C62   C63   1.526149 S    
C48   H8    1.075675 S    
C47   C49   1.398095 A    
C32   H2    1.079210 S    
C62   H39   1.109604 S    
C85   H93   1.111587 S    
C89   H98   1.111581 S    
C65   C66   1.527165 S    
C86   H92   1.110142 S    
C54   H19   1.112247 S    
C6    C60   1.522542 S    
C51   H11   1.109790 S    
C1    C17   1.487579 S    
C91   H107  1.110387 S    
C77   H69   1.111391 S    
C2    C18   1.483408 S    
C21   C78   1.530422 S    
C35   C37   1.399200 A    
C92   H106  1.109696 S    
C48   C50   1.400809 A    
C61   C62   1.533519 S    
C29   C32   1.399595 A    
C60   H32   1.109841 S    
C64   H48   1.107505 S    
C24   C26   1.405205 A    
N1    C39   1.360112 A    
C72   H67   1.107091 S    
C6    C13   1.541901 S    
C39   C41   1.423959 A    
C90   H109  1.111917 S    
C45   C46   1.425257 A    
C77   H70   1.110885 S    
Cu1   Cu2   2.677767 S    
C31   C33   1.393889 A    
O2    C2    1.293392 A    
C32   C34   1.404849 A    
C19   C81   1.530738 S    
O2    Cu2   1.913608 S    
O8    C4    1.290591 A    
C53   H21   1.111778 S    
C55   H16   1.110954 S    
C43   C49   1.422596 A    
C80   H78   1.110299 S    
C66   H43   1.111289 S    
C44   C50   1.419637 A    
C82   H86   1.109406 S    
C71   H57   1.110676 S    
C40   C42   1.424491 A    
C18   C24   1.399840 A    
C17   C21   1.430347 A    
C92   H104  1.110788 S    
C36   C44   1.423810 A    
C20   C84   1.528536 S    
C26   C30   1.415574 A    
C74   H64   1.110324 S    
C53   C54   1.540912 S    
O4    C2    1.302426 A    
C63   H37   1.110243 S    
C84   H95   1.095523 S    
C58   H22   1.110913 S    
C51   H10   1.108599 S    
C30   C31   1.407597 A    
C91   C92   1.525983 S    
C70   C71   1.522249 S    
N1    C37   1.354066 A    
C87   H103  1.111426 S    
O6    Cu2   1.929613 S    
C83   H84   1.110930 S    
C78   H82   1.103248 S    
C55   H15   1.110742 S    
C35   C53   1.525464 S    
C56   H27   1.111269 S    
C46   C47   1.405963 A    
C62   H38   1.109579 S    
C27   C33   1.418289 A    
C89   H99   1.108386 S    
N2    C40   1.359299 A    
O7    Cu2   1.930382 S    
C67   H50   1.109679 S    
C28   C34   1.438665 A    
C54   H18   1.110611 S    
C58   H23   1.110473 S    
C22   C75   1.530971 S    
O7    C3    1.292811 A    
C36   C56   1.524762 S    
C36   C38   1.399265 A    
C59   H29   1.109637 S    
C18   C22   1.424847 A    
O6    C4    1.290777 A    
C83   H85   1.110580 S    
C4    C10   1.420109 S    
C60   H33   1.109829 S    
C65   H46   1.110403 S    
C39   H4    1.075240 S    
C52   H13   1.106234 S    
C61   H40   1.109111 S    
C38   H5    1.079167 S    
C70   H59   1.109641 S    
C73   H66   1.107327 S    
C72   H68   1.111309 S    
C82   C83   1.526374 S    
C59   H30   1.109296 S    
C76   H72   1.109995 S    
C7    C51   1.523687 S    
C77   H71   1.109755 S    
C41   C43   1.426253 A    
C79   C80   1.527525 S    
O1    C1    1.294196 A    
O1    Cu1   1.913609 S    
C88   H101  1.111577 S    
C67   H49   1.110367 S    
C56   C57   1.539414 S    
O3    C1    1.303293 A    
C80   H76   1.106885 S    
C55   H17   1.109054 S    
C81   H88   1.102838 S    
C73   C74   1.525847 S    
C50   C90   1.527145 S    
C66   H44   1.109220 S    
C47   H7    1.073511 S    
C5    C7    1.546389 S    
C5    C14   1.542166 S    
C45   C48   1.410009 A    
C6    C12   1.546444 S    
C25   C27   1.412330 A    
C5    C59   1.522353 S    
C54   C55   1.527924 S    
C68   H53   1.109292 S    
O8    Cu1   1.930382 S    
C57   H25   1.112163 S    
C90   H110  1.106262 S    
Cu1   N2    2.011371 S    
C66   H42   1.110472 S    
C57   H26   1.110684 S    
Cu2   N1    2.011372 S    
O3    Cu2   1.894626 S    
C75   H75   1.110676 S    
C87   C88   1.541506 S    
C71   H55   1.111133 S    
C7    C12   1.548429 S    
C56   H28   1.107783 S    
C75   H74   1.101093 S    
C11   C13   1.545227 S    
C88   H100  1.109054 S    
C67   H51   1.110424 S    
C51   H9    1.109543 S    
C19   C21   1.425685 A    
C81   C82   1.540552 S    
C63   H35   1.110742 S    
C58   H24   1.108143 S    
C20   C22   1.436048 A    
C84   C85   1.537432 S    
C5    C11   1.547458 S    
C10   C16   1.196671 T    
C24   C69   1.528620 S    
C26   C28   1.423392 A    
C69   H60   1.108467 S    
C23   C25   1.415070 A    
C70   H58   1.112327 S    
C42   C44   1.422281 A    
C60   H34   1.109179 S    
C49   C87   1.527188 S    
C37   H6    1.079423 S    
C13   C15   1.453686 S    
C85   H94   1.109969 S    
C89   H97   1.111299 S    
C9    C15   1.196690 T    
C52   H14   1.108705 S    
C61   H41   1.110691 S    
C86   H91   1.110778 S    
C79   H79   1.112530 S    
C82   H87   1.112409 S    
C76   H73   1.112317 S    
C73   H65   1.112012 S    
C29   C30   1.404423 A    
C91   H108  1.109161 S    
C78   C79   1.540607 S    
O5    Cu1   1.929614 S    
C59   H31   1.109558 S    
C42   C46   1.435839 A    
C6    C8    1.542846 S    
C83   H83   1.111003 S    
C19   C27   1.417307 A    
C75   C76   1.540871 S    
C92   H105  1.110857 S    
C31   H1    1.083599 S    
C86   H90   1.110991 S    
C20   C28   1.444371 A    
C85   C86   1.526580 S    
C64   C65   1.534330 S    
C64   H47   1.110884 S    
C78   H81   1.106718 S    
C23   C72   1.539295 S    
C33   C67   1.511278 S    
C81   H89   1.110337 S    
