data_mof_unit_20664.cif
_audit_creation_date              2012-12-10T17:22:05-0500
_audit_creation_method            fapswitch 2.2
_symmetry_space_group_name_H-M    P1
_symmetry_Int_Tables_number       1
_space_group_crystal_system       triclinic
_cell_length_a                    10.183493
_cell_length_b                    10.743867
_cell_length_c                    15.719265
_cell_angle_alpha                 91.685102
_cell_angle_beta                  80.997137
_cell_angle_gamma                 97.152886
_cell_volume                      1685.35234871

loop_
_atom_site_label
_atom_site_type_symbol
_atom_type_description
_atom_site_fract_x
_atom_site_fract_y
_atom_site_fract_z
_atom_type_partial_charge
C1    C     C_R   0.558083 0.732467 0.491389 0.816126
C2    C     C_3   0.502222 0.640680 0.052037 -0.180179
C3    C     C_3   0.508154 0.503817 0.082272 -0.013567
C4    C     C_3   0.382370 0.416997 0.058864 0.248203
C5    C     C_3   0.377909 0.425732 0.961091 -0.474592
C6    C     C_1   0.505378 0.503157 0.174150 0.010086
C7    C     C_1   0.501692 0.503193 0.825220 -0.065608
C8    C     C_1   0.499462 0.501995 0.750185 -0.195523
C9    C     C_2   0.593886 0.863247 0.471149 0.253958
C10   C     C_2   0.513930 0.940100 0.514945 -0.290489
C11   C     C_2   0.408560 0.133904 0.524977 -0.191632
C12   C     C_R   0.499757 0.500700 0.661425 0.884257
C13   C     C_2   0.495695 0.060990 0.482829 -0.119303
C14   C     C_2   0.923785 0.499946 0.516333 -0.183373
C15   C     C_2   0.064184 0.470068 0.510374 -0.016120
C16   C     C_R   0.442285 0.266886 0.507571 0.867474
C17   C     C_R   0.500534 0.500298 0.338555 0.927159
C18   C     C_3   0.509381 0.640428 0.952626 -0.405118
C19   C     C_3   0.629848 0.439999 0.935829 -0.241208
C20   C     C_3   0.640987 0.456185 0.034117 0.269103
C21   C     C_1   0.502440 0.502172 0.249713 -0.088820
C22   C     C_3   0.507301 0.504012 0.916077 0.156641
H1    H     H_    0.594811 0.698848 0.065206 0.207280
H2    H     H_    0.426837 0.685463 0.932626 0.185580
H3    H     H_    0.564270 0.098334 0.427040 0.218934
H4    H     H_    0.452462 0.906484 0.574538 0.155995
H5    H     H_    0.883930 0.554424 0.571413 0.155653
H6    H     H_    0.130353 0.638510 0.552650 0.147823
H7    H     H_    0.601876 0.699688 0.924557 0.193566
H8    H     H_    0.597833 0.338258 0.926566 0.154060
H9    H     H_    0.647557 0.362045 0.059512 0.132626
H10   H     H_    0.288034 0.468747 0.950685 0.172345
H11   H     H_    0.366190 0.330765 0.930865 0.223961
H12   H     H_    0.290844 0.452248 0.094164 0.107741
N1    N     N_2   0.842720 0.448890 0.465540 -0.127744
N2    N     N_2   0.157250 0.551040 0.534500 -0.225099
O1    O     O_R   0.431050 0.692470 0.506940 -0.621857
O2    O     O_R   0.651130 0.659650 0.484820 -0.589225
O3    O     O_R   0.389910 0.516410 0.633920 -0.611749
O4    O     O_R   0.609990 0.483590 0.611800 -0.613012
O5    O     O_R   0.348870 0.340350 0.515180 -0.598607
O6    O     O_R   0.568950 0.307530 0.493060 -0.622214
O7    O     O_R   0.390010 0.516410 0.388200 -0.634249
O8    O     O_R   0.610090 0.483590 0.366080 -0.571832
Zn1   Zn    Zn3+2 0.353060 0.521920 0.514770 0.929145
Zn2   Zn    Zn3+2 0.646940 0.478080 0.485230 0.970644
C23   C     C_R   0.388031 0.707097 0.101916 0.090355
C24   C     C_R   0.259159 0.698631 0.078027 -0.163563
C25   C     C_R   0.159913 0.763497 0.124675 -0.068203
C26   C     C_R   0.186668 0.836308 0.196377 -0.103542
C27   C     C_R   0.313101 0.845156 0.221321 -0.083386
C28   C     C_R   0.413027 0.781540 0.174438 -0.110617
H13   H     H_    0.233727 0.642370 0.023725 0.151697
H14   H     H_    0.061554 0.756174 0.105632 0.207885
H15   H     H_    0.109370 0.885664 0.232695 0.163286
H16   H     H_    0.333877 0.901534 0.276998 0.155307
H17   H     H_    0.510301 0.789806 0.195100 0.173131
S1    S     S_3+6 0.368997 0.254281 0.091043 -0.024667
O9    O     O_2   0.229451 0.193625 0.085427 -0.278861
O10   O     O_2   0.465617 0.183544 0.032235 -0.340115
O11   O     O_3   0.396564 0.242334 0.193049 -0.590318
H18   H     H_    0.491515 0.227519 0.188516 0.368295
C29   C     C_R   0.307223 0.091087 0.600903 0.151465
C30   C     C_R   0.301565 0.159228 0.678937 -0.127270
C31   C     C_R   0.210629 0.116532 0.751185 -0.151589
C32   C     C_R   0.122879 0.006751 0.745987 -0.091169
C33   C     C_R   0.127037 0.938702 0.668737 -0.168053
C34   C     C_R   0.218950 0.980150 0.596643 -0.157650
H19   H     H_    0.369661 0.243684 0.684633 0.117790
H20   H     H_    0.208850 0.168264 0.811404 0.144452
H21   H     H_    0.052083 0.974152 0.801886 0.147407
H22   H     H_    0.058985 0.853893 0.664505 0.116492
H23   H     H_    0.221162 0.925915 0.537357 0.134737
S2    S     S_3+6 0.709766 0.905234 0.376845 -0.026035
O12   O     O_2   0.635749 0.940686 0.307421 -0.328404
O13   O     O_2   0.806128 0.015741 0.396402 -0.366624
O14   O     O_3   0.795591 0.785229 0.340570 -0.528169
H24   H     H_    0.867367 0.787219 0.376657 0.347689
C35   C     C_R   0.086979 0.339095 0.486544 0.208434
C36   C     C_R   0.020032 0.242161 0.540936 -0.170239
C37   C     C_R   0.019538 0.117106 0.514069 -0.070613
C38   C     C_R   0.088914 0.087161 0.433725 -0.070736
C39   C     C_R   0.155323 0.182562 0.379009 -0.156462
C40   C     C_R   0.152788 0.308091 0.404559 -0.093475
H25   H     H_    0.964368 0.263776 0.603020 0.136923
H26   H     H_    0.964797 0.043245 0.555477 0.141567
H27   H     H_    0.088956 0.990090 0.413215 0.125951
H28   H     H_    0.205239 0.159108 0.315813 0.208664
H29   H     H_    0.196750 0.380205 0.358895 0.163748
C41   C     C_R   0.892696 0.417978 0.378649 0.250009
C42   C     C_R   0.839898 0.305632 0.342600 -0.083690
C43   C     C_R   0.885250 0.273521 0.257200 -0.134249
C44   C     C_R   0.982465 0.354685 0.206729 -0.003660
C45   C     C_R   0.032281 0.469062 0.241079 -0.088194
C46   C     C_R   0.986106 0.502081 0.326189 -0.179203
H30   H     H_    0.764528 0.242634 0.381107 0.186924
H31   H     H_    0.845259 0.185617 0.230280 0.194046
H32   H     H_    0.018424 0.329436 0.140843 0.190162
H33   H     H_    0.107142 0.531731 0.201950 0.149785
H34   H     H_    0.024659 0.591681 0.351569 0.132586
C47   C     C_R   0.762903 0.458934 0.873507 0.204358
C48   C     C_R   0.804205 0.564752 0.820344 -0.022825
C49   C     C_R   0.925138 0.573692 0.763471 -0.156497
C50   C     C_R   0.006870 0.477984 0.758543 -0.123117
C51   C     C_R   0.967621 0.372714 0.810332 -0.129292
C52   C     C_R   0.846835 0.362961 0.867119 -0.093663
H35   H     H_    0.744285 0.640475 0.820963 0.112874
H36   H     H_    0.955129 0.654817 0.722734 0.109215
H37   H     H_    0.100390 0.485168 0.714485 0.158578
H38   H     H_    0.030566 0.298318 0.806413 0.134321
H39   H     H_    0.818606 0.280130 0.906646 0.136267
S3    S     S_3+6 0.794951 0.549876 0.055737 -0.026165
O15   O     O_2   0.909653 0.473348 0.033799 -0.311264
O16   O     O_2   0.825066 0.666283 0.001820 -0.349071
O17   O     O_3   0.785906 0.591138 0.160423 -0.531985
H40   H     H_    0.763680 0.678495 0.164053 0.380999

loop_
_geom_bond_atom_site_label_1
_geom_bond_atom_site_label_2
_ccdc_geom_bond_type
C51   H38   S    
C44   C45   A    
C2    C18   S    
C19   C47   S    
C19   C20   S    
C3    C6    S    
S3    O16   D    
C37   C38   A    
C7    C8    T    
O14   H24   S    
O4    Zn2   S    
C47   C48   A    
S2    O13   D    
C39   C40   A    
C18   H2    S    
C27   H16   S    
C11   C29   S    
C50   H37   S    
S1    O10   D    
C25   H14   S    
C33   H22   S    
O6    Zn2   S    
S3    O15   D    
C42   H30   S    
C20   S3    S    
C15   C35   S    
C5    C22   S    
C23   C24   A    
S2    O14   S    
C5    H11   S    
C49   H36   S    
C14   H5    S    
C9    C10   D    
C37   H26   S    
C1    O1    A    
O3    Zn1   S    
C5    H10   S    
C10   H4    S    
S1    O11   S    
C32   C33   A    
C13   H3    S    
O11   H18   S    
C50   C51   A    
O8    Zn2   S    
C43   H31   S    
C48   H35   S    
C52   H39   S    
C24   H13   S    
C4    H12   S    
S2    O12   D    
C33   C34   A    
N2    Zn1   S    
C19   C22   S    
C1    C9    S    
C35   C36   A    
C42   C43   A    
C46   H34   S    
C36   C37   A    
C34   H23   S    
C6    C21   T    
C17   C21   S    
C27   C28   A    
C12   O4    A    
C17   O7    A    
C36   H25   S    
C11   C16   S    
C32   H21   S    
C8    C12   S    
C2    H1    S    
C26   C27   A    
C3    C20   S    
C18   H7    S    
C30   H19   S    
O7    Zn1   S    
C1    O2    A    
C24   C25   A    
C25   C26   A    
C45   C46   A    
C9    S2    S    
O1    Zn1   S    
C3    C4    S    
C16   O6    A    
C15   N2    D    
C14   N1    D    
C47   C52   A    
C29   C34   A    
C18   C22   S    
C4    C5    S    
C10   C13   S    
C41   C46   A    
C23   C28   A    
C2    C23   S    
C7    C22   S    
C51   C52   A    
N1    Zn2   S    
C26   H15   S    
C30   C31   A    
C12   O3    A    
C2    C3    S    
S1    O9    D    
C17   O8    A    
C11   C13   D    
C41   C42   A    
C35   C40   A    
C45   H33   S    
C16   O5    A    
C43   C44   A    
C39   H28   S    
C31   C32   A    
C48   C49   A    
O2    Zn2   S    
C28   H17   S    
C29   C30   A    
N1    C41   S    
H6    N2    S    
C38   C39   A    
C40   H29   S    
C4    S1    S    
C49   C50   A    
O5    Zn1   S    
C14   C15   S    
O17   H40   S    
C31   H20   S    
C19   H8    S    
C44   H32   S    
S3    O17   S    
C38   H27   S    
C20   H9    S    
