data_mof_unit_18905.cif
_audit_creation_date              2012-12-10T19:58:50-0500
_audit_creation_method            fapswitch 2.2
_symmetry_space_group_name_H-M    P1
_symmetry_Int_Tables_number       1
_space_group_crystal_system       tetragonal
_cell_length_a                    18.403906
_cell_length_b                    18.403906
_cell_length_c                    22.354262
_cell_angle_alpha                 90.0
_cell_angle_beta                  90.0
_cell_angle_gamma                 90.0
_cell_volume                      7571.47250328

loop_
_atom_site_label
_atom_site_type_symbol
_atom_type_description
_atom_site_fract_x
_atom_site_fract_y
_atom_site_fract_z
_atom_type_partial_charge
C1    C     C_R   0.500000 0.000000 0.340128 0.571451
C2    C     C_R   0.860214 0.640349 0.499316 0.562986
C3    C     C_R   0.359651 0.860214 0.499316 0.562986
C4    C     C_R   0.139786 0.359651 0.499316 0.562986
C5    C     C_R   0.359333 0.139583 0.499150 0.560325
C6    C     C_R   0.139583 0.640667 0.499150 0.560325
C7    C     C_R   0.640667 0.860417 0.499150 0.560325
C8    C     C_R   0.860417 0.359333 0.499150 0.560325
C9    C     C_R   0.140349 0.639785 0.999316 0.562986
C10   C     C_R   0.360214 0.140349 0.999316 0.562986
C11   C     C_R   0.859651 0.360214 0.999316 0.562986
C12   C     C_R   0.000000 0.500000 0.340128 0.571452
C13   C     C_R   0.639786 0.859651 0.999316 0.562986
C14   C     C_R   0.859333 0.639583 0.999150 0.560325
C15   C     C_R   0.639583 0.140667 0.999150 0.560325
C16   C     C_R   0.140667 0.360417 0.999150 0.560325
C17   C     C_R   0.360417 0.859333 0.999150 0.560325
C18   C     C_R   0.708665 0.761350 0.447670 0.002245
C19   C     C_R   0.238649 0.708665 0.447670 0.002244
C20   C     C_R   0.291335 0.238649 0.447670 0.002244
C21   C     C_R   0.761351 0.291335 0.447670 0.002244
C22   C     C_R   0.293257 0.760122 0.448150 -0.002822
C23   C     C_R   0.000000 0.500000 0.840128 0.571452
C24   C     C_R   0.760122 0.706742 0.448150 -0.002822
C25   C     C_R   0.706743 0.239878 0.448150 -0.002823
C26   C     C_R   0.239878 0.293257 0.448150 -0.002822
C27   C     C_R   0.208665 0.261351 0.947670 0.002244
C28   C     C_R   0.738649 0.208665 0.947670 0.002244
C29   C     C_R   0.791335 0.738649 0.947670 0.002244
C30   C     C_R   0.261351 0.791335 0.947670 0.002244
C31   C     C_R   0.793257 0.260122 0.948150 -0.002822
C32   C     C_R   0.260122 0.206743 0.948150 -0.002823
C33   C     C_R   0.206742 0.739878 0.948150 -0.002823
C34   C     C_R   0.500000 1.000000 0.840128 0.571451
C35   C     C_R   0.739878 0.793257 0.948150 -0.002823
C36   C     C_R   0.696201 0.804278 0.498609 0.039500
C37   C     C_R   0.195722 0.696201 0.498609 0.039500
C38   C     C_R   0.303799 0.195722 0.498609 0.039500
C39   C     C_R   0.804278 0.303799 0.498609 0.039500
C40   C     C_R   0.305116 0.803300 0.499073 0.039525
C41   C     C_R   0.803300 0.694884 0.499073 0.039525
C42   C     C_R   0.694884 0.196700 0.499073 0.039525
C43   C     C_R   0.196700 0.305116 0.499073 0.039525
C44   C     C_R   0.196201 0.304278 0.998609 0.039500
C45   C     C_R   0.500000 0.000000 0.659906 0.505756
C46   C     C_R   0.695722 0.196201 0.998609 0.039500
C47   C     C_R   0.803799 0.695722 0.998609 0.039500
C48   C     C_R   0.304278 0.803799 0.998609 0.039500
C49   C     C_R   0.805116 0.303300 0.999073 0.039525
C50   C     C_R   0.303300 0.194884 0.999073 0.039525
C51   C     C_R   0.194884 0.696700 0.999073 0.039525
C52   C     C_R   0.696700 0.805116 0.999073 0.039525
C53   C     C_R   0.735110 0.788716 0.551143 -0.111647
C54   C     C_R   0.211284 0.735110 0.551143 -0.111646
C55   C     C_R   0.264890 0.211284 0.551143 -0.111647
C56   C     C_R   1.000000 0.500000 0.659906 0.505756
C57   C     C_R   0.788716 0.264890 0.551143 -0.111646
C58   C     C_R   0.265305 0.788472 0.551301 -0.112303
C59   C     C_R   0.788472 0.734695 0.551301 -0.112303
C60   C     C_R   0.734695 0.211528 0.551301 -0.112303
C61   C     C_R   0.211528 0.265305 0.551301 -0.112303
C62   C     C_R   0.235110 0.288716 0.051143 -0.111646
C63   C     C_R   0.711284 0.235110 0.051143 -0.111647
C64   C     C_R   0.764890 0.711284 0.051143 -0.111647
C65   C     C_R   0.288716 0.764890 0.051143 -0.111647
C66   C     C_R   0.765305 0.288472 0.051301 -0.112303
C67   C     C_R   0.000000 0.500000 0.159906 0.505756
C68   C     C_R   0.288472 0.234695 0.051301 -0.112303
C69   C     C_R   0.234695 0.711528 0.051301 -0.112303
C70   C     C_R   0.711528 0.765305 0.051301 -0.112303
C71   C     C_1   0.000000 0.500000 0.276762 -0.008871
C72   C     C_1   0.500000 0.000000 0.276762 -0.008871
C73   C     C_1   0.500000 1.000000 0.776762 -0.008871
C74   C     C_1   0.000000 0.500000 0.776762 -0.008871
C75   C     C_1   0.500000 0.000000 0.723306 0.004682
C76   C     C_1   0.000000 0.500000 0.723306 0.004682
C77   C     C_1   0.000000 0.500000 0.223306 0.004682
C78   C     C_R   0.500000 0.000000 0.159906 0.505756
C79   C     C_1   0.500000 0.000000 0.223306 0.004682
C80   C     C_3   0.777074 0.714152 0.382299 0.336760
C81   C     C_3   0.285847 0.777074 0.382299 0.336762
C82   C     C_3   0.222926 0.285847 0.382299 0.336761
C83   C     C_3   0.714152 0.222926 0.382299 0.336762
C84   C     C_3   0.220993 0.720044 0.382275 0.323657
C85   C     C_3   0.720044 0.779007 0.382275 0.323657
C86   C     C_3   0.779007 0.279956 0.382275 0.323657
C87   C     C_3   0.279956 0.220993 0.382275 0.323658
C88   C     C_3   0.277074 0.214152 0.882299 0.336761
C89   C     C_R   0.640349 0.139786 0.499316 0.562986
C90   C     C_3   0.785848 0.277074 0.882299 0.336762
C91   C     C_3   0.722925 0.785847 0.882299 0.336763
C92   C     C_3   0.214152 0.722926 0.882299 0.336762
C93   C     C_3   0.720993 0.220044 0.882275 0.323657
C94   C     C_3   0.220044 0.279007 0.882275 0.323657
C95   C     C_3   0.279007 0.779956 0.882275 0.323658
C96   C     C_3   0.779956 0.720993 0.882275 0.323657
H1    H     H_    0.725009 0.818957 0.591881 0.173484
H2    H     H_    0.681043 0.225009 0.091881 0.173484
H3    H     H_    0.774991 0.681044 0.091881 0.173484
H4    H     H_    0.318956 0.774991 0.091881 0.173484
H5    H     H_    0.775269 0.318750 0.092044 0.168393
H6    H     H_    0.318750 0.224731 0.092044 0.168393
H7    H     H_    0.224731 0.681250 0.092044 0.168393
H8    H     H_    0.681250 0.775269 0.092044 0.168393
H9    H     H_    0.657363 0.563934 0.330972 0.398584
H10   H     H_    0.436065 0.657364 0.330971 0.398584
H11   H     H_    0.342637 0.436065 0.330971 0.398584
H12   H     H_    0.181043 0.725009 0.591881 0.173484
H13   H     H_    0.563934 0.342636 0.330971 0.398584
H14   H     H_    0.160972 0.562019 0.293991 0.374081
H15   H     H_    0.562018 0.839027 0.293991 0.374081
H16   H     H_    0.839028 0.437981 0.293991 0.374081
H17   H     H_    0.437981 0.160972 0.293991 0.374081
H18   H     H_    0.157363 0.063935 0.830971 0.398584
H19   H     H_    0.936065 0.157363 0.830971 0.398584
H20   H     H_    0.842636 0.936065 0.830971 0.398584
H21   H     H_    0.063935 0.842637 0.830971 0.398584
H22   H     H_    0.660972 0.062018 0.793991 0.374081
H23   H     H_    0.274991 0.181043 0.591881 0.173484
H24   H     H_    0.062019 0.339028 0.793991 0.374081
H25   H     H_    0.339028 0.937981 0.793991 0.374081
H26   H     H_    0.937981 0.660972 0.793991 0.374081
H27   H     H_    0.924226 0.649140 0.317605 0.363370
H28   H     H_    0.350857 0.924231 0.317605 0.363370
H29   H     H_    0.075771 0.350858 0.317605 0.363369
H30   H     H_    0.649143 0.075769 0.317605 0.363370
H31   H     H_    0.117452 0.736554 0.277553 0.361702
H32   H     H_    0.736553 0.882547 0.277553 0.361701
H33   H     H_    0.882547 0.263446 0.277553 0.361701
H34   H     H_    0.818956 0.274991 0.591881 0.173484
H35   H     H_    0.263446 0.117452 0.277553 0.361702
H36   H     H_    0.424230 0.149143 0.817605 0.363370
H37   H     H_    0.850857 0.424230 0.817605 0.363370
H38   H     H_    0.575766 0.850855 0.817605 0.363369
H39   H     H_    0.149143 0.575769 0.817605 0.363370
H40   H     H_    0.617453 0.236553 0.777553 0.361701
H41   H     H_    0.236554 0.382548 0.777553 0.361701
H42   H     H_    0.382548 0.763446 0.777553 0.361701
H43   H     H_    0.763446 0.617452 0.777553 0.361701
H44   H     H_    0.275269 0.818750 0.592044 0.168393
H45   H     H_    0.818750 0.724731 0.592044 0.168393
H46   H     H_    0.724731 0.181250 0.592044 0.168393
H47   H     H_    0.181250 0.275269 0.592044 0.168393
H48   H     H_    0.225009 0.318956 0.091881 0.173484
O1    O     O_3   0.500000 0.000000 0.500000 -0.499715
O2    O     O_R   0.560750 0.000000 0.867980 -0.453297
O3    O     O_3   0.902587 0.651870 0.826537 -0.480055
O4    O     O_2   0.879296 0.777458 0.310478 -0.178988
O5    O     O_2   0.905178 0.778672 0.417884 -0.175735
O6    O     O_3   0.920886 0.658608 0.361141 -0.472717
O7    O     O_2   0.222541 0.879297 0.310479 -0.178989
O8    O     O_2   0.221327 0.905179 0.417885 -0.175736
O9    O     O_3   0.341392 0.920886 0.361142 -0.472717
O10   O     O_2   0.120703 0.222541 0.310479 -0.178989
O11   O     O_2   0.094821 0.221327 0.417885 -0.175736
O12   O     O_3   0.079114 0.341392 0.361142 -0.472716
O13   O     O_R   1.000000 0.560750 0.867980 -0.453298
O14   O     O_2   0.777459 0.120703 0.310479 -0.178990
O15   O     O_2   0.778673 0.094821 0.417885 -0.175737
O16   O     O_3   0.658608 0.079113 0.361142 -0.472717
O17   O     O_2   0.074592 0.695063 0.386182 -0.227677
O18   O     O_2   0.112818 0.815823 0.414589 -0.155246
O19   O     O_3   0.115492 0.781480 0.301881 -0.398168
O20   O     O_2   0.695062 0.925407 0.386181 -0.227680
O21   O     O_2   0.815823 0.887181 0.414588 -0.155246
O22   O     O_3   0.781479 0.884507 0.301880 -0.398169
O23   O     O_2   0.925408 0.304937 0.386181 -0.227679
O24   O     O_R   0.439250 0.000000 0.867980 -0.453299
O25   O     O_2   0.887182 0.184177 0.414589 -0.155246
O26   O     O_3   0.884508 0.218520 0.301881 -0.398168
O27   O     O_2   0.304937 0.074593 0.386182 -0.227680
O28   O     O_2   0.184177 0.112818 0.414589 -0.155246
O29   O     O_3   0.218520 0.115492 0.301881 -0.398169
O30   O     O_2   0.379297 0.277458 0.810479 -0.178989
O31   O     O_2   0.405179 0.278673 0.917885 -0.175736
O32   O     O_3   0.420886 0.158608 0.861142 -0.472717
O33   O     O_2   0.722542 0.379297 0.810478 -0.178990
O34   O     O_2   0.721327 0.405178 0.917885 -0.175736
O35   O     O_R   0.560720 0.000000 0.632020 -0.538841
O36   O     O_3   0.841392 0.420886 0.861142 -0.472717
O37   O     O_2   0.620703 0.722541 0.810479 -0.178991
O38   O     O_2   0.594821 0.721327 0.917885 -0.175737
O39   O     O_3   0.579113 0.841392 0.861142 -0.472716
O40   O     O_2   0.277458 0.620703 0.810479 -0.178989
O41   O     O_2   0.278673 0.594821 0.917885 -0.175736
O42   O     O_3   0.158608 0.579114 0.861142 -0.472717
O43   O     O_2   0.574593 0.195063 0.886181 -0.227679
O44   O     O_2   0.612818 0.315823 0.914588 -0.155246
O45   O     O_3   0.615492 0.281479 0.801881 -0.398168
O46   O     O_R   0.000000 0.560720 0.632020 -0.538841
O47   O     O_2   0.195063 0.425407 0.886182 -0.227680
O48   O     O_2   0.315823 0.387182 0.914589 -0.155246
O49   O     O_3   0.281480 0.384508 0.801881 -0.398168
O50   O     O_2   0.425407 0.804937 0.886182 -0.227682
O51   O     O_2   0.387182 0.684177 0.914589 -0.155246
O52   O     O_3   0.384508 0.718520 0.801881 -0.398170
O53   O     O_2   0.804937 0.574592 0.886181 -0.227679
O54   O     O_2   0.684177 0.612818 0.914589 -0.155246
O55   O     O_3   0.718520 0.615492 0.801881 -0.398168
O56   O     O_R   0.439280 0.000000 0.632020 -0.538841
O57   O     O_R   0.000000 0.439280 0.632020 -0.538841
O58   O     O_R   0.060720 0.500000 0.132020 -0.538841
O59   O     O_R   0.500000 0.060720 0.132020 -0.538841
O60   O     O_R   0.939280 0.500000 0.132020 -0.538841
O61   O     O_3   0.000000 0.500000 0.500000 -0.499715
O62   O     O_R   0.500000 0.939280 0.132020 -0.538841
O63   O     O_R   0.585450 0.146130 0.465380 -0.472626
O64   O     O_R   0.853870 0.585450 0.465380 -0.472626
O65   O     O_R   0.414550 0.853870 0.465380 -0.472626
O66   O     O_R   0.146130 0.414550 0.465380 -0.472626
O67   O     O_R   0.414550 0.146130 0.465380 -0.473365
O68   O     O_R   0.146130 0.585450 0.465380 -0.473365
O69   O     O_R   0.585450 0.853870 0.465380 -0.473365
O70   O     O_R   0.853870 0.414550 0.465380 -0.473365
O71   O     O_R   0.085450 0.646130 0.965380 -0.472626
O72   O     O_3   0.000000 0.500000 0.000000 -0.499715
O73   O     O_R   0.353870 0.085450 0.965380 -0.472626
O74   O     O_R   0.914550 0.353870 0.965380 -0.472626
O75   O     O_R   0.646130 0.914550 0.965380 -0.472626
O76   O     O_R   0.914550 0.646130 0.965380 -0.473365
O77   O     O_R   0.646130 0.085450 0.965380 -0.473365
O78   O     O_R   0.085450 0.353870 0.965380 -0.473365
O79   O     O_R   0.353870 0.914550 0.965380 -0.473365
O80   O     O_R   0.353850 0.914510 0.534610 -0.527918
O81   O     O_R   0.085490 0.353850 0.534610 -0.527918
O82   O     O_R   0.646150 0.085490 0.534610 -0.527918
O83   O     O_3   0.500000 0.000000 0.000000 -0.499715
O84   O     O_R   0.914510 0.646150 0.534610 -0.527918
O85   O     O_R   0.646150 0.914510 0.534610 -0.527726
O86   O     O_R   0.914510 0.353850 0.534610 -0.527725
O87   O     O_R   0.353850 0.085490 0.534610 -0.527725
O88   O     O_R   0.085490 0.646150 0.534610 -0.527725
O89   O     O_R   0.853850 0.414510 0.034610 -0.527918
O90   O     O_R   0.585490 0.853850 0.034610 -0.527918
O91   O     O_R   0.146150 0.585490 0.034610 -0.527918
O92   O     O_R   0.414510 0.146150 0.034610 -0.527918
O93   O     O_R   0.146150 0.414510 0.034610 -0.527725
O94   O     O_R   0.500000 0.939250 0.367980 -0.453298
O95   O     O_R   0.414510 0.853850 0.034610 -0.527725
O96   O     O_R   0.853850 0.585490 0.034610 -0.527725
O97   O     O_R   0.585490 0.146150 0.034610 -0.527725
O98   O     O_2   0.759935 0.643902 0.276267 -0.236117
O99   O     O_2   0.801975 0.570022 0.358957 -0.215355
O100  O     O_3   0.667302 0.604834 0.358589 -0.438871
O101  O     O_2   0.356097 0.759936 0.276266 -0.236115
O102  O     O_2   0.429977 0.801976 0.358957 -0.215352
O103  O     O_3   0.395165 0.667303 0.358588 -0.438871
O104  O     O_2   0.240065 0.356097 0.276266 -0.236116
O105  O     O_R   0.060750 0.500000 0.367980 -0.453298
O106  O     O_2   0.198024 0.429977 0.358957 -0.215353
O107  O     O_3   0.332697 0.395165 0.358589 -0.438871
O108  O     O_2   0.643903 0.240064 0.276266 -0.236115
O109  O     O_2   0.570023 0.198024 0.358957 -0.215352
O110  O     O_3   0.604835 0.332697 0.358588 -0.438871
O111  O     O_2   0.266455 0.650683 0.279901 -0.232541
O112  O     O_2   0.278461 0.583073 0.374064 -0.196708
O113  O     O_3   0.151870 0.597413 0.326537 -0.480055
O114  O     O_2   0.650683 0.733544 0.279902 -0.232541
O115  O     O_2   0.583072 0.721538 0.374065 -0.196708
O116  O     O_R   0.500000 0.060750 0.367980 -0.453298
O117  O     O_3   0.597413 0.848130 0.326537 -0.480055
O118  O     O_2   0.733545 0.349317 0.279902 -0.232541
O119  O     O_2   0.721538 0.416927 0.374064 -0.196707
O120  O     O_3   0.848130 0.402587 0.326537 -0.480054
O121  O     O_2   0.349317 0.266455 0.279902 -0.232541
O122  O     O_2   0.416927 0.278462 0.374064 -0.196708
O123  O     O_3   0.402587 0.151870 0.326537 -0.480056
O124  O     O_2   0.259935 0.143903 0.776266 -0.236115
O125  O     O_2   0.301976 0.070023 0.858957 -0.215352
O126  O     O_3   0.167303 0.104835 0.858589 -0.438871
O127  O     O_R   0.939250 0.500000 0.367980 -0.453300
O128  O     O_2   0.856097 0.259935 0.776267 -0.236115
O129  O     O_2   0.929977 0.301976 0.858957 -0.215352
O130  O     O_3   0.895165 0.167303 0.858589 -0.438871
O131  O     O_2   0.740064 0.856096 0.776266 -0.236114
O132  O     O_2   0.698024 0.929977 0.858957 -0.215350
O133  O     O_3   0.832697 0.895165 0.858588 -0.438872
O134  O     O_2   0.143903 0.740065 0.776266 -0.236115
O135  O     O_2   0.070023 0.698024 0.858957 -0.215352
O136  O     O_3   0.104834 0.832697 0.858589 -0.438872
O137  O     O_2   0.766456 0.150683 0.779902 -0.232542
O138  O     O_R   0.000000 0.439250 0.867980 -0.453298
O139  O     O_2   0.778462 0.083073 0.874064 -0.196708
O140  O     O_3   0.651870 0.097413 0.826537 -0.480055
O141  O     O_2   0.150683 0.233545 0.779902 -0.232541
O142  O     O_2   0.083073 0.221538 0.874064 -0.196708
O143  O     O_3   0.097413 0.348130 0.826537 -0.480056
O144  O     O_2   0.233545 0.849317 0.779902 -0.232541
O145  O     O_2   0.221538 0.916927 0.874064 -0.196708
O146  O     O_3   0.348130 0.902587 0.826537 -0.480056
O147  O     O_2   0.849316 0.766455 0.779901 -0.232542
O148  O     O_2   0.916927 0.778462 0.874064 -0.196708
S1    S     S_3+6 0.752419 0.631427 0.342430 0.106316
S2    S     S_3+6 0.868573 0.252419 0.842429 0.106318
S3    S     S_3+6 0.747580 0.868573 0.842429 0.106320
S4    S     S_3+6 0.131427 0.747580 0.842429 0.106318
S5    S     S_3+6 0.732566 0.136331 0.839815 0.103110
S6    S     S_3+6 0.136331 0.267435 0.839815 0.103111
S7    S     S_3+6 0.267435 0.863669 0.839815 0.103111
S8    S     S_3+6 0.863668 0.732565 0.839815 0.103110
S9    S     S_3+6 0.872136 0.735448 0.367790 0.140444
S10   S     S_3+6 0.264551 0.872136 0.367791 0.140444
S11   S     S_3+6 0.127864 0.264552 0.367790 0.140445
S12   S     S_3+6 0.368573 0.752420 0.342429 0.106318
S13   S     S_3+6 0.735448 0.127864 0.367791 0.140444
S14   S     S_3+6 0.128654 0.754015 0.372791 0.147581
S15   S     S_3+6 0.754014 0.871345 0.372791 0.147580
S16   S     S_3+6 0.871346 0.245985 0.372791 0.147580
S17   S     S_3+6 0.245986 0.128654 0.372791 0.147580
S18   S     S_3+6 0.372136 0.235448 0.867790 0.140445
S19   S     S_3+6 0.764552 0.372136 0.867790 0.140444
S20   S     S_3+6 0.627864 0.764551 0.867791 0.140444
S21   S     S_3+6 0.235448 0.627864 0.867790 0.140444
S22   S     S_3+6 0.628654 0.254014 0.872791 0.147580
S23   S     S_3+6 0.247580 0.368573 0.342429 0.106317
S24   S     S_3+6 0.254014 0.371346 0.872791 0.147580
S25   S     S_3+6 0.371346 0.745985 0.872791 0.147579
S26   S     S_3+6 0.745985 0.628654 0.872791 0.147580
S27   S     S_3+6 0.631427 0.247580 0.342429 0.106318
S28   S     S_3+6 0.232565 0.636331 0.339815 0.103111
S29   S     S_3+6 0.636331 0.767434 0.339815 0.103111
S30   S     S_3+6 0.767435 0.363669 0.339815 0.103111
S31   S     S_3+6 0.363669 0.232565 0.339815 0.103111
S32   S     S_3+6 0.252420 0.131427 0.842429 0.106318
Zn1   Zn    Zn3+2 0.586760 0.000000 0.549450 1.011701
Zn2   Zn    Zn3+2 0.913280 0.500000 0.450540 1.128307
Zn3   Zn    Zn3+2 0.500000 0.913280 0.450540 1.128307
Zn4   Zn    Zn3+2 0.086720 0.500000 0.450540 1.128307
Zn5   Zn    Zn3+2 0.000000 0.586720 0.950540 1.128307
Zn6   Zn    Zn3+2 0.413280 0.000000 0.950540 1.128307
Zn7   Zn    Zn3+2 0.000000 0.413280 0.950540 1.128307
Zn8   Zn    Zn3+2 0.586720 0.000000 0.950540 1.128308
Zn9   Zn    Zn3+2 0.000000 0.586760 0.549450 1.011701
Zn10  Zn    Zn3+2 0.413240 0.000000 0.549450 1.011701
Zn11  Zn    Zn3+2 0.000000 0.413240 0.549450 1.011701
Zn12  Zn    Zn3+2 0.086760 0.500000 0.049450 1.011701
Zn13  Zn    Zn3+2 0.500000 0.086760 0.049450 1.011701
Zn14  Zn    Zn3+2 0.913240 0.500000 0.049450 1.011701
Zn15  Zn    Zn3+2 0.500000 0.913240 0.049450 1.011701
Zn16  Zn    Zn3+2 0.500000 0.086720 0.450540 1.128307

loop_
_geom_bond_atom_site_label_1
_geom_bond_atom_site_label_2
_ccdc_geom_bond_type
H24   O143  S    
O32   S18   S    
C3    O80   A    
C16   O78   A    
O34   S19   D    
C17   C48   S    
C2    O84   A    
C55   H23   S    
O68   Zn4   S    
C45   O56   A    
O24   Zn6   S    
C72   C79   T    
C8    O70   A    
O83   Zn6   S    
C83   S13   S    
C2    C41   S    
C82   C87   S    
O140  S5    S    
O77   Zn8   S    
H15   O117  S    
C36   C53   A    
C19   C37   A    
C91   C96   S    
O9    S10   S    
C38   C55   A    
O53   S26   D    
C5    O87   A    
C48   C65   A    
C16   C44   S    
H39   O42   S    
C85   S15   S    
O1    Zn16  S    
C86   S16   S    
O94   Zn3   S    
O72   Zn14  S    
C24   C41   A    
C73   C75   T    
C93   S5    S    
O72   Zn12  S    
C80   S9    S    
C56   O46   A    
O50   S25   D    
O63   Zn16  S    
O61   Zn4   S    
C18   C85   S    
C40   C58   A    
C87   S31   S    
O40   S21   D    
O117  S29   S    
C33   C92   S    
C96   S26   S    
C47   C64   A    
O56   Zn10  S    
O108  S27   D    
C90   S2    S    
O89   Zn14  S    
H17   O123  S    
C11   C49   S    
H33   O26   S    
O133  S3    S    
C31   C90   S    
O134  S4    D    
O29   S17   S    
O7    S10   D    
O83   Zn15  S    
C4    O81   A    
C11   O74   A    
C85   S29   S    
H16   O120  S    
C17   O95   A    
O101  S12   D    
C12   C71   S    
O5    S9    D    
C2    O64   A    
C95   S25   S    
C43   C61   A    
C90   C93   S    
C23   O138  A    
C58   H44   S    
C21   C86   S    
O22   S15   S    
O17   S14   D    
C62   H48   S    
O51   S25   D    
C4    C43   S    
C63   H2    S    
C29   C35   A    
O75   Zn8   S    
C62   C68   A    
C53   H1    S    
C34   O2    A    
C89   O63   A    
C46   C63   A    
O10   S11   D    
O85   Zn1   S    
O55   S26   S    
O100  S1    S    
C34   C73   S    
O118  S30   D    
C83   C86   S    
O37   S20   D    
O11   S11   D    
C25   C83   S    
C51   C69   A    
O76   Zn5   S    
C11   O89   A    
O120  S30   S    
O143  S6    S    
C6    O88   A    
O141  S6    D    
C9    O91   A    
C67   C77   S    
C12   O127  A    
C89   O82   A    
O8    S10   D    
O122  S31   D    
C9    O71   A    
C28   C46   A    
O48   S24   D    
C74   C76   T    
C29   C47   A    
C18   C24   A    
C30   C48   A    
O1    Zn10  S    
C32   C88   S    
O104  S23   D    
H13   O110  S    
O6    S9    S    
O43   S22   D    
O83   Zn13  S    
O35   Zn1   S    
O82   Zn1   S    
C27   C44   A    
C64   H3    S    
O26   S16   S    
O39   S20   S    
O1    Zn1   S    
H10   O103  S    
C1    O116  A    
O73   Zn6   S    
H27   O6    S    
H28   O9    S    
C66   H5    S    
O123  S31   S    
O138  Zn7   S    
C69   H7    S    
O95   Zn15  S    
C1    C72   S    
C49   C66   A    
O145  S7    D    
C57   H34   S    
C78   O59   A    
C56   O57   A    
O62   Zn15  S    
C13   O75   A    
O93   Zn12  S    
C17   O79   A    
O139  S5    D    
O116  Zn16  S    
O36   S19   S    
C82   S23   S    
O109  S27   D    
C94   S6    S    
O147  S8    D    
O131  S3    D    
C23   C74   S    
C71   C77   T    
O98   S1    D    
O60   Zn14  S    
C21   C25   A    
C92   S21   S    
O33   S19   D    
O69   Zn3   S    
C29   C96   S    
H37   O36   S    
H42   O52   S    
O86   Zn11  S    
C10   O92   A    
O67   Zn16  S    
C54   H12   S    
H40   O45   S    
O30   S18   D    
O57   Zn11  S    
O49   S24   S    
O97   Zn13  S    
O119  S30   D    
C84   S14   S    
C50   C68   A    
O52   S25   S    
O90   Zn15  S    
C55   C61   A    
O136  S4    S    
C94   S24   S    
O1    Zn3   S    
C80   S1    S    
C59   H45   S    
C15   C46   S    
C10   O73   A    
O128  S2    D    
C3    O65   A    
C15   O97   A    
C87   S17   S    
C7    C36   S    
C9    C51   S    
O114  S29   D    
C14   O76   A    
C91   S20   S    
O124  S32   D    
O91   Zn12  S    
H25   O146  S    
C68   H6    S    
C84   S28   S    
H21   O136  S    
C70   H8    S    
O16   S13   S    
O74   Zn7   S    
H36   O32   S    
O44   S22   D    
C60   H46   S    
C61   H47   S    
O111  S28   D    
H29   O12   S    
C63   C66   A    
O102  S12   D    
C26   C82   S    
C5    C38   S    
O115  S29   D    
C31   C49   A    
C34   O24   A    
H18   O126  S    
O45   S22   S    
O21   S15   D    
O13   Zn5   S    
C22   C81   S    
O137  S5    D    
C57   C60   A    
O78   Zn7   S    
O27   S17   D    
C28   C93   S    
O96   Zn14  S    
C78   O62   A    
O105  Zn4   S    
C80   C85   S    
C13   C52   S    
O87   Zn10  S    
O64   Zn2   S    
O92   Zn13  S    
O58   Zn12  S    
H26   O3    S    
C86   S30   S    
O79   Zn6   S    
O15   S13   D    
C3    C40   S    
O38   S20   D    
O148  S8    D    
C10   C50   S    
C90   S19   S    
C7    O85   A    
O127  Zn2   S    
H31   O19   S    
C27   C32   A    
C88   S18   S    
C28   C31   A    
C65   H4    S    
C25   C42   A    
O65   Zn3   S    
O84   Zn9   S    
H30   O16   S    
C33   C51   A    
C92   S4    S    
O113  S28   S    
H11   O107  S    
O19   S14   S    
O130  S2    S    
H19   O130  S    
O106  S23   D    
O20   S15   D    
O31   S18   D    
C65   C69   A    
C91   S3    S    
O144  S7    D    
C12   O105  A    
C35   C52   A    
C88   C94   S    
C27   C94   S    
O2    Zn8   S    
C18   C36   A    
O71   Zn5   S    
O125  S32   D    
C14   O96   A    
C20   C87   S    
O66   Zn4   S    
C56   C76   S    
O61   Zn9   S    
O103  S12   S    
H38   O39   S    
C81   S10   S    
C53   C59   A    
C30   C95   S    
O70   Zn2   S    
H20   O133  S    
H43   O55   S    
C6    O68   A    
O135  S4    D    
C39   C57   A    
C23   O13   A    
C4    O66   A    
O54   S26   D    
C96   S8    S    
C67   O60   A    
C8    O86   A    
C24   C80   S    
O12   S11   S    
C8    C39   S    
C64   C70   A    
O72   Zn5   S    
C88   S32   S    
H9    O100  S    
O42   S21   S    
H32   O22   S    
C26   C43   A    
O107  S23   S    
H41   O49   S    
C19   C22   A    
C41   C59   A    
H14   O113  S    
C42   C60   A    
O132  S3    D    
C78   C79   S    
C44   C62   A    
O88   Zn9   S    
O28   S17   D    
H35   O29   S    
C92   C95   S    
C5    O67   A    
C15   O77   A    
O121  S31   D    
H22   O140  S    
O83   Zn8   S    
C20   C38   A    
O25   S16   D    
O80   Zn10  S    
O4    S9    D    
C21   C39   A    
C22   C40   A    
C93   S22   S    
O23   S16   D    
C6    C37   S    
O81   Zn11  S    
C32   C50   A    
C7    O69   A    
C37   C54   A    
C16   O93   A    
O61   Zn11  S    
O18   S14   D    
C19   C84   S    
C81   S12   S    
C81   C84   S    
C82   S11   S    
C54   C58   A    
O59   Zn13  S    
O46   Zn9   S    
C30   C33   A    
C95   S7    S    
O146  S7    S    
C14   C47   S    
C1    O94   A    
O99   S1    D    
O61   Zn2   S    
O41   S21   D    
C45   C75   S    
C42   C89   S    
C67   O58   A    
C20   C26   A    
C83   S27   S    
O14   S13   D    
O129  S2    D    
O72   Zn7   S    
O110  S27   S    
C52   C70   A    
C45   O35   A    
O3    S8    S    
O47   S24   D    
O126  S32   S    
O142  S6    D    
C13   O90   A    
O112  S28   D    
C35   C91   S    
