data_mof_unit_68432.cif
_audit_creation_date              2013-03-05T16:01:58-0500
_audit_creation_method            fapswitch 2.2
_symmetry_space_group_name_H-M    P1
_symmetry_Int_Tables_number       1
_space_group_crystal_system       triclinic
_cell_length_a                    8.66721
_cell_length_b                    14.570542
_cell_length_c                    14.950587
_cell_angle_alpha                 95.177983
_cell_angle_beta                  99.303144
_cell_angle_gamma                 91.773447
_cell_volume                      1853.61889745

loop_
_atom_site_label
_atom_site_type_symbol
_atom_site_description
_atom_site_fract_x
_atom_site_fract_y
_atom_site_fract_z
_atom_type_partial_charge
P1    P     P_3+3 0.018620 0.416870 0.295980 0.509011
O1    O     O_2   0.841250 0.444240 0.280450 -0.343752
O2    O     O_3   0.112870 0.447390 0.393710 -0.398764
O3    O     O_3   0.597960 0.615760 0.327700 -0.354498
O4    O     O_2   0.662427 0.525396 0.176897 -0.353665
O5    O     O_3   0.016689 0.298038 0.269041 -0.566076
O6    O     O_3   0.616255 0.701701 0.164137 -0.548297
H1    H     H_    0.657326 0.781121 0.289426 0.072118
C1    C     C_3   0.638668 0.874427 0.182197 -0.105720
H2    H     H_    0.636165 0.930844 0.236692 0.205214
H3    H     H_    0.754986 0.875104 0.166769 0.200152
P2    P     P_3+3 0.635650 0.716500 0.560900 0.552459
P3    P     P_3+3 0.037649 0.784285 0.369785 0.505922
O7    O     O_2   0.802240 0.729720 0.532850 -0.307370
O8    O     O_3   0.017190 0.664840 0.371090 -0.346062
O9    O     O_2   0.927341 0.822689 0.433933 -0.378374
O10   O     O_3   0.671630 0.733962 0.679872 -0.494306
O11   O     O_3   0.932467 0.806743 0.262215 -0.601813
C2    C     C_3   0.017384 0.793533 0.189300 0.905506
H4    H     H_    0.114380 0.753280 0.211527 0.142047
C3    C     C_3   0.058001 0.887148 0.156194 -0.681684
H5    H     H_    0.144824 0.882045 0.109746 0.282547
H6    H     H_    0.955702 0.914895 0.115111 0.250646
C4    C     C_3   0.258359 0.741258 0.660301 0.312410
H7    H     H_    0.382435 0.723284 0.674366 0.102551
H8    H     H_    0.204638 0.714504 0.590022 0.038239
C5    C     C_3   0.251114 0.846419 0.668417 -0.179975
H9    H     H_    0.343243 0.877040 0.635870 0.122845
H10   H     H_    0.138738 0.867048 0.631190 0.169031
Ba1   Ba    Ba6+2 0.833410 0.543320 0.453520 1.679498
C6    C     C_3   0.994278 0.254944 0.344743 0.240448
H11   H     H_    0.869024 0.260233 0.349319 0.116876
H12   H     H_    0.070603 0.286408 0.407745 0.086678
C7    C     C_3   0.038319 0.155174 0.332386 0.053843
H13   H     H_    0.067469 0.128293 0.399702 0.064077
H14   H     H_    0.144714 0.149741 0.299875 0.103558
C8    C     C_3   0.738156 0.658260 0.719185 0.400542
H15   H     H_    0.846613 0.640757 0.692350 0.111740
H16   H     H_    0.651201 0.599438 0.707458 0.148723
C9    C     C_3   0.777628 0.683746 0.821349 -0.827452
H17   H     H_    0.870803 0.739390 0.837431 0.284044
H18   H     H_    0.819027 0.623549 0.856713 0.213669
H19   H     H_    0.671132 0.707743 0.847056 0.262678
P4    P     P_3+3 0.171070 0.583210 0.704020 0.507212
O12   O     O_2   0.348460 0.555790 0.719610 -0.388513
O13   O     O_3   0.076820 0.552690 0.606290 -0.318200
O14   O     O_3   0.591740 0.384320 0.672310 -0.280629
O15   O     O_3   0.176530 0.703841 0.722740 -0.550204
P5    P     P_3+3 0.134666 0.213002 0.610667 0.531934
O16   O     O_3   0.629090 0.386360 0.459240 -0.344892
O17   O     O_3   0.172500 0.335240 0.628910 -0.290530
O18   O     O_2   0.261649 0.172697 0.559500 -0.382450
O19   O     O_3   0.191261 0.169618 0.715660 -0.496748
Ba2   Ba    Ba6+2 0.356410 0.456750 0.546480 1.679114
P6    P     P_3+3 0.555239 0.599567 0.208923 0.553577
C10   C     C_3   0.592481 0.782799 0.219184 0.789173
O20   O     O_3   0.560600 0.613720 0.540760 -0.396655
C11   C     C_3   0.455560 0.329087 0.272336 0.384266
H20   H     H_    0.350248 0.356195 0.296976 0.067323
H21   H     H_    0.553944 0.381759 0.288056 0.123449
C12   C     C_3   0.419534 0.306356 0.169662 -0.853957
H22   H     H_    0.322790 0.252856 0.152509 0.283347
H23   H     H_    0.384574 0.368393 0.135352 0.196177
H24   H     H_    0.524673 0.279679 0.144154 0.278651
P7    P     P_3+3 0.548604 0.270499 0.429049 0.459287
O21   O     O_2   0.387470 0.270310 0.467210 -0.382127
O22   O     O_3   0.495453 0.247604 0.311212 -0.525466
H25   H     H_    0.103086 0.938363 0.214422 0.250081
C13   C     C_3   0.110530 0.211998 0.781215 0.324587
H26   H     H_    0.106387 0.287876 0.778350 0.105000
H27   H     H_    0.990016 0.180622 0.771639 0.128510
C14   C     C_3   0.198061 0.195037 0.874649 -0.323153
H28   H     H_    0.309758 0.236846 0.888490 0.206449
H29   H     H_    0.223035 0.120902 0.876643 0.236978
P8    P     P_3+3 0.646002 0.407917 0.790930 0.530149
C15   C     C_3   0.660084 0.241576 0.839363 0.632098
H30   H     H_    0.784524 0.258122 0.835306 0.041415
O23   O     O_2   0.557591 0.492445 0.820470 -0.401634
O24   O     O_3   0.571660 0.320381 0.847326 -0.535072
H31   H     H_    0.732980 0.128551 0.919195 0.276954
C16   C     C_3   0.657237 0.188461 0.922455 -0.787177
H32   H     H_    0.537064 0.162185 0.925448 0.248141
H33   H     H_    0.700966 0.234092 0.985653 0.250204
C17   C     C_R   0.348596 0.553337 0.169026 0.256512
H34   H     H_    0.314951 0.530481 0.305511 0.165289
H35   H     H_    0.479402 0.606571 0.027615 0.165255
C18   C     C_R   0.115168 0.476004 0.208816 0.291706
C19   C     C_R   0.950369 0.463621 0.760040 0.164976
C20   C     C_R   0.856766 0.440758 0.825048 0.081267
C21   C     C_R   0.913800 0.454129 0.917965 -0.337477
C22   C     C_R   0.064753 0.492359 0.950919 0.132777
C23   C     C_R   0.149030 0.529818 0.886087 -0.044762
C24   C     C_R   0.130232 0.499283 0.046840 0.130225
C25   C     C_R   0.281744 0.542472 0.075339 0.016868
C26   C     C_R   0.362772 0.575717 0.009705 -0.176047
C27   C     C_R   0.294746 0.574505 0.919028 -0.012208
C28   C     C_R   0.052307 0.463076 0.114953 -0.184192
C29   C     C_R   0.262295 0.522854 0.234368 -0.441671
C30   C     C_R   0.087060 0.519483 0.789986 0.038136
H36   H     H_    0.942667 0.423682 0.097195 0.159744
H37   H     H_    0.835500 0.435368 0.963116 0.186768
H38   H     H_    0.360901 0.608321 0.875404 0.170501
C31   C     C_R   0.688728 0.947260 0.561388 0.490338
C32   C     C_R   0.503619 0.805421 0.508981 0.200865
C33   C     C_R   0.352049 0.772952 0.465055 -0.388835
C34   C     C_R   0.240198 0.831541 0.424257 0.294048
C35   C     C_R   0.282877 0.924907 0.426113 -0.176701
C36   C     C_R   0.435803 0.959497 0.464105 0.067150
C37   C     C_R   0.545085 0.902701 0.512869 -0.189464
H39   H     H_    0.320547 0.700112 0.461531 0.154066
C38   C     C_R   0.631795 0.087534 0.485191 0.012463
C39   C     C_R   0.741182 0.032029 0.534404 -0.054263
C40   C     C_R   0.679240 0.179199 0.473442 0.255967
C41   C     C_R   0.835904 0.207544 0.500344 -0.483438
C42   C     C_R   0.942769 0.157113 0.552013 0.228439
C43   C     C_R   0.897518 0.067210 0.565130 -0.142719
C44   C     C_R   0.478991 0.051243 0.453234 -0.083935
H40   H     H_    0.198765 0.969896 0.393389 0.145982
H41   H     H_    0.983212 0.025947 0.602028 0.179126
H42   H     H_    0.868908 0.276052 0.491032 0.181875
H43   H     H_    0.394590 0.092620 0.415538 0.151196
I1    I     I_    0.286593 0.906592 0.806595 -0.170395
S1    S     S_3+6 0.882159 0.083941 0.267241 -0.047704
O25   O     O_2   0.897396 0.990503 0.301129 -0.339992
O26   O     O_2   0.725313 0.118523 0.280512 -0.248818
O27   O     O_3   0.893667 0.079057 0.155641 -0.466852
H44   H     H_    0.005391 0.092311 0.152602 0.352263
S2    S     S_3+6 0.396738 0.789591 0.223371 -0.141442
O28   O     O_2   0.354076 0.725439 0.288851 -0.403578
O29   O     O_2   0.362845 0.886725 0.253560 -0.393032
O30   O     O_3   0.300778 0.754717 0.118058 -0.558714
H45   H     H_    0.377344 0.750791 0.076008 0.363412
I2    I     I_    0.508883 0.924874 0.062183 -0.131364
I3    I     I_    0.070728 0.233095 0.981404 -0.481374
I4    I     I_    0.558258 0.154886 0.721175 -0.179432
S3    S     S_3+6 0.920044 0.719486 0.092048 -0.030750
O31   O     O_2   0.029144 0.702758 0.024531 -0.284293
O32   O     O_2   0.877748 0.628733 0.123236 -0.277967
O33   O     O_3   0.760933 0.764899 0.036517 -0.533355
H46   H     H_    0.695174 0.711321 0.004631 0.370854
S4    S     S_3+6 0.880597 0.419031 0.644786 -0.001025
O34   O     O_2   0.751408 0.480062 0.612861 -0.266246
O35   O     O_2   0.964353 0.409614 0.565138 -0.222453
O36   O     O_3   0.835417 0.309920 0.664171 -0.655680
H47   H     H_    0.742402 0.287295 0.620802 0.367019
S5    S     S_3+6 0.757970 0.930111 0.677951 -0.013497
O37   O     O_2   0.831562 0.017518 0.730785 -0.317216
O38   O     O_2   0.623920 0.900915 0.722673 -0.242829
O39   O     O_3   0.895788 0.851945 0.685080 -0.516280
H48   H     H_    0.937708 0.854128 0.750846 0.388979

loop_
_geom_bond_atom_site_label_1
_geom_bond_atom_site_label_2
_geom_bond_distance
_ccdc_geom_bond_type
P1    C18   1.910879 S    
C33   H39   1.082142 S    
O27   H44   0.990592 S    
C27   H38   1.076262 S    
C5    H10   1.105358 S    
C26   C27   1.386503 A    
C15   O24   1.406866 S    
O6    P6    1.785570 S    
O19   C13   1.403821 S    
S2    O28   1.493200 D    
H1    C10   1.110850 S    
C41   C42   1.381244 A    
S1    O25   1.497218 D    
Ba1   Ba2   4.739840 S    
C7    S1    1.778230 S    
P3    O11   1.778750 S    
O16   Ba2   3.040362 S    
C2    C3    1.542051 S    
C4    H8    1.108781 S    
C7    H13   1.106880 S    
C8    C9    1.519451 S    
C13   H26   1.111736 S    
S4    O35   1.489936 D    
C32   C37   1.445145 A    
O2    Ba2   2.838664 S    
S1    O26   1.500938 D    
C34   C35   1.395357 A    
C11   H21   1.110622 S    
C42   C43   1.395569 A    
Ba1   O20   3.041376 S    
C23   C27   1.397023 A    
O11   C2    1.413301 S    
C36   C37   1.430960 A    
C13   H27   1.109415 S    
P1    O1    1.586034 D    
C12   H23   1.105614 S    
C44   H43   1.082383 S    
H34   C29   1.081903 S    
C24   C25   1.421813 A    
C5    I1    2.140557 S    
C9    H19   1.110112 S    
C38   C39   1.422523 A    
P5    O17   1.789246 S    
P2    O10   1.749236 S    
C35   C36   1.413152 A    
C4    C5    1.530148 S    
C1    H2    1.107216 S    
C35   H40   1.082896 S    
C14   H28   1.107751 S    
C18   C29   1.406970 A    
C11   C12   1.519996 S    
C9    H18   1.104278 S    
O5    C6    1.380129 S    
Ba1   O16   2.864832 S    
C31   C37   1.438985 A    
C3    H5    1.103241 S    
C25   C26   1.406508 A    
O6    C10   1.417890 S    
O7    Ba1   2.902348 S    
S3    O33   1.677598 S    
P8    O23   1.539071 D    
C32   C33   1.416829 A    
C16   H33   1.110707 S    
C15   I4    2.126147 S    
P4    O13   1.572979 S    
C16   H32   1.107667 S    
S5    O38   1.499938 D    
S5    O37   1.502657 D    
P1    O5    1.740855 S    
C4    O15   1.397733 S    
C15   H30   1.110290 S    
C14   H29   1.110295 S    
S4    O36   1.687039 S    
C22   C23   1.438982 A    
P3    C34   1.892343 S    
S1    O27   1.682754 S    
O10   C8    1.393341 S    
P7    O22   1.746198 S    
C2    S3    1.803810 S    
C31   C39   1.417558 A    
P1    O2    1.572979 S    
O2    Ba1   3.050288 S    
C21   H37   1.077439 S    
C8    H15   1.108131 S    
C22   C24   1.447773 A    
S5    O39   1.673410 S    
C11   O22   1.397111 S    
C14   I3    2.126147 S    
C6    H11   1.103354 S    
P5    O18   1.540290 D    
O13   Ba2   3.051319 S    
C6    H12   1.112123 S    
C6    C7    1.517158 S    
C38   C40   1.419687 A    
C1    C10   1.555689 S    
C17   C25   1.419361 A    
C4    H7    1.106132 S    
C1    H3    1.069883 S    
O14   Ba2   2.839714 S    
P2    O20   1.597329 S    
S3    O32   1.495627 D    
C9    H17   1.108522 S    
P5    C42   1.874600 S    
P2    O7    1.578249 D    
O12   Ba2   2.859474 S    
P3    O8    1.746113 S    
C3    H25   1.105491 S    
O30   H45   0.984703 S    
S2    O30   1.683745 S    
C24   C28   1.438313 A    
C19   S4    1.787077 S    
C39   C43   1.422345 A    
C28   H36   1.077094 S    
P4    O12   1.586426 D    
O8    Ba1   2.836368 S    
C40   C41   1.390974 A    
P2    Ba1   3.508352 S    
P7    C40   1.871302 S    
C36   C44   1.407634 A    
O4    P6    1.540399 D    
C13   C14   1.522884 S    
H31   C16   1.110609 S    
S2    O29   1.498790 D    
C15   C16   1.524812 S    
O33   H46   0.989431 S    
P2    C32   1.891243 S    
Ba2   O21   2.902387 S    
C33   C34   1.412316 A    
P6    C17   1.877409 S    
C43   H41   1.082803 S    
Ba1   O13   2.837967 S    
O1    Ba1   2.858768 S    
O17   Ba2   2.836965 S    
C17   C29   1.416024 A    
C2    H4    1.066091 S    
C3    H6    1.103533 S    
C11   H20   1.108873 S    
O14   P8    1.759191 S    
O3    P6    1.747153 S    
O39   H48   0.988889 S    
C12   H24   1.111051 S    
C21   C22   1.400612 A    
P5    O19   1.747424 S    
P1    Ba1   3.484415 S    
P4    C30   1.876251 S    
C7    H14   1.111472 S    
C10   S2    1.713356 S    
C12   H22   1.109248 S    
O16   P7    1.796668 S    
O3    Ba1   2.840341 S    
C19   C30   1.403417 A    
H35   C26   1.076229 S    
P8    C20   1.851135 S    
C38   C44   1.402983 A    
P4    Ba2   3.485147 S    
O36   H47   0.977236 S    
C19   C20   1.417880 A    
C31   S5    1.791458 S    
C8    H16   1.106110 S    
P7    O21   1.591736 D    
P3    O9    1.542611 D    
C5    H9    1.102816 S    
S3    O31   1.500319 D    
C20   C21   1.391139 A    
S4    O34   1.495934 D    
P8    O24   1.752636 S    
C41   H42   1.057304 S    
P4    O15   1.752632 S    
C23   C30   1.442886 A    
C18   C28   1.414329 A    
Ba2   O20   2.864273 S    
C1    I2    2.159101 S    
