data_mof_unit_38207.cif
_audit_creation_date              2012-12-11T15:27:17-0500
_audit_creation_method            fapswitch 2.2
_symmetry_space_group_name_H-M    P1
_symmetry_Int_Tables_number       1
_space_group_crystal_system       triclinic
_cell_length_a                    13.872435
_cell_length_b                    13.988126
_cell_length_c                    27.439431
_cell_angle_alpha                 89.784112
_cell_angle_beta                  90.042989
_cell_angle_gamma                 120.068371
_cell_volume                      4608.02565969

loop_
_atom_site_label
_atom_site_type_symbol
_atom_type_description
_atom_site_fract_x
_atom_site_fract_y
_atom_site_fract_z
_atom_type_partial_charge
C1    C     C_R   0.235635 0.785508 0.569327 0.540932
C2    C     C_1   0.698909 0.860551 0.860300 -0.064239
C3    C     C_1   0.120393 0.877467 0.852798 -0.064022
C4    C     C_1   0.130284 0.261800 0.854520 -0.062142
C5    C     C_1   0.615272 0.809797 0.660262 -0.027235
C6    C     C_1   0.190920 0.809055 0.659558 -0.042588
C7    C     C_1   0.211984 0.440675 0.666730 -0.047571
C8    C     C_1   0.591965 0.792161 0.617794 0.036804
C9    C     C_1   0.207506 0.798745 0.617576 0.036009
C10   C     C_1   0.223897 0.466834 0.624433 0.019522
C11   C     C_R   0.073961 0.168089 0.941161 0.516942
C12   C     C_R   0.233141 0.494458 0.573877 0.547280
C13   C     C_R   0.779501 0.886875 0.949103 0.561315
C14   C     C_R   0.092184 0.928225 0.941624 0.520739
C15   C     C_R   0.613627 0.805917 0.385133 0.027015
C16   C     C_R   0.193564 0.807433 0.385192 0.026326
C17   C     C_R   0.192409 0.387378 0.385020 0.026286
C18   C     C_R   0.615007 0.895595 0.361209 -0.122455
C19   C     C_R   0.103048 0.719223 0.361488 -0.123689
C20   C     C_R   0.280921 0.384590 0.361492 -0.123076
C21   C     C_R   0.641686 0.914162 0.312059 -0.112526
C22   C     C_R   0.084359 0.727508 0.312369 -0.112758
C23   C     C_R   0.550560 0.764240 0.569257 0.541510
C24   C     C_R   0.272868 0.357583 0.312428 -0.112427
C25   C     C_R   0.668546 0.844165 0.286507 0.039028
C26   C     C_R   0.155096 0.824431 0.286630 0.039043
C27   C     C_R   0.175910 0.332004 0.286502 0.038768
C28   C     C_R   0.233117 0.787500 0.431457 0.546160
C29   C     C_R   0.212359 0.445921 0.431379 0.555794
C30   C     C_R   0.554221 0.766594 0.431461 0.547725
C31   C     C_R   0.677937 0.761546 0.311425 -0.121756
C32   C     C_R   0.238486 0.916269 0.311357 -0.121808
C33   C     C_R   0.083766 0.324618 0.311035 -0.121575
C34   C     C_3   0.648505 0.732632 0.790884 -0.207878
C35   C     C_R   0.650666 0.742480 0.360538 -0.120688
C36   C     C_R   0.257663 0.907899 0.360435 -0.120719
C37   C     C_R   0.091883 0.352098 0.360052 -0.120473
C38   C     C_R   0.633470 0.759245 0.204424 -0.090725
C39   C     C_R   0.241160 0.875123 0.204421 -0.091098
C40   C     C_R   0.126572 0.366626 0.203840 -0.090100
C41   C     C_R   0.654272 0.766876 0.154401 0.235606
C42   C     C_R   0.233784 0.888301 0.154371 0.234360
C43   C     C_R   0.113420 0.345549 0.153871 0.234536
C44   C     C_R   0.766491 0.967019 0.162646 -0.148957
C45   C     C_3   0.256125 0.870949 0.796037 -0.214878
C46   C     C_R   0.031934 0.799145 0.162808 -0.151368
C47   C     C_R   0.200161 0.232030 0.163217 -0.151192
C48   C     C_R   0.745160 0.958281 0.212176 -0.134695
C49   C     C_R   0.040431 0.786585 0.212379 -0.134987
C50   C     C_R   0.212810 0.253706 0.212725 -0.134248
C51   C     C_R   0.682362 0.854188 0.233590 -0.008559
C52   C     C_R   0.145258 0.828427 0.233701 -0.008889
C53   C     C_R   0.172137 0.317464 0.233583 -0.008768
C54   C     C_R   0.726549 0.871680 0.133831 0.025555
C55   C     C_R   0.128253 0.855041 0.133863 0.022772
C56   C     C_3   0.131180 0.409508 0.803151 -0.215817
C57   C     C_R   0.145508 0.272759 0.133849 0.022710
C58   C     C_R   0.107533 0.222526 0.085900 0.611569
C59   C     C_R   0.777571 0.884663 0.085929 0.597826
C60   C     C_R   0.115614 0.892830 0.085856 0.610837
C61   C     C_3   0.553855 0.854663 0.738540 -0.132208
C62   C     C_3   0.072755 0.718735 0.732612 -0.114704
C63   C     C_3   0.299511 0.406788 0.739240 -0.133094
C64   C     C_3   0.758299 0.921705 0.723507 0.198577
C65   C     C_3   0.152619 0.925871 0.714785 0.135567
C66   C     C_3   0.094533 0.273271 0.716201 0.128058
C67   C     C_3   0.619271 0.716942 0.736019 -0.198780
C68   C     C_3   0.777243 0.937233 0.779527 -0.187401
C69   C     C_3   0.129734 0.941852 0.768834 -0.181188
C70   C     C_3   0.076720 0.222464 0.768264 -0.178369
C71   C     C_1   0.729822 0.871542 0.901961 0.006002
C72   C     C_1   0.106599 0.898797 0.893627 0.004120
C73   C     C_1   0.107090 0.219228 0.894221 0.004047
C74   C     C_3   0.637444 0.826256 0.712929 0.010600
C75   C     C_3   0.173343 0.826318 0.710703 -0.008576
C76   C     C_3   0.190640 0.396745 0.716828 -0.000871
C77   C     C_3   0.573274 0.863021 0.795125 -0.193876
C78   C     C_3   0.276400 0.852124 0.742214 -0.216256
C79   C     C_3   0.049869 0.739847 0.785961 -0.194343
C80   C     C_3   0.275355 0.352031 0.790652 -0.196492
C81   C     C_3   0.674075 0.848551 0.807840 -0.005615
C82   C     C_3   0.138709 0.857405 0.802214 -0.013961
C83   C     C_3   0.153201 0.310923 0.805447 -0.013760
C84   C     C_2   0.558540 0.956470 0.716257 0.207575
C85   C     C_2   0.968304 0.671009 0.701961 0.271919
C86   C     C_2   0.357189 0.363816 0.706790 0.266007
C87   C     C_3   0.155534 0.461885 0.751300 -0.215445
Cr1   Cr    Cr6+3 0.164410 0.584450 0.499910 1.047400
Cr2   Cr    Cr6+3 0.415550 0.579960 0.499910 1.040811
Cr3   Cr    Cr6+3 0.420040 0.835590 0.499910 1.050954
Cr4   Cr    Cr6+3 0.156760 0.076070 0.017830 1.110982
Cr5   Cr    Cr6+3 0.923930 0.080690 0.017830 1.101805
Cr6   Cr    Cr6+3 0.919310 0.843240 0.017830 1.107785
H1    H     H_    0.586851 0.942397 0.810257 0.189126
H2    H     H_    0.721957 0.722365 0.797597 0.174326
H3    H     H_    0.321094 0.955276 0.807469 0.172873
H4    H     H_    0.042909 0.380577 0.812960 0.167684
H5    H     H_    0.587428 0.946366 0.379326 0.134497
H6    H     H_    0.051751 0.640896 0.379753 0.133132
H7    H     H_    0.359350 0.410933 0.379885 0.133509
H8    H     H_    0.580644 0.679109 0.220951 0.128274
H9    H     H_    0.321859 0.902914 0.220875 0.128411
H10   H     H_    0.099641 0.419993 0.219875 0.128652
H11   H     H_    0.634757 0.978884 0.293447 0.110595
H12   H     H_    0.965520 0.730352 0.789562 0.179932
H13   H     H_    0.019034 0.655978 0.293915 0.110569
H14   H     H_    0.344665 0.363064 0.294155 0.110477
H15   H     H_    0.782743 0.032519 0.234095 0.121287
H16   H     H_    0.965446 0.749445 0.234386 0.121373
H17   H     H_    0.249043 0.215808 0.235066 0.121350
H18   H     H_    0.821503 0.048441 0.147655 0.159991
H19   H     H_    0.949955 0.772243 0.147863 0.160792
H20   H     H_    0.226023 0.176461 0.148649 0.158710
H21   H     H_    0.702127 0.709037 0.292434 0.104523
H22   H     H_    0.291576 0.992985 0.292230 0.104752
H23   H     H_    0.291030 0.281311 0.791450 0.178178
H24   H     H_    0.006965 0.301606 0.291812 0.104877
H25   H     H_    0.651854 0.673812 0.378313 0.133920
H26   H     H_    0.326988 0.977664 0.378044 0.134674
H27   H     H_    0.021901 0.352208 0.377468 0.134760
H28   H     H_    0.767897 0.999334 0.707925 0.218378
H29   H     H_    0.077082 0.904250 0.693219 0.183724
H30   H     H_    0.121629 0.227246 0.692422 0.172136
H31   H     H_    0.793127 0.020879 0.789665 0.134748
H32   H     H_    0.045077 0.931007 0.772240 0.156267
H33   H     H_    0.096374 0.154471 0.767946 0.129924
H34   H     H_    0.467816 0.785315 0.731971 0.074075
H35   H     H_    0.852485 0.933693 0.790832 0.149133
H36   H     H_    0.187285 0.026621 0.782138 0.162266
H37   H     H_    0.988937 0.184251 0.780506 0.168046
H38   H     H_    0.530736 0.651794 0.731626 0.105954
H39   H     H_    0.293381 0.782510 0.740245 0.082504
H40   H     H_    0.223070 0.549812 0.753343 0.085124
H41   H     H_    0.668495 0.685705 0.716957 0.212138
H42   H     H_    0.351502 0.926708 0.728307 0.210196
H43   H     H_    0.080828 0.462768 0.737443 0.202630
H44   H     H_    0.577644 0.667340 0.812190 0.131551
H45   H     H_    0.097172 0.654050 0.733784 0.129278
H46   H     H_    0.264251 0.810809 0.819870 0.128125
H47   H     H_    0.184593 0.473443 0.830164 0.133598
H48   H     H_    0.494579 0.507607 0.168834 0.338150
H49   H     H_    0.495155 0.989990 0.168599 0.338164
H50   H     H_    0.013744 0.505554 0.166918 0.338333
H51   H     H_    0.526117 0.951394 0.679761 0.147168
H52   H     H_    0.963646 0.714338 0.669972 0.139671
H53   H     H_    0.319108 0.321097 0.673211 0.182438
H54   H     H_    0.819086 0.798582 0.631775 0.353538
H55   H     H_    0.160608 0.063706 0.630840 0.365705
H56   H     H_    0.359879 0.496262 0.744045 0.118192
H57   H     H_    0.975636 0.173217 0.624162 0.359691
H58   H     H_    0.497369 0.796914 0.813492 0.109245
H59   H     H_    0.051820 0.677349 0.810551 0.135244
H60   H     H_    0.332747 0.413295 0.817708 0.136973
O1    O     O_R   0.137310 0.468260 0.552980 -0.464983
O2    O     O_R   0.139940 0.470480 0.446230 -0.515082
O3    O     O_R   0.529520 0.669460 0.446230 -0.517371
O4    O     O_R   0.330540 0.860060 0.446230 -0.515788
O5    O     O_R   0.176560 0.690850 0.450770 -0.505158
O6    O     O_R   0.309150 0.485710 0.450770 -0.498658
O7    O     O_R   0.514290 0.823440 0.450770 -0.500696
O8    O     O_3   0.333333 0.666667 0.499990 -0.303499
O9    O     O_3   0.000000 0.000000 0.017910 -0.308644
O10   O     O_R   0.149710 0.171070 0.967700 -0.490469
O11   O     O_R   0.828930 0.978640 0.967700 -0.517762
O12   O     O_R   0.531740 0.669050 0.552980 -0.506552
O13   O     O_R   0.021360 0.850290 0.967700 -0.473631
O14   O     O_R   0.178510 0.985930 0.071830 -0.456446
O15   O     O_R   0.014070 0.192580 0.071830 -0.454395
O16   O     O_R   0.807420 0.821490 0.071830 -0.457157
O17   O     O_R   0.147830 0.173300 0.066650 -0.501700
O18   O     O_R   0.826700 0.974530 0.066650 -0.507384
O19   O     O_R   0.025470 0.852170 0.066650 -0.500435
O20   O     O_2   0.561730 0.668404 0.069491 -0.194583
O21   O     O_2   0.668274 0.600440 0.114139 -0.281014
O22   O     O_3   0.471636 0.548509 0.146572 -0.482328
O23   O     O_R   0.330950 0.862690 0.552980 -0.477818
O24   O     O_2   0.333689 0.895650 0.069453 -0.187268
O25   O     O_2   0.401710 0.069222 0.113717 -0.280791
O26   O     O_3   0.454139 0.926328 0.146468 -0.484973
O27   O     O_2   0.108846 0.437789 0.068460 -0.185663
O28   O     O_2   0.932813 0.333241 0.112654 -0.280184
O29   O     O_3   0.078168 0.527843 0.144894 -0.482235
O30   O     O_2   0.598516 0.044252 0.737925 -0.432243
O31   O     O_2   0.887724 0.582033 0.712793 -0.429270
O32   O     O_2   0.449051 0.378833 0.717777 -0.421574
O33   O     O_2   0.974403 0.008225 0.701889 -0.293003
O34   O     O_R   0.180530 0.983530 0.965090 -0.468884
O35   O     O_2   0.871087 0.810970 0.720373 -0.398004
O36   O     O_3   0.843201 0.877878 0.635451 -0.491930
O37   O     O_2   0.336635 0.131288 0.727074 -0.230842
O38   O     O_2   0.333869 0.035815 0.652870 -0.255641
O39   O     O_3   0.201436 0.114595 0.657973 -0.532855
O40   O     O_2   0.877307 0.224782 0.728022 -0.237999
O41   O     O_2   0.980446 0.353386 0.662634 -0.251441
O42   O     O_3   0.917158 0.148150 0.649574 -0.442051
O43   O     O_R   0.016470 0.197000 0.965090 -0.460207
O44   O     O_R   0.803000 0.819470 0.965090 -0.493262
O45   O     O_R   0.174120 0.688790 0.549730 -0.515567
O46   O     O_R   0.311210 0.485330 0.549730 -0.492562
O47   O     O_R   0.514670 0.825880 0.549730 -0.494340
S1    S     S_3+6 0.589732 0.644484 0.119330 0.061210
S2    S     S_3+6 0.357428 0.947204 0.119178 0.061810
S3    S     S_3+6 0.056002 0.410384 0.118145 0.063997
S4    S     S_3+6 0.865233 0.903645 0.695491 -0.052815
S5    S     S_3+6 0.262099 0.054196 0.688227 0.002354
S6    S     S_3+6 0.964662 0.252733 0.689561 0.027903

loop_
_geom_bond_atom_site_label_1
_geom_bond_atom_site_label_2
_ccdc_geom_bond_type
C25   C31   A    
C15   C18   A    
C44   C48   A    
Cr6   O19   S    
H55   O39   S    
C46   H19   S    
C7    C10   T    
C18   C21   A    
C17   C29   S    
O39   S5    S    
C87   H40   S    
C45   C82   S    
C24   C27   A    
C50   H17   S    
O27   S3    D    
C77   H58   S    
C6    C9    T    
C25   C51   S    
C80   H60   S    
C1    O23   A    
C48   H15   S    
C27   C33   A    
C30   O7    A    
O42   S6    S    
C46   C49   A    
Cr6   O16   S    
C28   O5    A    
C13   O44   A    
C13   O11   A    
C68   C81   S    
C64   C68   S    
Cr4   O14   S    
C58   O17   A    
Cr2   O3    S    
C85   H52   S    
C38   H8    S    
C56   H47   S    
C65   C69   S    
Cr3   O47   S    
C63   C76   S    
C84   H51   S    
Cr5   O18   S    
Cr1   O8    S    
Cr3   O23   S    
C77   H1    S    
C45   H46   S    
C17   C20   A    
C79   H12   S    
O20   S1    D    
O38   S5    D    
Cr1   O45   S    
C5    C74   S    
C15   C35   A    
C36   H26   S    
C78   H39   S    
C39   C42   A    
C63   H56   S    
C21   C25   A    
C69   C82   S    
C23   O12   A    
C21   H11   S    
C40   C43   A    
C1    O45   A    
Cr2   O46   S    
C61   C77   S    
C46   C55   A    
Cr4   O9    S    
C45   C78   S    
C34   C81   S    
Cr1   O5    S    
C14   O13   A    
C58   O15   A    
C78   H42   S    
C68   H35   S    
C31   H21   S    
C8    C23   S    
C29   O2    A    
C70   H33   S    
C30   O3    A    
C39   C52   A    
C64   S4    S    
C69   H32   S    
C55   C60   S    
Cr4   O10   S    
O28   S3    D    
C56   C83   S    
C56   H4    S    
C80   C83   S    
C59   O18   A    
C86   H53   S    
Cr2   O8    S    
Cr2   O6    S    
C47   C50   A    
C54   C59   S    
C48   C51   A    
O36   S4    S    
C33   H24   S    
O41   S6    D    
C62   C85   S    
C50   C53   A    
Cr3   O8    S    
O29   S3    S    
C60   O19   A    
H50   O29   S    
C80   H23   S    
C62   C79   S    
C6    C75   S    
C19   C22   A    
C1    C9    S    
C34   H2    S    
O22   S1    S    
C38   C41   A    
C29   O6    A    
C11   C73   S    
C24   H14   S    
C19   H6    S    
C26   C32   A    
C56   C87   S    
C38   C51   A    
C13   C71   S    
C22   H13   S    
C23   O47   A    
O35   S4    D    
O21   S1    D    
C33   C37   A    
Cr1   O1    S    
C2    C81   S    
C34   C67   S    
Cr6   O44   S    
Cr1   O2    S    
C26   C52   S    
C42   C55   A    
C47   C57   A    
Cr5   O15   S    
O37   S5    D    
H49   O26   S    
C20   H7    S    
O26   S2    S    
C77   C81   S    
C49   C52   A    
C66   C76   S    
C68   H31   S    
C67   H41   S    
C3    C82   S    
C11   O10   A    
O33   S4    D    
C61   H34   S    
C67   C74   S    
C17   C37   A    
C65   H29   S    
C11   O43   A    
C70   C83   S    
C76   C87   S    
Cr2   O12   S    
C4    C73   T    
C10   C12   S    
C62   H45   S    
Cr6   O13   S    
C85   O31   D    
O25   S2    D    
C63   C86   S    
C43   S3    S    
C31   C35   A    
C62   C75   S    
C42   S2    S    
C5    C8    T    
C41   S1    S    
C2    C71   T    
C70   H37   S    
C32   C36   A    
C15   C30   S    
C49   H16   S    
Cr5   O9    S    
C47   H20   S    
Cr4   O34   S    
O40   S6    D    
Cr4   O17   S    
O24   S2    D    
C14   C72   S    
C87   H43   S    
C84   O30   D    
C67   H38   S    
C12   O1    A    
Cr5   O43   S    
C61   C84   S    
C60   O14   A    
C79   C82   S    
C27   C53   S    
C7    C76   S    
C61   C74   S    
C63   C80   S    
C34   H44   S    
C65   C75   S    
Cr3   O4    S    
C3    C72   T    
C39   H9    S    
C16   C36   A    
C40   H10   S    
C14   O34   A    
Cr5   O11   S    
C57   C58   S    
C66   C70   S    
C4    C83   S    
Cr6   O9    S    
H54   O36   S    
C16   C19   A    
C66   S6    S    
C28   O4    A    
C12   O46   A    
C32   H22   S    
Cr3   O7    S    
C37   H27   S    
C75   C78   S    
H57   O42   S    
C41   C54   A    
C43   C57   A    
C66   H30   S    
C44   H18   S    
C44   C54   A    
C65   S5    S    
C86   O32   D    
C69   H36   S    
C40   C53   A    
C22   C26   A    
H48   O22   S    
C64   C74   S    
C16   C28   S    
C35   H25   S    
C18   H5    S    
C59   O16   A    
C45   H3    S    
C20   C24   A    
C64   H28   S    
C79   H59   S    
