data_mof_unit_44581.cif
_audit_creation_date              2013-03-05T16:48:15-0500
_audit_creation_method            fapswitch 2.2
_symmetry_space_group_name_H-M    P1
_symmetry_Int_Tables_number       1
_space_group_crystal_system       triclinic
_cell_length_a                    23.500835
_cell_length_b                    8.926389
_cell_length_c                    8.090179
_cell_angle_alpha                 90.016671
_cell_angle_beta                  90.000011
_cell_angle_gamma                 90.000012
_cell_volume                      1697.13822218

loop_
_atom_site_label
_atom_site_type_symbol
_atom_site_description
_atom_site_fract_x
_atom_site_fract_y
_atom_site_fract_z
_atom_type_partial_charge
O1    O     O_R   0.500000 0.285350 0.636850 -0.619135
O2    O     O_R   0.500000 0.714650 0.363150 -0.619134
O3    O     O_R   0.500000 0.714650 0.636850 -0.616488
O4    O     O_R   0.500000 0.285350 0.363150 -0.616488
C1    C     C_R   0.500000 0.217944 0.499985 0.918878
C2    C     C_R   0.500000 0.782056 0.500015 0.918878
O5    O     O_R   0.416160 0.500000 0.636910 -0.562489
O6    O     O_R   0.583840 0.500000 0.363090 -0.562454
O7    O     O_R   0.583840 0.500000 0.636910 -0.562454
O8    O     O_R   0.416160 0.500000 0.363090 -0.562489
C3    C     C_R   0.207882 0.500002 0.500000 0.072820
C4    C     C_R   0.792129 0.500001 0.500000 0.072677
C5    C     C_R   0.388874 0.500000 0.500000 0.952809
C6    C     C_R   0.611128 0.500000 0.500000 0.952675
Zn1   Zn    Zn3+2 0.500000 0.500000 0.682780 1.103534
Zn2   Zn    Zn3+2 0.500000 0.500000 0.317220 1.103534
H1    H     H_    0.214041 0.517370 0.764873 0.195138
H2    H     H_    0.785961 0.484877 0.234955 0.195199
H3    H     H_    0.214041 0.482633 0.235127 0.195138
H4    H     H_    0.785961 0.515124 0.765045 0.195199
C7    C     C_R   0.296259 0.509768 0.650304 0.595104
C8    C     C_R   0.703747 0.491516 0.349604 0.595001
C9    C     C_R   0.296259 0.490234 0.349696 0.595104
C10   C     C_R   0.703747 0.508484 0.650396 0.595001
C11   C     C_R   0.326502 0.500001 0.500000 -0.372873
C12   C     C_R   0.673502 0.500000 0.500000 -0.373026
C13   C     C_R   0.880597 0.627285 0.453939 0.640603
C14   C     C_R   0.119424 0.372735 0.546118 0.640698
C15   C     C_R   0.880597 0.372717 0.546061 0.640603
C16   C     C_R   0.119424 0.627268 0.453882 0.640698
N1    N     N_R   0.852625 0.500001 0.500000 -0.353321
N2    N     N_R   0.147390 0.500002 0.500000 -0.353411
C17   C     C_R   0.940150 0.369591 0.547499 -0.226651
C18   C     C_R   0.059870 0.630406 0.452479 -0.226702
C19   C     C_R   0.940150 0.630411 0.452501 -0.226651
C20   C     C_R   0.059871 0.369597 0.547521 -0.226702
C21   C     C_R   0.970052 0.500001 0.500000 -0.163468
C22   C     C_R   0.029969 0.500001 0.500000 -0.163471
C23   C     C_R   0.970428 0.240419 0.594693 0.631067
C24   C     C_R   0.029593 0.759580 0.405291 0.631036
C25   C     C_R   0.970428 0.759584 0.405307 0.631067
C26   C     C_R   0.029593 0.240423 0.594709 0.631036
C27   C     C_1   0.500000 0.065192 0.499979 -0.137823
C28   C     C_1   0.500000 0.934808 0.500021 -0.137823
C29   C     C_R   0.237210 0.509609 0.649439 -0.157117
C30   C     C_R   0.762796 0.491655 0.350471 -0.157028
C31   C     C_R   0.237210 0.490394 0.350561 -0.157118
C32   C     C_R   0.762796 0.508347 0.649529 -0.157028
N3    N     N_1   0.500000 0.500000 0.073640 0.026735
N4    N     N_1   0.500000 0.500000 0.926360 0.026735
O9    O     O_2   0.850523 0.750000 0.410744 -0.419108
O10   O     O_2   0.149502 0.250061 0.589425 -0.419021
O11   O     O_2   0.850523 0.250002 0.589256 -0.419108
O12   O     O_2   0.149502 0.749943 0.410576 -0.419021
F1    F     F_    0.943198 0.113144 0.641717 -0.526875
F2    F     F_    0.056824 0.886851 0.358259 -0.526900
F3    F     F_    0.943198 0.886858 0.358284 -0.526875
F4    F     F_    0.056824 0.113152 0.641741 -0.526900
F5    F     F_    0.323353 0.520178 0.798093 -0.575592
F6    F     F_    0.676657 0.482462 0.201701 -0.575315
F7    F     F_    0.323353 0.479824 0.201907 -0.575592
F8    F     F_    0.676657 0.517539 0.798299 -0.575315

loop_
_geom_bond_atom_site_label_1
_geom_bond_atom_site_label_2
_geom_bond_distance
_ccdc_geom_bond_type
O4    Zn2   1.951854 S    
O5    C5    1.279856 A    
C10   F8    1.357775 S    
O7    C6    1.279874 A    
O8    C5    1.279857 A    
C21   C22   1.408109 A    
O1    Zn1   1.951642 S    
O2    Zn2   1.951641 S    
C3    C31   1.394271 A    
C4    N1    1.421718 S    
C14   O10   1.349721 S    
C17   C21   1.413092 A    
C4    C32   1.394321 A    
O3    C2    1.260123 A    
C13   C19   1.399886 A    
C26   F4    1.358387 S    
O5    Zn1   2.004955 S    
C1    C27   1.363524 S    
C25   F3    1.358386 S    
O6    Zn2   2.004952 S    
O8    Zn2   2.004955 S    
C6    C12   1.465850 S    
C16   N2    1.364543 A    
C16   O12   1.349723 S    
C10   C12   1.411149 A    
C5    C11   1.465787 S    
H4    C32   1.083225 S    
C15   O11   1.349725 S    
Zn1   N4    1.970606 S    
O1    C1    1.260032 A    
H2    C30   1.083224 S    
C14   N2    1.364543 A    
C20   C22   1.413104 A    
C24   C25   1.390439 A    
C8    C30   1.387703 A    
C13   O9    1.349724 S    
C3    N2    1.421598 S    
C7    F5    1.357779 S    
C23   C26   1.390439 A    
C7    C29   1.387710 A    
C9    C11   1.411139 A    
C27   C28   1.163856 T    
C8    F6    1.357775 S    
C19   C25   1.407782 A    
C18   C24   1.407767 A    
C3    C29   1.394272 A    
C9    C31   1.387710 A    
C16   C18   1.399883 A    
C13   N1    1.364597 A    
C10   C32   1.387703 A    
C15   C17   1.399886 A    
C9    F7    1.357779 S    
O3    Zn1   1.951853 S    
Zn2   N3    1.970606 S    
C14   C20   1.399883 A    
C15   N1    1.364598 A    
N3    N4    1.191521 T    
C8    C12   1.411150 A    
H3    C31   1.083222 S    
C7    C11   1.411138 A    
C2    C28   1.363524 S    
O6    C6    1.279874 A    
C19   C21   1.413092 A    
C18   C22   1.413104 A    
C20   C26   1.407768 A    
C17   C23   1.407781 A    
C23   F1    1.358386 S    
O2    C2    1.260032 A    
O7    Zn1   2.004953 S    
H1    C29   1.083222 S    
O4    C1    1.260123 A    
C24   F2    1.358386 S    
C4    C30   1.394320 A    
