data_mof_unit_62283.cif
_audit_creation_date              2013-03-05T16:18:08-0500
_audit_creation_method            fapswitch 2.2
_symmetry_space_group_name_H-M    P1
_symmetry_Int_Tables_number       1
_space_group_crystal_system       triclinic
_cell_length_a                    39.041705
_cell_length_b                    39.041101
_cell_length_c                    18.366618
_cell_angle_alpha                 90.0
_cell_angle_beta                  90.000115
_cell_angle_gamma                 90.000101
_cell_volume                      27994.9712411

loop_
_atom_site_label
_atom_site_type_symbol
_atom_site_description
_atom_site_fract_x
_atom_site_fract_y
_atom_site_fract_z
_atom_type_partial_charge
O1    O     O_R   0.549910 0.028910 0.500030 -0.556705
O2    O     O_R   0.971090 0.549910 0.500030 -0.556586
O3    O     O_R   0.450090 0.971090 0.500030 -0.556661
O4    O     O_R   0.028910 0.450090 0.500030 -0.556585
O5    O     O_R   0.450090 0.028910 0.499970 -0.556654
O6    O     O_R   0.028910 0.549910 0.499970 -0.556614
O7    O     O_R   0.549910 0.971090 0.499970 -0.556705
O8    O     O_R   0.971090 0.450090 0.499970 -0.556556
O9    O     O_R   0.049910 0.528910 0.000030 -0.556617
O10   O     O_R   0.471090 0.049910 0.000030 -0.556589
O11   O     O_R   0.950090 0.471090 0.000030 -0.556732
O12   O     O_R   0.528910 0.950090 0.000030 -0.556562
O13   O     O_R   0.950090 0.528910 0.999970 -0.556723
O14   O     O_R   0.528910 0.049910 0.999970 -0.556576
O15   O     O_R   0.049910 0.471090 0.999970 -0.556625
O16   O     O_R   0.471090 0.950090 0.999970 -0.556575
C1    C     C_R   0.566111 0.000000 0.499999 0.903168
C2    C     C_R   0.000000 0.566112 0.500000 0.902673
C3    C     C_R   0.433888 1.000000 0.500000 0.902747
C4    C     C_R   1.000000 0.433887 0.500000 0.902431
C5    C     C_R   0.066113 0.500000 1.000000 0.902477
C6    C     C_R   0.500000 0.066113 0.999999 0.902570
C7    C     C_R   0.933890 0.500000 1.000000 0.903367
C8    C     C_R   0.500000 0.933887 0.000001 0.902454
O17   O     O_R   0.499990 0.028910 0.605810 -0.560816
O18   O     O_R   0.971090 0.499990 0.605810 -0.560602
O19   O     O_R   0.500010 0.971090 0.605810 -0.560677
O20   O     O_R   0.028910 0.500010 0.605810 -0.560674
O21   O     O_R   0.500010 0.028910 0.394190 -0.560659
O22   O     O_R   0.028910 0.499990 0.394190 -0.560764
O23   O     O_R   0.499990 0.971090 0.394190 -0.560834
O24   O     O_R   0.971090 0.500010 0.394190 -0.560512
O25   O     O_R   0.999990 0.528910 0.105810 -0.560549
O26   O     O_R   0.471090 0.999990 0.105810 -0.560689
O27   O     O_R   0.000010 0.471090 0.105810 -0.560927
O28   O     O_R   0.528910 0.000010 0.105810 -0.560566
O29   O     O_R   0.000010 0.528910 0.894190 -0.560885
O30   O     O_R   0.528910 0.999990 0.894190 -0.560608
O31   O     O_R   0.999990 0.471090 0.894190 -0.560591
O32   O     O_R   0.471090 0.000010 0.894190 -0.560646
C9    C     C_R   0.499997 1.000000 0.639832 0.896489
C10   C     C_R   0.000000 0.499998 0.639832 0.895970
C11   C     C_R   0.499997 1.000000 0.360168 0.896489
C12   C     C_R   0.000000 0.499998 0.360168 0.895968
C13   C     C_R   0.000006 0.500000 0.139832 0.896444
C14   C     C_R   0.500000 0.999999 0.139832 0.895915
C15   C     C_R   0.000006 0.500000 0.860168 0.896444
C16   C     C_R   0.500000 0.999999 0.860168 0.895916
Cu1   Cu    Cu3+1 0.500000 0.034230 0.500000 1.163056
Cu2   Cu    Cu3+1 0.965770 0.500000 0.500000 1.163373
Cu3   Cu    Cu3+1 0.500000 0.965770 0.500000 1.163028
Cu4   Cu    Cu3+1 0.034230 0.500000 0.500000 1.163141
Cu5   Cu    Cu3+1 0.000000 0.534230 0.000000 1.163091
Cu6   Cu    Cu3+1 0.465770 0.000000 0.000000 1.163220
Cu7   Cu    Cu3+1 0.000000 0.465770 0.000000 1.163031
Cu8   Cu    Cu3+1 0.534230 0.000000 0.000000 1.163337
C17   C     C_1   0.499998 1.000000 0.717358 -0.025551
C18   C     C_1   0.000002 0.499999 0.717357 -0.025808
C19   C     C_1   0.499998 1.000000 0.282642 -0.025552
C20   C     C_1   0.000002 0.499999 0.282643 -0.025810
C21   C     C_1   0.000004 0.500000 0.217358 -0.025570
C22   C     C_1   0.499999 1.000000 0.217357 -0.025839
C23   C     C_1   0.000005 0.499999 0.782642 -0.025569
C24   C     C_1   0.499999 0.999999 0.782643 -0.025839
C25   C     C_R   0.877540 0.978775 0.450759 0.302976
C26   C     C_R   0.021263 0.877540 0.450836 0.302927
C27   C     C_R   0.122461 0.021241 0.450792 0.302961
C28   C     C_R   0.978720 0.122458 0.450863 0.302882
C29   C     C_R   0.122459 0.978757 0.549209 0.302946
C30   C     C_R   0.978732 0.877542 0.549161 0.302905
C31   C     C_R   0.877540 0.021223 0.549243 0.302990
C32   C     C_R   0.021276 0.122460 0.549141 0.302903
C33   C     C_R   0.377539 0.478747 0.950812 0.302928
C34   C     C_R   0.521276 0.377543 0.950852 0.302880
C35   C     C_R   0.622460 0.521210 0.950734 0.303012
C36   C     C_R   0.478726 0.622461 0.950858 0.302918
C37   C     C_R   0.622459 0.478789 0.049269 0.303006
C38   C     C_R   0.478732 0.377539 0.049153 0.302930
C39   C     C_R   0.377539 0.521254 0.049186 0.302933
C40   C     C_R   0.521281 0.622457 0.049137 0.302869
C41   C     C_R   0.841673 0.979279 0.451164 -0.168782
C42   C     C_R   0.020762 0.841673 0.451251 -0.168741
C43   C     C_R   0.158328 0.020740 0.451208 -0.168744
C44   C     C_R   0.979219 0.158326 0.451278 -0.168699
C45   C     C_R   0.158326 0.979259 0.548800 -0.168741
C46   C     C_R   0.979233 0.841674 0.548752 -0.168735
C47   C     C_R   0.841673 0.020719 0.548835 -0.168785
C48   C     C_R   0.020777 0.158328 0.548721 -0.168705
C49   C     C_R   0.341672 0.479245 0.951229 -0.168701
C50   C     C_R   0.520775 0.341675 0.951258 -0.168717
C51   C     C_R   0.658326 0.520704 0.951137 -0.168821
C52   C     C_R   0.479224 0.658329 0.951283 -0.168711
C53   C     C_R   0.658325 0.479296 0.048870 -0.168820
C54   C     C_R   0.479232 0.341671 0.048731 -0.168728
C55   C     C_R   0.341671 0.520755 0.048765 -0.168702
C56   C     C_R   0.520782 0.658325 0.048728 -0.168700
H1    H     H_    0.827663 0.963106 0.413580 0.197589
H2    H     H_    0.036969 0.827659 0.413739 0.197640
H3    H     H_    0.172341 0.036930 0.413659 0.197629
H4    H     H_    0.962998 0.172341 0.413792 0.197675
H5    H     H_    0.172338 0.963069 0.586349 0.197630
H6    H     H_    0.963025 0.827662 0.586264 0.197640
H7    H     H_    0.827662 0.036892 0.586419 0.197589
H8    H     H_    0.036997 0.172343 0.586207 0.197676
H9    H     H_    0.327658 0.463043 0.913706 0.197669
H10   H     H_    0.536990 0.327663 0.913759 0.197655
H11   H     H_    0.672335 0.536864 0.913525 0.197551
H12   H     H_    0.463006 0.672345 0.913796 0.197675
H13   H     H_    0.672334 0.463136 0.086483 0.197552
H14   H     H_    0.463019 0.327656 0.086229 0.197657
H15   H     H_    0.327657 0.536957 0.086287 0.197670
H16   H     H_    0.537003 0.672338 0.086215 0.197671
C57   C     C_R   0.823673 0.999999 0.499999 0.012653
C58   C     C_R   0.999998 0.823676 0.500004 0.012526
C59   C     C_R   0.176325 1.000000 0.500006 0.012551
C60   C     C_R   0.999998 0.176324 0.499998 0.012433
C61   C     C_R   0.323675 0.500000 0.999996 0.012444
C62   C     C_R   0.500003 0.323676 0.999990 0.012485
C63   C     C_R   0.676327 0.500000 0.000005 0.012751
C64   C     C_R   0.500003 0.676324 0.000010 0.012440
C65   C     C_R   0.895896 0.999999 0.500001 -0.232125
C66   C     C_R   0.999999 0.895897 0.499999 -0.232191
C67   C     C_R   0.104104 0.999999 0.500000 -0.232146
C68   C     C_R   0.999999 0.104104 0.500001 -0.232204
C69   C     C_R   0.395895 0.500000 0.999999 -0.232156
C70   C     C_R   0.500002 0.395896 0.000002 -0.232198
C71   C     C_R   0.604104 0.500000 0.000000 -0.232111
C72   C     C_R   0.500002 0.604104 0.999998 -0.232203
C73   C     C_R   0.767904 0.030906 0.496115 -0.186836
C74   C     C_R   0.969102 0.767910 0.495798 -0.186810
C75   C     C_R   0.232091 0.969099 0.495902 -0.186801
C76   C     C_R   0.030890 0.232087 0.495594 -0.186790
C77   C     C_R   0.232092 0.030900 0.504115 -0.186806
C78   C     C_R   0.030895 0.767910 0.504218 -0.186811
C79   C     C_R   0.767904 0.969093 0.503882 -0.186839
C80   C     C_R   0.969108 0.232087 0.504397 -0.186793
C81   C     C_R   0.267912 0.530894 0.995674 -0.186781
C82   C     C_R   0.469108 0.267912 0.995687 -0.186805
C83   C     C_R   0.732098 0.469088 0.996328 -0.186847
C84   C     C_R   0.530894 0.732088 0.995625 -0.186794
C85   C     C_R   0.732098 0.530912 0.003688 -0.186857
C86   C     C_R   0.530896 0.267911 0.004280 -0.186801
C87   C     C_R   0.267912 0.469106 0.004316 -0.186779
C88   C     C_R   0.469111 0.732087 0.004405 -0.186793
H17   H     H_    0.781943 0.054755 0.491600 0.201679
H18   H     H_    0.945264 0.781951 0.491035 0.201744
H19   H     H_    0.218050 0.945258 0.491218 0.201732
H20   H     H_    0.054719 0.218043 0.490688 0.201802
H21   H     H_    0.218051 0.054741 0.508800 0.201739
H22   H     H_    0.054732 0.781953 0.508981 0.201751
H23   H     H_    0.781942 0.945244 0.508398 0.201684
H24   H     H_    0.945278 0.218044 0.509304 0.201800
H25   H     H_    0.281955 0.554727 0.990830 0.201800
H26   H     H_    0.445275 0.281954 0.990859 0.201775
H27   H     H_    0.718062 0.445230 0.991966 0.201616
H28   H     H_    0.554723 0.718044 0.990727 0.201796
H29   H     H_    0.718062 0.554770 0.008051 0.201626
H30   H     H_    0.554730 0.281953 0.009108 0.201766
H31   H     H_    0.281955 0.445274 0.009160 0.201798
H32   H     H_    0.445281 0.718043 0.009303 0.201799
C89   C     C_R   0.732039 0.031318 0.494357 0.302970
C90   C     C_R   0.968695 0.732043 0.494026 0.302943
C91   C     C_R   0.267957 0.968691 0.494131 0.302941
C92   C     C_R   0.031295 0.267954 0.493814 0.302922
C93   C     C_R   0.267957 0.031309 0.505886 0.302937
C94   C     C_R   0.031303 0.732044 0.505991 0.302937
C95   C     C_R   0.732038 0.968681 0.505642 0.302963
C96   C     C_R   0.968703 0.267954 0.506178 0.302924
C97   C     C_R   0.232045 0.531300 0.993894 0.302917
C98   C     C_R   0.468701 0.232045 0.993911 0.302930
C99   C     C_R   0.767963 0.468675 0.994578 0.302982
C100  C     C_R   0.531299 0.767954 0.993845 0.302924
C101  C     C_R   0.767964 0.531326 0.005440 0.302977
C102  C     C_R   0.531302 0.232045 0.006056 0.302935
C103  C     C_R   0.232045 0.468700 0.006096 0.302918
C104  C     C_R   0.468705 0.767954 0.006184 0.302922
C105  C     C_R   0.713763 1.000000 0.499998 -0.123094
C106  C     C_R   0.999999 0.713769 0.500008 -0.123100
C107  C     C_R   0.286233 1.000000 0.500007 -0.123070
C108  C     C_R   0.999999 0.286229 0.499996 -0.123127
C109  C     C_R   0.213771 0.500000 0.999996 -0.123102
C110  C     C_R   0.500001 0.213770 0.999985 -0.123111
C111  C     C_R   0.786239 0.500000 0.000007 -0.123039
C112  C     C_R   0.500002 0.786229 0.000013 -0.123126
C113  C     C_R   0.785901 0.999999 0.499998 0.008636
C114  C     C_R   0.999998 0.785905 0.500007 0.008500
C115  C     C_R   0.214096 1.000000 0.500008 0.008524
C116  C     C_R   0.999999 0.214093 0.499996 0.008403
C117  C     C_R   0.285905 0.500000 0.999995 0.008413
C118  C     C_R   0.500002 0.285906 0.999984 0.008458
C119  C     C_R   0.714100 0.500000 0.000007 0.008735
C120  C     C_R   0.500002 0.714093 0.000015 0.008410
C121  C     C_R   0.657923 0.982290 0.446006 -0.093535
C122  C     C_R   0.017832 0.657929 0.446195 -0.093567
C123  C     C_R   0.342073 0.017805 0.446154 -0.093569
C124  C     C_R   0.982108 0.342069 0.446277 -0.093591
C125  C     C_R   0.342074 0.982194 0.553852 -0.093564
C126  C     C_R   0.982167 0.657927 0.553813 -0.093575
C127  C     C_R   0.657923 0.017711 0.553988 -0.093530
C128  C     C_R   0.017890 0.342068 0.553718 -0.093580
C129  C     C_R   0.157929 0.482129 0.946247 -0.093581
C130  C     C_R   0.517860 0.157928 0.946222 -0.093580
C131  C     C_R   0.842080 0.517659 0.945935 -0.093527
C132  C     C_R   0.482114 0.842068 0.946282 -0.093582
C133  C     C_R   0.842081 0.482341 0.054070 -0.093518
C134  C     C_R   0.482142 0.157931 0.053760 -0.093577
C135  C     C_R   0.157930 0.517871 0.053748 -0.093585
C136  C     C_R   0.517888 0.842070 0.053735 -0.093587
H33   H     H_    0.672005 0.969072 0.403628 0.194071
H34   H     H_    0.031145 0.672010 0.403954 0.194045
H35   H     H_    0.327991 0.031098 0.403882 0.194060
H36   H     H_    0.968748 0.327988 0.404101 0.194018
H37   H     H_    0.327994 0.968901 0.596125 0.194064
H38   H     H_    0.968854 0.672008 0.596056 0.194042
H39   H     H_    0.672005 0.030928 0.596366 0.194073
H40   H     H_    0.031250 0.327987 0.595894 0.194024
H41   H     H_    0.172010 0.468784 0.904048 0.194036
H42   H     H_    0.531195 0.172008 0.904009 0.194033
H43   H     H_    0.827999 0.530835 0.903499 0.194100
H44   H     H_    0.468757 0.827985 0.904103 0.194024
H45   H     H_    0.828001 0.469164 0.096508 0.194106
H46   H     H_    0.468808 0.172013 0.095971 0.194034
H47   H     H_    0.172012 0.531216 0.095946 0.194034
H48   H     H_    0.531245 0.827990 0.095917 0.194019
C137  C     C_R   0.622054 0.982194 0.444973 0.283234
C138  C     C_R   0.017928 0.622059 0.445158 0.283256
C139  C     C_R   0.377942 0.017902 0.445119 0.283247
C140  C     C_R   0.982014 0.377939 0.445239 0.283261
C141  C     C_R   0.377943 0.982097 0.554884 0.283247
C142  C     C_R   0.982072 0.622058 0.554847 0.283243
C143  C     C_R   0.622055 0.017807 0.555022 0.283231
C144  C     C_R   0.017985 0.377938 0.554758 0.283274
C145  C     C_R   0.122061 0.482033 0.945211 0.283270
C146  C     C_R   0.517954 0.122059 0.945189 0.283255
C147  C     C_R   0.877949 0.517757 0.944904 0.283209
C148  C     C_R   0.482019 0.877937 0.945240 0.283266
C149  C     C_R   0.877950 0.482243 0.055098 0.283210
C150  C     C_R   0.482047 0.122061 0.054801 0.283258
C151  C     C_R   0.122061 0.517967 0.054786 0.283266
C152  C     C_R   0.517982 0.877940 0.054770 0.283264
C153  C     C_R   0.603810 0.000000 0.499998 -0.252472
C154  C     C_R   1.000000 0.603813 0.500002 -0.252590
C155  C     C_R   0.396188 1.000000 0.500001 -0.252553
C156  C     C_R   1.000000 0.396185 0.499999 -0.252631
C157  C     C_R   0.103815 0.500000 0.999999 -0.252601
C158  C     C_R   0.500000 0.103814 0.999996 -0.252610
C159  C     C_R   0.896193 0.500000 0.000000 -0.252445
C160  C     C_R   0.500000 0.896185 0.000004 -0.252629
C161  C     C_R   0.675893 0.000000 0.499997 0.054630
C162  C     C_R   0.999999 0.675897 0.500005 0.054704
C163  C     C_R   0.324104 0.999999 0.500004 0.054660
C164  C     C_R   0.999999 0.324100 0.499997 0.054776
C165  C     C_R   0.175899 0.500000 0.999997 0.054744
C166  C     C_R   0.500001 0.175899 0.999989 0.054735
C167  C     C_R   0.824111 0.500000 0.000004 0.054535
C168  C     C_R   0.500001 0.824100 0.000010 0.054772
O33   O     O_R   1.000000 0.950040 0.561110 -0.545236
O34   O     O_R   0.049960 0.000000 0.561110 -0.545216
O35   O     O_R   1.000000 0.049960 0.561110 -0.545242
O36   O     O_R   0.950040 0.000000 0.561110 -0.545207
O37   O     O_R   1.000000 0.950040 0.438890 -0.545236
O38   O     O_R   0.950040 0.000000 0.438890 -0.545207
O39   O     O_R   1.000000 0.049960 0.438890 -0.545242
O40   O     O_R   0.049960 0.000000 0.438890 -0.545214
O41   O     O_R   0.500000 0.450040 0.061110 -0.545238
O42   O     O_R   0.549960 0.500000 0.061110 -0.545202
O43   O     O_R   0.500000 0.549960 0.061110 -0.545242
O44   O     O_R   0.450040 0.500000 0.061110 -0.545219
O45   O     O_R   0.500000 0.450040 0.938890 -0.545241
O46   O     O_R   0.450040 0.500000 0.938890 -0.545220
O47   O     O_R   0.500000 0.549960 0.938890 -0.545241
O48   O     O_R   0.549960 0.500000 0.938890 -0.545200
C169  C     C_R   1.000000 0.933716 0.500000 0.921658
C170  C     C_R   0.066284 1.000000 0.500000 0.921720
C171  C     C_R   1.000000 0.066284 0.500000 0.921690
C172  C     C_R   0.933716 1.000000 0.500000 0.921676
C173  C     C_R   0.500000 0.433716 0.000000 0.921672
C174  C     C_R   0.566284 0.500000 0.000000 0.921652
C175  C     C_R   0.500000 0.566284 0.999999 0.921688
C176  C     C_R   0.433716 0.500000 1.000000 0.921761
Cu9   Cu    Cu3+1 0.000000 0.000000 0.572520 1.220759
Cu10  Cu    Cu3+1 1.000000 0.000000 0.427480 1.220759
Cu11  Cu    Cu3+1 0.500000 0.500000 0.072520 1.220755
Cu12  Cu    Cu3+1 0.500000 0.500000 0.927480 1.220755
N1    N     N_R   0.894677 0.955835 0.401468 0.150881
O49   O     O_R   0.919502 0.936407 0.424410 -0.318727
O50   O     O_R   0.882047 0.950367 0.336934 -0.278885
N2    N     N_R   0.044234 0.894677 0.401610 0.150872
O51   O     O_R   0.063624 0.919525 0.424586 -0.318866
O52   O     O_R   0.049762 0.882033 0.337112 -0.278909
N3    N     N_R   0.105325 0.044191 0.401519 0.150880
O53   O     O_R   0.080487 0.063600 0.424461 -0.318742
O54   O     O_R   0.117965 0.049682 0.337002 -0.278907
N4    N     N_R   0.955736 0.105320 0.401667 0.150862
O55   O     O_R   0.936361 0.080465 0.424663 -0.318947
O56   O     O_R   0.950184 0.117967 0.337181 -0.278921
N5    N     N_R   0.105322 0.955804 0.598473 0.150876
O57   O     O_R   0.080485 0.936395 0.575519 -0.318774
O58   O     O_R   0.117959 0.950309 0.662990 -0.278904
N6    N     N_R   0.955757 0.894681 0.598374 0.150865
O59   O     O_R   0.936369 0.919527 0.575383 -0.318916
O60   O     O_R   0.950223 0.882040 0.662872 -0.278904
N7    N     N_R   0.894676 0.044160 0.598541 0.150884
O61   O     O_R   0.919502 0.063589 0.575608 -0.318696
O62   O     O_R   0.882045 0.049623 0.663076 -0.278886
N8    N     N_R   0.044256 0.105323 0.598349 0.150870
O63   O     O_R   0.063632 0.080467 0.575365 -0.318901
O64   O     O_R   0.049804 0.117974 0.662834 -0.278926
N9    N     N_R   0.394676 0.455788 0.901559 0.150875
O65   O     O_R   0.419521 0.436390 0.924513 -0.318787
O66   O     O_R   0.382033 0.450279 0.837052 -0.278923
N10   N     N_R   0.544258 0.394683 0.901655 0.150859
O67   O     O_R   0.563640 0.419531 0.924659 -0.318963
O68   O     O_R   0.549804 0.382041 0.837162 -0.278911
N11   N     N_R   0.605324 0.544139 0.901418 0.150886
O69   O     O_R   0.580506 0.563580 0.924344 -0.318667
O70   O     O_R   0.617949 0.549584 0.836871 -0.278871
N12   N     N_R   0.455748 0.605326 0.901642 0.150874
O71   O     O_R   0.436372 0.580467 0.924616 -0.318872
O72   O     O_R   0.450204 0.617979 0.837158 -0.278928
N13   N     N_R   0.605322 0.455859 0.098580 0.150884
O73   O     O_R   0.580505 0.436418 0.075648 -0.318682
O74   O     O_R   0.617945 0.450413 0.163128 -0.278870
N14   N     N_R   0.455759 0.394674 0.098377 0.150875
O75   O     O_R   0.436376 0.419528 0.075405 -0.318857
O76   O     O_R   0.450224 0.382025 0.162867 -0.278920
N15   N     N_R   0.394674 0.544212 0.098442 0.150878
O77   O     O_R   0.419522 0.563608 0.075494 -0.318775
O78   O     O_R   0.382028 0.549722 0.162945 -0.278926
N16   N     N_R   0.544268 0.605317 0.098326 0.150858
O79   O     O_R   0.563643 0.580466 0.075320 -0.318977
O80   O     O_R   0.549821 0.617962 0.162815 -0.278918
N17   N     N_R   0.714743 0.063571 0.484746 0.143181
O81   O     O_R   0.688430 0.065955 0.441543 -0.294271
O82   O     O_R   0.727968 0.091505 0.511295 -0.275187
N18   N     N_R   0.936466 0.714747 0.484055 0.143197
O83   O     O_R   0.934191 0.688429 0.440840 -0.294320
O84   O     O_R   0.908466 0.727978 0.510269 -0.275197
N19   N     N_R   0.285252 0.936454 0.484266 0.143178
O85   O     O_R   0.311563 0.934145 0.441042 -0.294295
O86   O     O_R   0.272025 0.908474 0.510591 -0.275194
N20   N     N_R   0.063510 0.285249 0.483630 0.143235
O87   O     O_R   0.065719 0.311580 0.440433 -0.294367
O88   O     O_R   0.091552 0.272005 0.509613 -0.275206
N21   N     N_R   0.285253 0.063545 0.515756 0.143188
O89   O     O_R   0.311569 0.065851 0.558967 -0.294302
O90   O     O_R   0.272021 0.091528 0.489453 -0.275195
N22   N     N_R   0.063532 0.714749 0.515967 0.143205
O91   O     O_R   0.065805 0.688427 0.559172 -0.294328
O92   O     O_R   0.091535 0.727985 0.489774 -0.275199
N23   N     N_R   0.714742 0.936428 0.515259 0.143188
O93   O     O_R   0.688426 0.934047 0.558451 -0.294276
O94   O     O_R   0.727972 0.908492 0.488731 -0.275187
N24   N     N_R   0.936488 0.285250 0.516363 0.143235
O95   O     O_R   0.934279 0.311580 0.559560 -0.294363
O96   O     O_R   0.908446 0.272006 0.490378 -0.275203
N25   N     N_R   0.214751 0.563521 0.983791 0.143223
O97   O     O_R   0.188424 0.565756 0.940591 -0.294346
O98   O     O_R   0.227992 0.591549 0.009855 -0.275202
N26   N     N_R   0.436479 0.214750 0.983840 0.143220
O99   O     O_R   0.434235 0.188423 0.940640 -0.294347
O100  O     O_R   0.408458 0.227989 0.009937 -0.275202
N27   N     N_R   0.785259 0.436408 0.985190 0.143125
O101  O     O_R   0.811554 0.433953 0.941957 -0.294218
O102  O     O_R   0.772050 0.408519 0.011992 -0.275179
N28   N     N_R   0.563514 0.785250 0.983672 0.143233
O103  O     O_R   0.565727 0.811580 0.940473 -0.294358
O104  O     O_R   0.591554 0.772008 0.009670 -0.275204
N29   N     N_R   0.785259 0.563593 0.014837 0.143139
O105  O     O_R   0.811561 0.566043 0.058051 -0.294227
O106  O     O_R   0.772043 0.591485 0.988068 -0.275180
N30   N     N_R   0.563524 0.214749 0.016123 0.143211
O107  O     O_R   0.565770 0.188427 0.059335 -0.294335
O108  O     O_R   0.591543 0.227983 0.990005 -0.275201
N31   N     N_R   0.214751 0.436479 0.016199 0.143221
O109  O     O_R   0.188425 0.434244 0.059402 -0.294345
O110  O     O_R   0.227991 0.408452 0.990132 -0.275202
N32   N     N_R   0.436490 0.785249 0.016355 0.143233
O111  O     O_R   0.434276 0.811579 0.059552 -0.294365
O112  O     O_R   0.408450 0.772006 0.990358 -0.275204
N33   N     N_R   0.604737 0.964863 0.386468 0.148638
O113  O     O_R   0.617945 0.937288 0.358235 -0.255661
O114  O     O_R   0.578753 0.979141 0.354167 -0.359347
N34   N     N_R   0.035382 0.604744 0.386820 0.148729
O115  O     O_R   0.063042 0.617931 0.358922 -0.255681
O116  O     O_R   0.021153 0.578788 0.354314 -0.358868
N35   N     N_R   0.395257 0.035331 0.386746 0.148712
O117  O     O_R   0.382067 0.062974 0.358781 -0.255659
O118  O     O_R   0.421218 0.021091 0.354281 -0.359042
N36   N     N_R   0.964504 0.395255 0.386978 0.148781
O119  O     O_R   0.936808 0.382077 0.359224 -0.255682
O120  O     O_R   0.978711 0.421198 0.354384 -0.358708
N37   N     N_R   0.395260 0.964668 0.613254 0.148710
O121  O     O_R   0.382071 0.937024 0.641217 -0.255660
O122  O     O_R   0.421220 0.978909 0.645721 -0.359041
N38   N     N_R   0.964618 0.604741 0.613184 0.148734
O123  O     O_R   0.936959 0.617927 0.641084 -0.255652
O124  O     O_R   0.978849 0.578785 0.645689 -0.358896
N39   N     N_R   0.604738 0.035138 0.613526 0.148636
O125  O     O_R   0.617944 0.062715 0.641752 -0.255653
O126  O     O_R   0.578756 0.020858 0.645835 -0.359343
N40   N     N_R   0.035495 0.395253 0.613020 0.148776
O127  O     O_R   0.063190 0.382074 0.640775 -0.255711
O128  O     O_R   0.021289 0.421197 0.645614 -0.358683
N41   N     N_R   0.104744 0.464540 0.886926 0.148762
O129  O     O_R   0.117925 0.436856 0.859127 -0.255695
O130  O     O_R   0.078798 0.478755 0.854360 -0.358824
N42   N     N_R   0.535434 0.104741 0.886887 0.148753
O131  O     O_R   0.563110 0.117923 0.859053 -0.255674
O132  O     O_R   0.521213 0.078791 0.854342 -0.358800
N43   N     N_R   0.895266 0.535040 0.886337 0.148594
O133  O     O_R   0.882053 0.562588 0.857995 -0.255611
O134  O     O_R   0.921257 0.520742 0.854102 -0.359499
N44   N     N_R   0.464512 0.895252 0.886971 0.148776
O135  O     O_R   0.436821 0.882071 0.859206 -0.255700
O136  O     O_R   0.478720 0.921197 0.854382 -0.358689
N45   N     N_R   0.895268 0.464958 0.113663 0.148591
O137  O     O_R   0.882057 0.437409 0.142001 -0.255613
O138  O     O_R   0.921259 0.479257 0.145899 -0.359493
N46   N     N_R   0.464567 0.104746 0.113106 0.148753
O139  O     O_R   0.436892 0.117931 0.140940 -0.255686
O140  O     O_R   0.478786 0.078796 0.145652 -0.358780
N47   N     N_R   0.104746 0.535460 0.113072 0.148764
O141  O     O_R   0.117927 0.563144 0.140872 -0.255688
O142  O     O_R   0.078799 0.521245 0.145639 -0.358828
N48   N     N_R   0.535488 0.895257 0.113036 0.148776
O143  O     O_R   0.563181 0.882079 0.140801 -0.255691
O144  O     O_R   0.521278 0.921201 0.145624 -0.358710

loop_
_geom_bond_atom_site_label_1
_geom_bond_atom_site_label_2
_geom_bond_distance
_ccdc_geom_bond_type
C124  C140  1.400512 A    
N25   O97   1.301387 A    
C73   C113  1.398122 A    
C74   H18   1.083632 S    
O25   C13   1.290109 A    
N3    O53   1.300838 A    
C87   C103  1.400745 A    
C76   C116  1.398060 A    
C125  H37   1.083682 S    
N7    O62   1.301369 A    
N17   O81   1.301386 A    
O42   C174  1.290704 A    
C14   C22   1.423876 S    
C99   C111  1.419417 A    
N46   O139  1.301427 A    
C143  C153  1.418445 A    
C111  C167  1.478572 S    
O18   Cu2   1.954437 S    
N43   O134  1.300712 A    
C29   C67   1.420625 A    
C27   N3    1.438521 S    
N30   O107  1.301389 A    
C25   N1    1.438515 S    
C147  C159  1.418430 A    
C127  C143  1.400509 A    
N45   O138  1.300710 A    
C127  C161  1.397705 A    
N14   O75   1.300832 A    
Cu1   Cu3   2.672750 S    
Cu2   Cu4   2.672791 S    
C26   C66   1.420615 A    
C83   C99   1.400685 A    
C93   N21   1.439698 S    
C88   H32   1.083629 S    
C72   C175  1.476534 S    
C73   H17   1.083624 S    
C67   C170  1.476565 S    
C32   N8    1.438534 S    
C82   H26   1.083629 S    
O47   C175  1.290684 A    
C1    C153  1.471822 S    
C142  N38   1.438560 S    
C32   C68   1.420630 A    
N44   O136  1.300746 A    
C42   H2    1.083699 S    
C10   C18   1.423876 S    
C86   H30   1.083629 S    
C38   N14   1.438532 S    
C131  C167  1.397723 A    
C96   N24   1.439716 S    
N16   O79   1.300830 A    
C44   H4    1.083699 S    
C51   H11   1.083702 S    
O35   Cu9   1.961715 S    
O17   C9    1.290112 A    
N20   O87   1.301390 A    
N36   O120  1.300744 A    
C96   C108  1.419461 A    
O40   C170  1.290704 A    
N34   O116  1.300735 A    
C152  C160  1.418460 A    
C130  C146  1.400503 A    
C145  N41   1.438554 S    
N7    O61   1.300836 A    
C140  C156  1.418458 A    
N8    O63   1.300829 A    
C81   H25   1.083629 S    
C134  C150  1.400508 A    
C110  C166  1.478529 S    
C84   H28   1.083627 S    
C47   H7    1.083694 S    
C85   H29   1.083636 S    
N42   O132  1.300740 A    
O26   Cu6   1.954437 S    
N33   O113  1.301438 A    
C89   C105  1.419430 A    
N35   O117  1.301428 A    
C126  H38   1.083676 S    
O8    Cu2   1.959584 S    
C126  C142  1.400499 A    
C123  C163  1.397718 A    
N6    O59   1.300837 A    
O41   Cu11  1.961719 S    
O31   C15   1.290105 A    
C104  C112  1.419458 A    
O48   C174  1.290704 A    
N38   O124  1.300735 A    
N18   O83   1.301384 A    
C27   C67   1.420631 A    
N31   O109  1.301388 A    
N37   O121  1.301426 A    
C123  C139  1.400509 A    
C34   C50   1.400471 A    
C26   N2    1.438527 S    
C121  C137  1.400513 A    
C132  C148  1.400509 A    
N41   O129  1.301419 A    
O9    C5    1.293865 A    
C130  C166  1.397700 A    
C38   C54   1.400472 A    
O11   C7    1.293817 A    
N22   O91   1.301389 A    
O34   Cu9   1.961746 S    
C71   C174  1.476561 S    
O16   Cu6   1.959584 S    
C47   C57   1.397403 A    
C33   C49   1.400481 A    
C124  H36   1.083672 S    
N1    O50   1.301368 A    
N13   O73   1.300843 A    
C37   N13   1.438509 S    
C128  C144  1.400512 A    
O46   Cu12  1.961750 S    
N32   O111  1.301389 A    
C6    C158  1.471904 S    
C35   N11   1.438507 S    
N2    O52   1.301370 A    
C75   C115  1.398092 A    
O48   Cu12  1.961745 S    
C60   C116  1.474559 S    
C135  H47   1.083678 S    
C101  N29   1.439664 S    
O34   C170  1.290708 A    
C148  C160  1.418458 A    
Cu5   Cu7   2.672750 S    
N23   O93   1.301389 A    
C145  C157  1.418459 A    
C102  C110  1.419450 A    
O21   Cu1   1.954439 S    
C55   C61   1.397346 A    
O23   C11   1.290112 A    
C127  H39   1.083673 S    
N3    O54   1.301368 A    
C132  C168  1.397700 A    
C79   H23   1.083625 S    
C138  C154  1.418448 A    
C146  N42   1.438557 S    
C125  C163  1.397713 A    
N39   O125  1.301435 A    
N10   O67   1.300835 A    
O13   C7    1.293818 A    
C13   C21   1.423881 S    
O19   C9    1.290109 A    
C141  N37   1.438561 S    
O2    Cu2   1.959579 S    
C52   H12   1.083698 S    
O7    C1    1.293836 A    
C122  C162  1.397706 A    
C75   H19   1.083632 S    
O26   C14   1.290118 A    
O29   C15   1.290116 A    
O30   C16   1.290125 A    
C37   C71   1.420596 A    
C11   C19   1.423881 S    
C103  C109  1.419465 A    
O29   Cu5   1.954439 S    
C74   C90   1.400720 A    
C39   C69   1.420645 A    
C44   C60   1.397344 A    
C80   C116  1.398059 A    
O33   Cu9   1.961719 S    
N5    O58   1.301369 A    
C124  C164  1.397696 A    
N26   O99   1.301386 A    
C48   H8    1.083696 S    
O19   Cu3   1.954437 S    
C146  C158  1.418456 A    
N9    O66   1.301368 A    
C9    C17   1.423881 S    
O44   Cu11  1.961749 S    
C73   C89   1.400711 A    
C43   C59   1.397375 A    
N15   O78   1.301371 A    
C40   C72   1.420622 A    
C40   N16   1.438530 S    
O15   Cu7   1.959609 S    
C142  C154  1.418446 A    
C122  H34   1.083676 S    
C59   C115  1.474633 S    
C30   C66   1.420612 A    
C83   H27   1.083638 S    
C57   C113  1.474711 S    
C88   C104  1.400735 A    
C87   C117  1.398063 A    
O45   C173  1.290702 A    
C149  N45   1.438575 S    
O3    C3    1.293849 A    
C61   C117  1.474574 S    
C49   C61   1.397347 A    
O32   Cu6   1.954440 S    
C91   C107  1.419447 A    
C93   C107  1.419452 A    
C51   C63   1.397426 A    
C39   N15   1.438529 S    
C46   H6    1.083699 S    
C29   C45   1.400470 A    
O18   C10   1.290129 A    
C137  N33   1.438586 S    
N40   O127  1.301421 A    
C91   N19   1.439690 S    
C31   C65   1.420613 A    
O23   Cu3   1.954439 S    
N35   O118  1.300734 A    
C133  C167  1.397720 A    
C69   C176  1.476577 S    
C125  C141  1.400505 A    
C136  H48   1.083674 S    
O12   C8    1.293873 A    
O39   C171  1.290697 A    
O6    Cu4   1.959580 S    
O14   C6    1.293868 A    
N46   O140  1.300739 A    
C52   C64   1.397346 A    
C65   C172  1.476569 S    
C108  C164  1.478526 S    
C95   N23   1.439692 S    
C134  H46   1.083673 S    
C33   C69   1.420643 A    
C128  H40   1.083672 S    
N30   O108  1.301431 A    
C35   C71   1.420596 A    
C112  C168  1.478526 S    
C7    C159  1.471747 S    
C90   C106  1.419442 A    
C148  N44   1.438560 S    
C77   C115  1.398094 A    
O36   C172  1.290702 A    
O30   Cu8   1.954439 S    
N14   O76   1.301373 A    
N24   O95   1.301384 A    
C49   H9    1.083698 S    
Cu11  Cu12  2.663896 S    
C79   C95   1.400719 A    
C29   N5    1.438522 S    
C53   C63   1.397430 A    
C79   C113  1.398120 A    
C53   H13   1.083698 S    
N29   O106  1.301453 A    
C30   C46   1.400467 A    
O40   Cu10  1.961745 S    
C102  N30   1.439702 S    
O5    Cu1   1.959613 S    
O36   Cu9   1.961749 S    
N47   O142  1.300745 A    
O10   C6    1.293869 A    
C27   C43   1.400470 A    
C89   N17   1.439689 S    
O39   Cu10  1.961715 S    
N16   O80   1.301372 A    
C132  H44   1.083673 S    
C50   C62   1.397360 A    
C31   N7    1.438516 S    
C83   C119  1.398142 A    
C15   C23   1.423881 S    
N4    O55   1.300832 A    
C68   C171  1.476534 S    
N20   O88   1.301422 A    
C16   C24   1.423876 S    
O2    C2    1.293863 A    
N48   O143  1.301417 A    
C137  C153  1.418452 A    
C86   C118  1.398069 A    
C144  N40   1.438555 S    
O46   C176  1.290708 A    
C150  N46   1.438562 S    
N28   O103  1.301391 A    
O22   Cu4   1.954439 S    
C80   H24   1.083629 S    
O31   Cu7   1.954439 S    
N8    O64   1.301372 A    
N27   O101  1.301381 A    
C78   C94   1.400725 A    
O35   C171  1.290689 A    
C94   C106  1.419447 A    
C25   C65   1.420610 A    
N21   O90   1.301438 A    
C33   N9    1.438527 S    
C78   C114  1.398080 A    
C92   C108  1.419461 A    
C135  C151  1.400518 A    
C2    C154  1.471881 S    
N11   O69   1.300847 A    
N25   O98   1.301425 A    
C43   H3    1.083697 S    
O21   C11   1.290109 A    
O22   C12   1.290115 A    
N6    O60   1.301371 A    
O13   Cu5   1.959613 S    
N17   O82   1.301426 A    
C70   C173  1.476531 S    
C151  N47   1.438555 S    
C28   C44   1.400474 A    
C45   C59   1.397373 A    
N38   O123  1.301428 A    
C50   H10   1.083700 S    
N18   O84   1.301434 A    
C66   C169  1.476523 S    
O3    Cu3   1.959613 S    
C88   C120  1.398061 A    
C54   H14   1.083699 S    
C20   C21   1.199074 T    
C143  N39   1.438582 S    
C76   C92   1.400739 A    
C39   C55   1.400481 A    
N1    O49   1.300838 A    
O28   Cu8   1.954438 S    
C77   C93   1.400722 A    
C56   H16   1.083697 S    
C126  C162  1.397705 A    
C129  C145  1.400513 A    
N19   O85   1.301387 A    
C139  N35   1.438562 S    
C105  C161  1.478541 S    
C28   C68   1.420625 A    
C150  C158  1.418452 A    
C138  N34   1.438558 S    
C133  C149  1.400492 A    
C97   C109  1.419468 A    
C109  C165  1.478552 S    
C31   C47   1.400455 A    
C95   C105  1.419442 A    
N44   O135  1.301422 A    
C36   C72   1.420630 A    
O9    Cu5   1.959610 S    
N32   O112  1.301425 A    
C38   C70   1.420623 A    
O11   Cu7   1.959613 S    
C4    C156  1.471935 S    
C144  C156  1.418460 A    
O1    C1    1.293834 A    
C63   C119  1.474746 S    
N23   O94   1.301445 A    
C87   H31   1.083634 S    
N36   O119  1.301422 A    
O5    C3    1.293851 A    
O44   C176  1.290707 A    
C58   C114  1.474606 S    
C151  C157  1.418458 A    
C122  C138  1.400504 A    
C64   C120  1.474559 S    
O7    Cu3   1.959609 S    
N15   O77   1.300830 A    
C99   N27   1.439657 S    
C128  C164  1.397698 A    
C62   C118  1.474582 S    
O41   C173  1.290684 A    
O38   Cu10  1.961750 S    
C12   C20   1.423876 S    
C129  C165  1.397709 A    
C37   C53   1.400448 A    
N10   O68   1.301371 A    
O17   Cu1   1.954437 S    
C34   N10   1.438527 S    
C36   N12   1.438535 S    
N42   O131  1.301425 A    
C101  C111  1.419417 A    
C41   C57   1.397401 A    
N43   O133  1.301445 A    
N33   O114  1.300716 A    
C30   N6    1.438523 S    
C152  N48   1.438557 S    
C98   N26   1.439708 S    
O42   Cu11  1.961746 S    
O14   Cu8   1.959580 S    
C82   C98   1.400730 A    
O25   Cu5   1.954437 S    
C54   C62   1.397355 A    
N5    O57   1.300839 A    
C85   C119  1.398140 A    
C100  N28   1.439713 S    
N34   O115  1.301431 A    
C136  C152  1.400507 A    
N26   O100  1.301428 A    
N45   O137  1.301446 A    
C86   C102  1.400729 A    
N39   O126  1.300717 A    
N9    O65   1.300831 A    
C131  C147  1.400497 A    
N37   O122  1.300734 A    
C149  C159  1.418425 A    
O8    C4    1.293877 A    
C41   H1    1.083692 S    
O4    Cu4   1.959583 S    
C140  N36   1.438556 S    
N41   O130  1.300743 A    
C139  C155  1.418448 A    
C141  C155  1.418446 A    
C26   C42   1.400468 A    
C78   H22   1.083634 S    
C107  C163  1.478560 S    
O43   Cu11  1.961715 S    
C133  H45   1.083685 S    
O32   C16   1.290117 A    
C25   C41   1.400459 A    
N13   O74   1.301369 A    
C106  C162  1.478533 S    
N12   O72   1.301371 A    
O45   Cu12  1.961719 S    
C130  H42   1.083676 S    
C121  C161  1.397710 A    
C40   C56   1.400474 A    
C81   C97   1.400745 A    
O16   C8    1.293879 A    
C85   C101  1.400697 A    
N27   O102  1.301463 A    
C82   C118  1.398075 A    
N22   O92   1.301434 A    
C32   C48   1.400475 A    
N40   O128  1.300744 A    
N31   O110  1.301429 A    
C104  N32   1.439716 S    
O6    C2    1.293862 A    
Cu6   Cu8   2.672791 S    
N11   O70   1.301369 A    
O27   Cu7   1.954437 S    
C76   H20   1.083627 S    
C94   N22   1.439697 S    
C97   N25   1.439719 S    
C77   H21   1.083630 S    
C42   C58   1.397367 A    
N47   O141  1.301417 A    
C5    C157  1.471943 S    
C80   C96   1.400739 A    
C90   N18   1.439694 S    
Cu9   Cu10  2.663896 S    
O37   C169  1.290689 A    
C28   N4    1.438531 S    
C3    C155  1.471876 S    
C48   C60   1.397345 A    
C123  H35   1.083681 S    
N12   O71   1.300829 A    
C100  C112  1.419460 A    
C121  H33   1.083677 S    
C103  N31   1.439716 S    
O24   C12   1.290128 A    
O28   C14   1.290124 A    
O24   Cu2   1.954440 S    
O12   Cu8   1.959583 S    
C36   C52   1.400475 A    
C81   C117  1.398066 A    
N19   O86   1.301444 A    
N24   O96   1.301425 A    
C84   C120  1.398064 A    
C8    C160  1.471931 S    
C134  C166  1.397703 A    
C45   H5    1.083700 S    
C17   C24   1.199074 T    
N29   O105  1.301385 A    
C18   C23   1.199074 T    
C19   C22   1.199074 T    
C92   N20   1.439716 S    
C56   C64   1.397347 A    
C147  N43   1.438579 S    
C74   C114  1.398082 A    
O4    C4    1.293879 A    
C35   C51   1.400449 A    
O38   C172  1.290709 A    
O33   C169  1.290697 A    
C131  H43   1.083686 S    
C46   C58   1.397368 A    
N2    O51   1.300836 A    
C135  C165  1.397706 A    
C129  H41   1.083677 S    
C55   H15   1.083700 S    
N4    O56   1.301373 A    
O20   Cu4   1.954438 S    
O47   Cu12  1.961715 S    
C34   C70   1.420613 A    
N48   O144  1.300747 A    
O20   C10   1.290114 A    
O10   Cu6   1.959579 S    
N28   O104  1.301424 A    
O37   Cu10  1.961719 S    
O15   C5    1.293866 A    
O43   C175  1.290702 A    
C84   C100  1.400739 A    
C75   C91   1.400723 A    
C136  C168  1.397698 A    
N21   O89   1.301386 A    
O1    Cu1   1.959610 S    
C98   C110  1.419449 A    
O27   C13   1.290112 A    
