data_mof_unit_42669.cif
_audit_creation_date              2012-12-10T16:48:08-0500
_audit_creation_method            fapswitch 2.2
_symmetry_space_group_name_H-M    P1
_symmetry_Int_Tables_number       1
_space_group_crystal_system       triclinic
_cell_length_a                    15.862924
_cell_length_b                    8.799284
_cell_length_c                    7.513138
_cell_angle_alpha                 103.370004
_cell_angle_beta                  94.388566
_cell_angle_gamma                 93.785846
_cell_volume                      1013.49140263

loop_
_atom_site_label
_atom_site_type_symbol
_atom_type_description
_atom_site_fract_x
_atom_site_fract_y
_atom_site_fract_z
_atom_type_partial_charge
C1    C     C_R   0.498956 0.200409 0.453266 0.778238
C2    C     C_R   0.501043 0.799591 0.546734 0.778238
C3    C     C_R   0.340230 0.499409 0.501645 0.795110
C4    C     C_R   0.659770 0.500591 0.498354 0.795110
C5    C     C_2   0.504262 0.033298 0.428016 0.204510
C6    C     C_2   0.495738 0.966702 0.571984 0.204511
C7    C     C_3   0.970246 0.397840 0.590041 0.257394
C8    C     C_3   0.029754 0.602159 0.409959 0.257393
C9    C     C_3   0.019371 0.354439 0.418362 0.244672
C10   C     C_3   0.980629 0.645561 0.581638 0.244670
C11   C     C_1   0.250955 0.499055 0.505046 -0.061407
C12   C     C_1   0.749045 0.500945 0.494954 -0.061407
C13   C     C_3   0.034569 0.539520 0.672838 0.251204
C14   C     C_3   0.965431 0.460480 0.327162 0.251205
C15   C     C_3   0.084078 0.497756 0.502161 -0.139233
C16   C     C_3   0.915922 0.502244 0.497839 -0.139233
C17   C     C_1   0.175564 0.498482 0.504978 0.222600
C18   C     C_1   0.824436 0.501518 0.495022 0.222600
Cu1   Cu    Cu3+1 0.509330 0.517380 0.684380 1.154733
Cu2   Cu    Cu3+1 0.490670 0.482620 0.315620 1.154733
N1    N     N_2   0.476600 0.456420 0.038510 0.121330
N2    N     N_2   0.523400 0.543580 0.961490 0.121330
O1    O     O_R   0.506070 0.286130 0.619780 -0.508876
O2    O     O_R   0.493930 0.713870 0.380220 -0.508876
O3    O     O_R   0.490300 0.256770 0.308360 -0.589185
O4    O     O_R   0.509700 0.743230 0.691640 -0.589185
O5    O     O_R   0.386960 0.514660 0.655680 -0.545834
O6    O     O_R   0.613040 0.485340 0.344320 -0.545834
O7    O     O_R   0.371190 0.485310 0.344260 -0.550527
O8    O     O_R   0.628810 0.514690 0.655740 -0.550526
Cl1   Cl    Cl    0.043977 0.162000 0.311049 -0.441425
Cl2   Cl    Cl    0.956023 0.838000 0.688951 -0.441426
O9    O     O_3   0.937796 0.292186 0.686080 -0.617558
H1    H     H_    0.987458 0.241449 0.726067 0.385477
O10   O     O_3   0.062204 0.707814 0.313920 -0.617559
H2    H     H_    0.012542 0.758551 0.273933 0.385477
O11   O     O_3   0.927988 0.421547 0.146203 -0.629097
H3    H     H_    0.974791 0.389724 0.069350 0.374497
O12   O     O_3   0.072012 0.578453 0.853797 -0.629099
H4    H     H_    0.025210 0.610280 0.930649 0.374497
O13   O     O_3   0.519663 0.944195 0.257451 -0.681440
H5    H     H_    0.533779 0.012691 0.174426 0.359105
O14   O     O_3   0.480337 0.055805 0.742548 -0.681440
H6    H     H_    0.466221 0.987309 0.825574 0.359104
Cl3   Cl    Cl    0.390478 0.339322 0.914182 -0.384285
Cl4   Cl    Cl    0.609522 0.660678 0.085818 -0.384285

loop_
_geom_bond_atom_site_label_1
_geom_bond_atom_site_label_2
_ccdc_geom_bond_type
Cu1   O1    S    
C9    C14   S    
C15   C17   S    
O11   H3    S    
C10   Cl2   S    
C4    C12   S    
Cu1   O5    S    
O13   H5    S    
O10   H2    S    
Cu2   O7    S    
Cu1   Cu2   S    
C3    O5    A    
O9    H1    S    
C9    C15   S    
C2    O4    A    
C10   C16   S    
N1    N2    D    
C14   O11   S    
C1    O3    A    
C7    O9    S    
C2    C6    S    
C1    C5    S    
C8    C10   S    
C7    C16   S    
N2    Cl4   S    
C1    O1    A    
C8    C15   S    
N1    Cl3   S    
C6    O14   S    
C13   C15   S    
O14   H6    S    
C2    O2    A    
C5    C6    D    
C14   C16   S    
C13   O12   S    
C3    C11   S    
Cu2   O3    S    
C9    Cl1   S    
C7    C9    S    
C7    C13   S    
Cu1   N2    S    
Cu2   N1    S    
C16   C18   S    
C12   C18   T    
O12   H4    S    
C3    O7    A    
Cu1   O4    S    
C5    O13   S    
C11   C17   T    
C8    C14   S    
Cu2   O6    S    
C4    O6    A    
Cu1   O8    S    
C10   C13   S    
C4    O8    A    
Cu2   O2    S    
C8    O10   S    
