data_mof_unit_50207.cif
_audit_creation_date              2013-03-05T15:52:43-0500
_audit_creation_method            fapswitch 2.2
_symmetry_space_group_name_H-M    P1
_symmetry_Int_Tables_number       1
_space_group_crystal_system       triclinic
_cell_length_a                    10.733526
_cell_length_b                    10.766124
_cell_length_c                    16.988796
_cell_angle_alpha                 99.455617
_cell_angle_beta                  99.754214
_cell_angle_gamma                 61.463888
_cell_volume                      1691.87508802

loop_
_atom_site_label
_atom_site_type_symbol
_atom_site_description
_atom_site_fract_x
_atom_site_fract_y
_atom_site_fract_z
_atom_type_partial_charge
O1    O     O_R   0.749250 0.499990 0.439200 -0.502859
O2    O     O_R   0.477870 0.725740 0.440280 -0.521398
C1    C     C_R   0.354775 0.775572 0.401401 0.566812
O3    O     O_R   0.260770 0.742210 0.412610 -0.452750
O4    O     O_R   0.297990 0.466320 0.394220 -0.492785
C2    C     C_R   0.369425 0.346564 0.357243 0.564967
O5    O     O_R   0.487720 0.253870 0.385870 -0.508528
O6    O     O_R   0.721940 0.304340 0.422320 -0.494401
C3    C     C_R   0.775400 0.377423 0.404427 0.561815
O7    O     O_R   0.750770 0.502570 0.614050 -0.485282
O8    O     O_R   0.479280 0.728140 0.602370 -0.486733
C4    C     C_R   0.381162 0.714981 0.631594 0.548935
O9    O     O_R   0.262290 0.744790 0.587460 -0.483685
O10   O     O_R   0.299400 0.468710 0.556310 -0.490938
C5    C     C_R   0.370544 0.347259 0.583274 0.538187
O11   O     O_R   0.489240 0.256450 0.560730 -0.503336
O12   O     O_R   0.723350 0.306730 0.584410 -0.503773
C6    C     C_R   0.773353 0.380955 0.629595 0.542580
Cr1   Cr    Cr6+3 0.608020 0.610770 0.522990 1.070383
Cr2   Cr    Cr6+3 0.289390 0.599570 0.488050 1.090475
Cr3   Cr    Cr6+3 0.602610 0.289690 0.489020 1.059493
O13   O     O_3   0.500010 0.500010 0.500020 -0.296766
C7    C     C_1   0.342966 0.336607 0.273832 0.003072
C8    C     C_1   0.332023 0.326449 0.202902 0.005280
C9    C     C_2   0.843572 0.331137 0.331010 -0.019295
C10   C     C_2   0.813036 0.335525 0.153872 0.207043
C11   C     C_2   0.846794 0.223342 0.193907 -0.112538
C12   C     C_2   0.816299 0.239998 0.276075 -0.044203
H1    H     H_    0.913087 0.115151 0.169828 0.175597
H2    H     H_    0.767407 0.179369 0.290172 0.169862
H3    H     H_    0.895392 0.388382 0.315921 0.135436
C13   C     C_2   0.330253 0.856707 0.334262 0.196930
C14   C     C_2   0.344686 0.823930 0.158095 -0.007690
C15   C     C_2   0.429216 0.858853 0.214556 -0.048390
C16   C     C_2   0.444310 0.827221 0.296855 -0.120580
H4    H     H_    0.483118 0.915577 0.201670 0.162535
H5    H     H_    0.552457 0.761713 0.322359 0.168048
H6    H     H_    0.293099 0.765912 0.172505 0.140236
C17   C     C_2   0.350712 0.333021 0.662306 -0.072351
C18   C     C_2   0.332215 0.362665 0.835429 0.176303
C19   C     C_2   0.456738 0.298618 0.802821 0.158343
C20   C     C_2   0.458538 0.318570 0.720129 -0.093643
H7    H     H_    0.556079 0.312656 0.705449 0.151399
H8    H     H_    0.252281 0.336665 0.673225 0.131786
C21   C     C_1   0.817443 0.342081 0.708709 -0.011815
C22   C     C_1   0.844005 0.313778 0.776471 0.011962
C23   C     C_1   0.358235 0.765757 0.713559 0.010403
C24   C     C_1   0.325208 0.813204 0.780283 0.038830
O14   O     O_R   0.170650 0.915100 0.051290 -0.499213
O15   O     O_R   0.941960 0.184500 0.049060 -0.510306
C25   C     C_R   0.891536 0.308866 0.085674 0.571715
O16   O     O_R   0.922640 0.402670 0.071640 -0.461245
O17   O     O_R   0.196880 0.368740 0.083740 -0.497958
C26   C     C_R   0.319235 0.299578 0.119622 0.563884
O18   O     O_R   0.411120 0.181190 0.091480 -0.501241
O19   O     O_R   0.364220 0.944920 0.062310 -0.498222
C27   C     C_R   0.294264 0.891178 0.083905 0.558544
O20   O     O_R   0.158740 0.906940 0.874970 -0.452459
O21   O     O_R   0.930920 0.176940 0.885610 -0.445817
C28   C     C_R   0.885272 0.297197 0.858736 0.587305
O22   O     O_R   0.910730 0.394510 0.895320 -0.488232
O23   O     O_R   0.185840 0.361180 0.920280 -0.465772
C29   C     C_R   0.307552 0.296126 0.895323 0.563729
O24   O     O_R   0.399210 0.173040 0.915160 -0.469969
O25   O     O_R   0.353170 0.937370 0.898860 -0.505620
C30   C     C_R   0.279977 0.881844 0.857045 0.567443
Cr4   Cr    Cr6+3 0.053780 0.052210 0.965970 1.140562
Cr5   Cr    Cr6+3 0.060060 0.372530 0.992430 1.119294
Cr6   Cr    Cr6+3 0.372600 0.061970 0.991430 1.097166
O26   O     O_3   0.162150 0.162240 0.983280 -0.305448
N1    N     N_R   0.215006 0.490641 0.805631 0.044033
O27   O     O_R   0.238619 0.590229 0.788271 -0.347375
O28   O     O_R   0.084928 0.507866 0.795243 -0.303016
N2    N     N_R   0.710729 0.478152 0.179851 0.056103
O29   O     O_R   0.599870 0.499264 0.212326 -0.385728
O30   O     O_R   0.717079 0.587439 0.161389 -0.328085
N3    N     N_R   0.187383 0.956741 0.305889 0.053396
O31   O     O_R   0.165817 0.068987 0.274777 -0.394098
O32   O     O_R   0.077733 0.946445 0.320542 -0.334112
N4    N     N_R   0.588619 0.204804 0.845520 0.072745
O33   O     O_R   0.617840 0.235982 0.921422 -0.323823
O34   O     O_R   0.688405 0.101255 0.806187 -0.311157

loop_
_geom_bond_atom_site_label_1
_geom_bond_atom_site_label_2
_geom_bond_distance
_ccdc_geom_bond_type
C9    H3    1.087505 S    
O11   Cr3   2.038288 S    
C18   N1    1.447283 S    
C11   H1    1.086550 S    
C19   C20   1.460272 S    
C19   N4    1.441152 S    
C3    C9    1.447780 S    
O4    Cr2   1.944105 S    
O17   C26   1.262680 A    
C9    C12   1.341822 D    
O8    Cr1   1.930826 S    
C10   C11   1.349401 D    
C18   C29   1.459638 S    
N2    O30   1.300964 A    
C16   H5    1.086452 S    
O4    C2    1.263890 A    
C8    C26   1.393536 S    
C5    O11   1.256144 A    
O14   C27   1.266918 A    
O19   C27   1.269389 A    
C15   C16   1.457417 S    
O17   Cr5   1.938126 S    
O21   Cr4   1.925233 S    
C13   N3    1.444303 S    
O20   C30   1.276880 A    
O6    C3    1.268785 A    
C7    C8    1.182722 T    
O15   Cr4   1.934406 S    
O16   Cr5   2.040487 S    
N3    O31   1.301723 A    
O21   C28   1.279495 A    
Cr3   O13   1.980688 S    
Cr6   O26   1.974934 S    
C4    C23   1.426839 S    
O15   C25   1.273051 A    
C17   C20   1.349671 D    
N3    O32   1.300920 A    
O1    Cr1   2.047613 S    
N2    O29   1.301829 A    
C25   O16   1.271393 A    
C13   C16   1.352555 D    
O10   Cr2   1.921245 S    
Cr1   O13   1.983157 S    
O1    C3    1.270907 A    
N4    O34   1.301329 A    
N1    O28   1.301836 A    
O5    Cr3   2.059225 S    
O12   Cr3   1.938357 S    
C28   O22   1.249250 A    
O23   C29   1.262101 A    
C23   C24   1.201858 T    
O7    Cr1   2.044868 S    
O12   C6    1.258778 A    
O24   Cr6   2.037460 S    
C5    C17   1.437781 S    
O18   Cr6   2.063875 S    
C18   C19   1.346704 D    
Cr2   O13   1.975269 S    
O25   C30   1.264625 A    
C20   H7    1.087169 S    
C17   H8    1.084696 S    
C1    O3    1.271702 A    
C6    C21   1.409140 S    
C26   O18   1.258708 A    
C14   C27   1.449143 S    
O14   Cr4   2.042382 S    
O9    Cr2   2.060492 S    
C22   C28   1.406400 S    
O2    Cr1   1.926738 S    
N4    O33   1.301976 A    
O6    Cr3   1.921709 S    
O8    C4    1.310928 A    
C2    O5    1.258652 A    
C14   H6    1.087799 S    
O23   Cr5   1.921963 S    
Cr4   O26   1.982143 S    
C12   H2    1.086294 S    
O2    C1    1.270140 A    
N1    O27   1.299856 A    
C10   C25   1.457790 S    
O22   Cr5   2.053468 S    
O7    C6    1.277312 A    
O25   Cr6   1.944027 S    
C2    C7    1.393922 S    
C10   N2    1.445352 S    
C14   C15   1.340583 D    
C15   H4    1.086295 S    
C1    C13   1.462617 S    
C29   O24   1.275268 A    
O3    Cr2   2.039074 S    
C21   C22   1.191809 T    
O20   Cr4   2.053682 S    
C4    O9    1.287172 A    
Cr5   O26   1.980516 S    
O19   Cr6   1.920867 S    
C11   C12   1.450669 S    
O10   C5    1.275529 A    
C24   C30   1.427445 S    
