data_mof_unit_29925.cif
_audit_creation_date              2012-12-11T14:08:27-0500
_audit_creation_method            fapswitch 2.2
_symmetry_space_group_name_H-M    P1
_symmetry_Int_Tables_number       1
_space_group_crystal_system       triclinic
_cell_length_a                    10.920544
_cell_length_b                    11.026448
_cell_length_c                    18.635026
_cell_angle_alpha                 89.894433
_cell_angle_beta                  89.478449
_cell_angle_gamma                 59.855214
_cell_volume                      1940.37163375

loop_
_atom_site_label
_atom_site_type_symbol
_atom_type_description
_atom_site_fract_x
_atom_site_fract_y
_atom_site_fract_z
_atom_type_partial_charge
C1    C     C_R   0.227314 0.650323 0.605829 0.576904
C2    C     C_2   0.796308 0.106496 0.700831 -0.171893
C3    C     C_2   0.155754 0.678834 0.675620 -0.107395
C4    C     C_R   0.626791 0.588446 0.610051 0.616965
C5    C     C_2   0.176425 0.670909 0.833714 -0.087608
C6    C     C_2   0.153248 0.582201 0.794217 -0.135665
C7    C     C_2   0.164140 0.574001 0.715654 -0.177060
C8    C     C_2   0.619486 0.616456 0.311874 -0.108794
C9    C     C_2   0.628445 0.655488 0.156251 -0.113026
C10   C     C_2   0.691429 0.528291 0.188552 -0.034001
C11   C     C_2   0.661882 0.512322 0.264041 -0.172909
C12   C     C_3   0.699757 0.520747 0.813924 -0.227481
C13   C     C_2   0.635095 0.193482 0.319248 -0.104492
C14   C     C_2   0.636267 0.198419 0.164576 -0.098947
C15   C     C_2   0.522437 0.224306 0.202404 -0.163584
C16   C     C_R   0.630581 0.221417 0.600040 0.557855
C17   C     C_2   0.517653 0.250683 0.278286 -0.154911
C18   C     C_2   0.115585 0.688268 0.346260 -0.102830
C19   C     C_2   0.046161 0.723791 0.195068 -0.097437
C20   C     C_2   0.006730 0.832353 0.239963 -0.161545
C21   C     C_2   0.060861 0.812277 0.313168 -0.150826
C22   C     C_R   0.737057 0.026357 0.893293 0.590006
C23   C     C_3   0.690116 0.663695 0.817494 0.003031
C24   C     C_R   0.722005 0.686908 0.889756 0.539711
C25   C     C_R   0.116021 0.708033 0.906095 0.545973
C26   C     C_R   0.672469 0.113929 0.101159 0.567727
C27   C     C_R   0.691323 0.687073 0.094217 0.546377
C28   C     C_R   0.215946 0.652065 0.404071 0.537695
C29   C     C_R   0.023617 0.748370 0.119030 0.567602
C30   C     C_R   0.613939 0.587756 0.387401 0.568576
C31   C     C_R   0.615392 0.232255 0.393803 0.547295
C32   C     C_3   0.540376 0.780581 0.794546 -0.242290
C33   C     C_3   0.505520 0.749865 0.719389 -0.057779
C34   C     C_3   0.642521 0.619568 0.686091 0.013329
C35   C     C_3   0.804496 0.659335 0.766518 -0.251078
C36   C     C_1   0.550670 0.153025 0.708331 0.293384
C37   C     C_1   0.800998 0.402670 0.153491 0.232451
C38   C     C_2   0.435075 0.884617 0.676232 0.606231
C39   C     C_2   0.571138 0.442474 0.736865 0.502827
C40   C     C_3   0.769525 0.646888 0.689111 -0.248586
C41   C     C_3   0.679301 0.488781 0.735737 -0.081587
C42   C     C_2   0.670192 0.147147 0.669254 0.009107
C43   C     C_2   0.756521 0.017857 0.815831 -0.085199
C44   C     C_2   0.821481 0.074440 0.778843 -0.124331
Cr1   Cr    Cr6+3 0.393010 0.398050 0.501480 1.035511
Cr2   Cr    Cr6+3 0.398820 0.707980 0.501630 1.071252
Cr3   Cr    Cr6+3 0.708140 0.393940 0.496850 1.024861
Cr4   Cr    Cr6+3 0.937950 0.938450 0.008940 1.043459
Cr5   Cr    Cr6+3 0.626180 0.937030 0.994750 1.029020
Cr6   Cr    Cr6+3 0.937790 0.625760 0.001410 1.037382
H1    H     H_    0.536434 0.883468 0.795740 0.167988
H2    H     H_    0.215986 0.734137 0.809242 0.109900
H3    H     H_    0.459149 0.787670 0.833596 0.117637
H4    H     H_    0.120096 0.781275 0.699348 0.128424
H5    H     H_    0.692711 0.407604 0.282908 0.132357
H6    H     H_    0.536791 0.743999 0.180949 0.099992
H7    H     H_    0.591272 0.722166 0.296283 0.112245
H8    H     H_    0.437812 0.212109 0.179833 0.165765
H9    H     H_    0.412261 0.314435 0.301303 0.164437
H10   H     H_    0.716878 0.216403 0.187199 0.112030
H11   H     H_    0.741425 0.129653 0.297658 0.084584
H12   H     H_    0.780522 0.397758 0.716282 0.105518
H13   H     H_    0.951670 0.938896 0.219349 0.142504
H14   H     H_    0.423080 0.719737 0.726317 0.143527
H15   H     H_    0.072001 0.896829 0.335945 0.157896
H16   H     H_    0.104321 0.615545 0.212529 0.108598
H17   H     H_    0.096808 0.606275 0.327029 0.106746
H18   H     H_    0.818677 0.750865 0.772925 0.112497
H19   H     H_    0.747080 0.742618 0.658993 0.184103
H20   H     H_    0.804484 0.435191 0.832603 0.141508
H21   H     H_    0.619215 0.523959 0.852272 0.165874
H22   H     H_    0.252378 0.045053 0.638884 0.334894
H23   H     H_    0.908077 0.565742 0.779236 0.135423
H24   H     H_    0.422803 0.426280 0.686027 0.352625
H25   H     H_    0.866728 0.559264 0.664139 0.141900
H26   H     H_    0.882238 0.112647 0.806906 0.157640
H27   H     H_    0.875672 0.119083 0.671577 0.134304
H28   H     H_    0.703529 0.971870 0.788419 0.089841
H29   H     H_    0.123035 0.512819 0.820130 0.159984
H30   H     H_    0.191077 0.474141 0.691212 0.153998
N1    N     N_1   0.454312 0.160899 0.739141 -0.268431
N2    N     N_1   0.888812 0.302480 0.125543 -0.290172
O1    O     O_R   0.507110 0.256280 0.580300 -0.494161
O2    O     O_R   0.837080 0.593860 0.915300 -0.522757
O3    O     O_R   0.064770 0.636080 0.932550 -0.495724
O4    O     O_R   0.280830 0.527190 0.577940 -0.492960
O5    O     O_R   0.068250 0.829200 0.092940 -0.491763
O6    O     O_R   0.799650 0.057040 0.080330 -0.504554
O7    O     O_R   0.586130 0.079760 0.077080 -0.507970
O8    O     O_R   0.627700 0.809630 0.066580 -0.498003
O9    O     O_R   0.816140 0.597180 0.075920 -0.493106
O10   O     O_R   0.045360 0.639170 0.081440 -0.489219
O11   O     O_3   0.833980 0.833750 0.001700 -0.315235
O12   O     O_R   0.524640 0.695370 0.425100 -0.486208
O13   O     O_R   0.261360 0.738990 0.584270 -0.480916
O14   O     O_R   0.532590 0.694780 0.574370 -0.455146
O15   O     O_R   0.744470 0.503750 0.577000 -0.532422
O16   O     O_R   0.698520 0.277230 0.571620 -0.505858
O17   O     O_R   0.498530 0.256920 0.419280 -0.506752
O18   O     O_R   0.272880 0.527780 0.428680 -0.511655
O19   O     O_R   0.252780 0.739630 0.423250 -0.523227
O20   O     O_2   0.505318 0.929982 0.648045 -0.524324
O21   O     O_R   0.287907 0.956868 0.668711 -0.697773
O22   O     O_2   0.567367 0.371539 0.786566 -0.516281
O23   O     O_R   0.735890 0.504390 0.415980 -0.497074
O24   O     O_R   0.477732 0.476733 0.680905 -0.709149
O25   O     O_R   0.690560 0.277820 0.422350 -0.522321
O26   O     O_3   0.499990 0.499990 0.499980 -0.281985
O27   O     O_R   0.089190 0.825870 0.932320 -0.516826
O28   O     O_R   0.819070 0.053960 0.931440 -0.491563
O29   O     O_R   0.607070 0.076440 0.916460 -0.475078
O30   O     O_R   0.647110 0.806550 0.917690 -0.529397

loop_
_geom_bond_atom_site_label_1
_geom_bond_atom_site_label_2
_ccdc_geom_bond_type
C39   O24   S    
Cr4   O28   S    
C18   C21   D    
C36   C42   S    
C19   C20   D    
C24   O30   A    
Cr5   O8    S    
Cr6   O2    S    
C39   O22   D    
C39   C41   S    
C26   O7    A    
C12   C23   S    
Cr5   O11   S    
C12   C41   S    
Cr3   O16   S    
C27   O8    A    
C10   C37   S    
C34   C40   S    
C3    C7    D    
C8    C11   D    
C5    C6    D    
C3    H4    S    
C19   H16   S    
C44   H26   S    
Cr6   O3    S    
C4    O14   A    
C28   O19   A    
Cr2   O13   S    
C2    C44   S    
C22   O28   A    
Cr2   O26   S    
C23   C24   S    
Cr4   O6    S    
C5    H2    S    
C27   O9    A    
C31   O17   A    
C9    C10   D    
Cr1   O26   S    
C25   O27   A    
Cr5   O29   S    
C28   O18   A    
Cr4   O27   S    
C4    O15   A    
Cr1   O1    S    
C34   C41   S    
C41   H12   S    
Cr2   O19   S    
C4    C34   S    
C40   H19   S    
C18   C28   S    
Cr1   O17   S    
Cr3   O23   S    
C18   H17   S    
C16   O1    A    
C43   H28   S    
C43   C44   D    
C32   H1    S    
C38   O21   S    
C8    H7    S    
H24   O24   S    
C22   C43   S    
Cr2   O12   S    
C36   N1    T    
C1    O13   A    
C25   O3    A    
C33   C34   S    
Cr4   O5    S    
C13   H11   S    
C9    H6    S    
C14   C26   S    
C17   H9    S    
Cr5   O30   S    
C5    C25   S    
Cr6   O10   S    
C12   H21   S    
Cr3   O26   S    
Cr3   O25   S    
C30   O23   A    
C15   H8    S    
C37   N2    T    
C19   C29   S    
C16   C42   S    
C32   H3    S    
C11   H5    S    
C9    C27   S    
C1    O4    A    
C15   C17   S    
C12   H20   S    
C35   H23   S    
C21   H15   S    
C31   O25   A    
C13   C31   S    
Cr5   O7    S    
Cr1   O18   S    
Cr6   O11   S    
C6    C7    S    
H22   O21   S    
C14   H10   S    
C23   C35   S    
C33   C38   S    
Cr3   O15   S    
C40   H25   S    
C13   C17   D    
C8    C30   S    
C23   C32   S    
C20   H13   S    
Cr1   O4    S    
C24   O2    A    
C30   O12   A    
C2    H27   S    
C32   C33   S    
C16   O16   A    
C6    H29   S    
C35   H18   S    
C2    C42   D    
C33   H14   S    
C35   C40   S    
Cr4   O11   S    
C29   O5    A    
C10   C11   S    
C26   O6    A    
Cr6   O9    S    
Cr2   O14   S    
C20   C21   S    
C38   O20   D    
C22   O29   A    
C14   C15   D    
C1    C3    S    
C29   O10   A    
C7    H30   S    
