data_mof_unit_45119.cif
_audit_creation_date              2012-12-11T14:44:12-0500
_audit_creation_method            fapswitch 2.2
_symmetry_space_group_name_H-M    P1
_symmetry_Int_Tables_number       1
_space_group_crystal_system       triclinic
_cell_length_a                    18.824252
_cell_length_b                    10.977191
_cell_length_c                    18.837842
_cell_angle_alpha                 89.690314
_cell_angle_beta                  89.724709
_cell_angle_gamma                 90.494996
_cell_volume                      3892.35493845

loop_
_atom_site_label
_atom_site_type_symbol
_atom_type_description
_atom_site_fract_x
_atom_site_fract_y
_atom_site_fract_z
_atom_type_partial_charge
C1    C     C_R   0.730968 0.379076 0.146898 0.552260
C2    C     C_R   0.047661 0.994062 0.024750 -0.126979
C3    C     C_R   0.009261 0.781043 0.035926 0.025184
C4    C     C_R   0.471586 0.067938 0.045248 -0.158793
C5    C     C_R   0.463122 0.064225 0.972946 -0.164661
C6    C     C_R   0.971561 0.567949 0.045257 -0.158744
C7    C     C_R   0.963100 0.564234 0.972953 -0.164581
C8    C     C_3   0.590703 0.881580 0.875117 -0.264139
C9    C     C_3   0.323573 0.119014 0.162975 -0.269030
C10   C     C_3   0.090695 0.381514 0.875129 -0.264398
C11   C     C_3   0.823486 0.619185 0.162990 -0.271867
C12   C     C_3   0.892821 0.189096 0.023144 -0.312294
C13   C     C_R   0.554301 0.481140 0.951876 -0.124435
C14   C     C_3   0.178430 0.720028 0.878411 -0.284273
C15   C     C_3   0.392862 0.689035 0.023078 -0.312600
C16   C     C_3   0.678450 0.219996 0.878470 -0.284231
C17   C     C_R   0.547667 0.494063 0.024744 -0.127032
C18   C     C_R   0.680544 0.926825 0.030276 -0.170775
C19   C     C_R   0.271342 0.068619 0.985311 -0.153141
C20   C     C_R   0.180547 0.426813 0.030276 -0.170804
C21   C     C_R   0.771320 0.568648 0.985314 -0.153114
C22   C     C_R   0.686972 0.894175 0.959004 0.101542
C23   C     C_R   0.264473 0.038114 0.057142 0.116342
C24   C     C_R   0.186972 0.394167 0.959004 0.101757
C25   C     C_R   0.269322 0.378484 0.853649 0.530592
C26   C     C_R   0.764449 0.538153 0.057148 0.116807
C27   C     C_R   0.748596 0.930325 0.921617 0.017132
C28   C     C_R   0.249003 0.916324 0.075377 0.029260
C29   C     C_R   0.248585 0.430347 0.921609 0.017270
C30   C     C_R   0.749015 0.416351 0.075388 0.029628
C31   C     C_R   0.799967 0.003905 0.954579 -0.110801
C32   C     C_R   0.238631 0.828900 0.022804 -0.108722
C33   C     C_R   0.299943 0.503966 0.954561 -0.110557
C34   C     C_R   0.738675 0.328911 0.022819 -0.108706
C35   C     C_R   0.795710 0.032032 0.025440 0.116007
C36   C     C_R   0.230962 0.879061 0.146891 0.553495
C37   C     C_R   0.248685 0.857264 0.951647 0.118939
C38   C     C_R   0.295697 0.532073 0.025429 0.115829
C39   C     C_R   0.748721 0.357270 0.951662 0.118849
C40   C     C_R   0.735543 0.990649 0.064545 -0.012240
C41   C     C_R   0.264847 0.978907 0.932990 0.011203
C42   C     C_R   0.235540 0.490660 0.064541 -0.013352
C43   C     C_R   0.764852 0.478921 0.932996 0.011125
C44   C     C_R   0.566410 0.124852 0.476633 -0.112447
C45   C     C_R   0.551874 0.125271 0.548799 -0.092400
C46   C     C_R   0.068059 0.645621 0.476495 -0.110718
C47   C     C_R   0.769324 0.878477 0.853652 0.530879
C48   C     C_R   0.053479 0.642595 0.548649 -0.078164
C49   C     C_R   0.486296 0.167252 0.572240 0.100319
C50   C     C_R   0.514829 0.163253 0.427992 0.037355
C51   C     C_R   0.984666 0.666103 0.571751 0.102040
C52   C     C_R   0.013454 0.664919 0.427467 0.046402
C53   C     C_R   0.530986 0.156742 0.147177 0.519734
C54   C     C_R   0.465592 0.154882 0.854836 0.515338
C55   C     C_R   0.030982 0.656743 0.147179 0.520063
C56   C     C_R   0.965589 0.654882 0.854838 0.515122
C57   C     C_R   0.434647 0.206531 0.523648 -0.060961
C58   C     C_R   0.533399 0.372802 0.919907 -0.100812
C59   C     C_R   0.449057 0.204869 0.451199 -0.102844
C60   C     C_R   0.930029 0.689187 0.522872 -0.073402
C61   C     C_R   0.944350 0.687672 0.450330 -0.102755
C62   C     C_R   0.802952 0.007569 0.472907 0.253554
C63   C     C_R   0.180682 0.924055 0.542167 0.196692
C64   C     C_R   0.294522 0.538731 0.478968 0.241311
C65   C     C_R   0.680215 0.426340 0.542173 0.202924
C66   C     C_R   0.795563 0.006213 0.545772 -0.099099
C67   C     C_R   0.177177 0.906222 0.469910 -0.134845
C68   C     C_R   0.292238 0.522949 0.551732 -0.101163
C69   C     C_R   0.522910 0.397045 0.066105 -0.079218
C70   C     C_R   0.676705 0.410394 0.469777 -0.127967
C71   C     C_R   0.748949 0.924699 0.578738 -0.043385
C72   C     C_R   0.238642 0.900773 0.427900 -0.008524
C73   C     C_R   0.246147 0.437769 0.582812 -0.040892
C74   C     C_R   0.738297 0.400200 0.428174 -0.011158
C75   C     C_R   0.698424 0.861248 0.538677 -0.159324
C76   C     C_R   0.305361 0.906456 0.458752 -0.116478
C77   C     C_R   0.190909 0.387111 0.543225 -0.157561
C78   C     C_R   0.804825 0.399559 0.459619 -0.124346
C79   C     C_R   0.698136 0.874039 0.465333 -0.197060
C80   C     C_R   0.033393 0.872800 0.919913 -0.100862
C81   C     C_R   0.310384 0.915923 0.531800 -0.160203
C82   C     C_R   0.185577 0.415229 0.471485 -0.190091
C83   C     C_R   0.809629 0.409226 0.532678 -0.168667
C84   C     C_R   0.750737 0.944793 0.431247 -0.009672
C85   C     C_R   0.248636 0.927698 0.573969 0.003528
C86   C     C_R   0.238022 0.487694 0.437760 -0.013307
C87   C     C_R   0.748021 0.426031 0.574393 0.003110
C88   C     C_R   0.728437 0.019034 0.139841 0.563900
C89   C     C_R   0.271988 0.017351 0.859830 0.559176
C90   C     C_R   0.228436 0.519038 0.139840 0.566277
C91   C     C_R   0.022902 0.897046 0.066111 -0.079348
C92   C     C_R   0.771989 0.517354 0.859831 0.559293
C93   C     C_R   0.728536 0.375831 0.353581 0.539077
C94   C     C_R   0.268593 0.382906 0.649474 0.534072
C95   C     C_R   0.228766 0.876315 0.353364 0.534680
C96   C     C_R   0.768890 0.881226 0.648710 0.534597
C97   C     C_R   0.532550 0.156487 0.353678 0.534259
C98   C     C_R   0.466631 0.157488 0.645950 0.561971
C99   C     C_R   0.031774 0.656801 0.353265 0.529223
C100  C     C_R   0.966475 0.657315 0.645847 0.563048
C101  C     C_R   0.741381 0.974900 0.356280 0.552874
C102  C     C_R   0.054294 0.981138 0.951882 -0.124497
C103  C     C_R   0.258151 0.971260 0.645731 0.575935
C104  C     C_R   0.229465 0.517455 0.362380 0.555295
C105  C     C_R   0.758007 0.470826 0.645888 0.574255
C106  C     C_R   0.484472 0.162765 0.929719 -0.014857
C107  C     C_R   0.498057 0.172664 0.077346 -0.007718
C108  C     C_R   0.984460 0.662767 0.929724 -0.014750
C109  C     C_R   0.998043 0.672669 0.077353 -0.008007
C110  C     C_R   0.508721 0.272354 0.960998 0.012384
C111  C     C_R   0.509273 0.281040 0.035920 0.025402
C112  C     C_R   0.008710 0.772355 0.961004 0.012421
Cr1   Cr    Cr6+3 0.772000 0.169640 0.250110 1.087286
Cr2   Cr    Cr6+3 0.383330 0.010620 0.749160 1.008941
Cr3   Cr    Cr6+3 0.116670 0.510620 0.250840 1.021225
Cr4   Cr    Cr6+3 0.883330 0.510620 0.749160 1.006809
Cr5   Cr    Cr6+3 0.228000 0.169640 0.749890 1.073234
Cr6   Cr    Cr6+3 0.272000 0.669640 0.250110 1.083552
Cr7   Cr    Cr6+3 0.728000 0.669640 0.749890 1.072855
Cr8   Cr    Cr6+3 0.614960 0.323350 0.249260 1.029432
Cr9   Cr    Cr6+3 0.385040 0.323350 0.750740 1.069720
Cr10  Cr    Cr6+3 0.114960 0.823350 0.249260 1.029591
Cr11  Cr    Cr6+3 0.885040 0.823350 0.750740 1.072523
Cr12  Cr    Cr6+3 0.616670 0.010620 0.250840 1.021236
H1    H     H_    0.460225 0.986160 0.075876 0.127531
H2    H     H_    0.353133 0.905832 0.426610 0.171452
H3    H     H_    0.154044 0.322050 0.566732 0.182030
H4    H     H_    0.852708 0.394352 0.427852 0.172451
H5    H     H_    0.657469 0.827175 0.435184 0.154881
H6    H     H_    0.363005 0.923116 0.554535 0.166518
H7    H     H_    0.141735 0.376493 0.441920 0.163001
H8    H     H_    0.862215 0.412385 0.555759 0.164524
H9    H     H_    0.539420 0.368118 0.863010 0.144749
H10   H     H_    0.512640 0.416683 0.121215 0.145994
H11   H     H_    0.039417 0.868114 0.863017 0.144772
H12   H     H_    0.440639 0.981658 0.950730 0.138372
H13   H     H_    0.012633 0.916684 0.121222 0.146649
H14   H     H_    0.073930 0.056287 0.919726 0.140876
H15   H     H_    0.060648 0.080327 0.049309 0.115074
H16   H     H_    0.573934 0.556292 0.919720 0.140936
H17   H     H_    0.560647 0.580332 0.049302 0.114650
H18   H     H_    0.633324 0.898922 0.059425 0.144353
H19   H     H_    0.282532 0.162282 0.970126 0.114954
H20   H     H_    0.133334 0.398887 0.059430 0.144339
H21   H     H_    0.782483 0.662317 0.970124 0.114955
H22   H     H_    0.847838 0.032141 0.926768 0.161677
H23   H     H_    0.960192 0.486177 0.075888 0.127531
H24   H     H_    0.222351 0.737561 0.037428 0.135686
H25   H     H_    0.347798 0.532240 0.926736 0.161723
H26   H     H_    0.722417 0.237565 0.037447 0.135852
H27   H     H_    0.617787 0.093941 0.458387 0.122382
H28   H     H_    0.591244 0.092958 0.586044 0.119608
H29   H     H_    0.122011 0.633197 0.458470 0.096143
H30   H     H_    0.095606 0.624447 0.586143 0.123829
H31   H     H_    0.382931 0.236186 0.541894 0.125197
H32   H     H_    0.409063 0.233597 0.413661 0.140199
H33   H     H_    0.876205 0.705412 0.541013 0.113534
H34   H     H_    0.940611 0.481672 0.950737 0.138386
H35   H     H_    0.902069 0.702788 0.412570 0.121615
H36   H     H_    0.972186 0.172347 0.487996 0.363918
H37   H     H_    0.029931 0.967405 0.497653 0.377110
H38   H     H_    0.468870 0.690773 0.488493 0.363021
H39   H     H_    0.526453 0.483596 0.501223 0.377442
H40   H     H_    0.603097 0.770844 0.963260 0.231981
H41   H     H_    0.549087 0.818528 0.854954 0.142694
H42   H     H_    0.623259 0.914104 0.829520 0.163025
H43   H     H_    0.565260 0.961169 0.899590 0.147678
H44   H     H_    0.262206 0.218963 0.091444 0.260786
H45   H     H_    0.833168 0.056806 0.577596 0.207567
H46   H     H_    0.362182 0.195760 0.158088 0.137574
H47   H     H_    0.353222 0.032326 0.157885 0.138043
H48   H     H_    0.298760 0.122012 0.216480 0.168358
H49   H     H_    0.103124 0.270783 0.963269 0.232045
H50   H     H_    0.049116 0.318416 0.854942 0.142419
H51   H     H_    0.123246 0.414121 0.829547 0.162671
H52   H     H_    0.065205 0.461044 0.899618 0.147797
H53   H     H_    0.762081 0.719008 0.091434 0.260344
H54   H     H_    0.862090 0.695930 0.158061 0.137165
H55   H     H_    0.853141 0.532492 0.157959 0.138998
H56   H     H_    0.125669 0.896817 0.445566 0.163181
H57   H     H_    0.798666 0.622284 0.216490 0.163494
H58   H     H_    0.887772 0.031481 0.086245 0.267419
H59   H     H_    0.863090 0.225515 0.977526 0.165536
H60   H     H_    0.944744 0.157546 0.002973 0.123256
H61   H     H_    0.901949 0.264017 0.061422 0.150907
H62   H     H_    0.284978 0.763470 0.861462 0.277707
H63   H     H_    0.184093 0.638042 0.844692 0.133827
H64   H     H_    0.153208 0.792434 0.846249 0.176015
H65   H     H_    0.144993 0.694776 0.924948 0.156055
H66   H     H_    0.387738 0.531543 0.086258 0.267448
H67   H     H_    0.333766 0.563761 0.583395 0.211953
H68   H     H_    0.402223 0.763853 0.061370 0.150752
H69   H     H_    0.363051 0.725669 0.977573 0.165674
H70   H     H_    0.444670 0.657267 0.002731 0.123385
H71   H     H_    0.784984 0.263479 0.861462 0.277732
H72   H     H_    0.684106 0.138001 0.844759 0.134073
H73   H     H_    0.653205 0.292382 0.846312 0.175777
H74   H     H_    0.645036 0.194752 0.925026 0.156054
H75   H     H_    0.624968 0.405739 0.445283 0.171619
H76   H     H_    0.661423 0.797988 0.563547 0.189071
N1    N     N_2   0.633643 0.819693 0.927275 -0.500304
N2    N     N_2   0.268755 0.130994 0.109641 -0.505595
N3    N     N_2   0.133655 0.319653 0.927281 -0.500232
N4    N     N_2   0.768674 0.631055 0.109640 -0.506270
N5    N     N_2   0.855245 0.090040 0.058705 -0.479386
N6    N     N_2   0.247567 0.760562 0.901357 -0.527593
N7    N     N_2   0.355230 0.590097 0.058691 -0.479635
N8    N     N_2   0.747594 0.260562 0.901376 -0.527600
O1    O     O_R   0.787540 0.042690 0.170470 -0.492654
O2    O     O_R   0.454130 0.051100 0.669160 -0.533264
O3    O     O_R   0.045870 0.551100 0.330840 -0.523006
O4    O     O_R   0.954130 0.551100 0.669160 -0.535217
O5    O     O_R   0.681340 0.959300 0.325510 -0.512081
O6    O     O_R   0.318660 0.959300 0.674490 -0.516027
O7    O     O_R   0.181340 0.459300 0.325510 -0.503655
O8    O     O_R   0.818660 0.459300 0.674490 -0.516857
O9    O     O_3   0.667880 0.167870 0.250070 -0.285140
O10   O     O_3   0.332120 0.167870 0.749930 -0.288433
O11   O     O_3   0.167880 0.667870 0.250070 -0.302756
O12   O     O_R   0.212460 0.042690 0.829530 -0.496565
O13   O     O_3   0.832120 0.667870 0.749930 -0.288529
O14   O     O_R   0.765660 0.292160 0.175050 -0.521210
O15   O     O_R   0.234340 0.292160 0.824950 -0.491322
O16   O     O_R   0.265660 0.792160 0.175050 -0.520652
O17   O     O_R   0.734340 0.792160 0.824950 -0.490886
O18   O     O_R   0.670190 0.408980 0.168550 -0.499134
O19   O     O_R   0.329810 0.408980 0.831450 -0.538767
O20   O     O_R   0.170190 0.908980 0.168550 -0.497283
O21   O     O_R   0.829810 0.908980 0.831450 -0.538840
O22   O     O_R   0.556580 0.251450 0.175160 -0.517829
O23   O     O_R   0.287540 0.542690 0.170470 -0.488828
O24   O     O_R   0.443420 0.251450 0.824840 -0.501530
O25   O     O_R   0.056580 0.751450 0.175160 -0.516192
O26   O     O_R   0.943420 0.751450 0.824840 -0.501987
O27   O     O_R   0.545920 0.049510 0.170320 -0.527514
O28   O     O_R   0.454080 0.049510 0.829680 -0.541115
O29   O     O_R   0.045920 0.549510 0.170320 -0.527285
O30   O     O_R   0.954080 0.549510 0.829680 -0.541241
O31   O     O_R   0.681390 0.957840 0.176710 -0.505513
O32   O     O_R   0.318610 0.957840 0.823290 -0.517402
O33   O     O_R   0.181390 0.457840 0.176710 -0.499320
O34   O     O_R   0.712460 0.542690 0.829530 -0.496468
O35   O     O_R   0.818610 0.457840 0.823290 -0.517375
O36   O     O_R   0.787500 0.044280 0.330990 -0.422051
O37   O     O_R   0.212500 0.044280 0.669010 -0.423728
O38   O     O_R   0.287500 0.544280 0.330990 -0.413017
O39   O     O_R   0.712500 0.544280 0.669010 -0.425484
O40   O     O_R   0.765610 0.293630 0.323860 -0.462227
O41   O     O_R   0.234390 0.293630 0.676140 -0.498759
O42   O     O_R   0.265610 0.793630 0.323860 -0.471958
O43   O     O_R   0.734390 0.793630 0.676140 -0.500820
O44   O     O_R   0.670140 0.410570 0.329080 -0.524717
O45   O     O_R   0.556540 0.252920 0.323970 -0.484269
O46   O     O_R   0.329860 0.410570 0.670920 -0.504402
O47   O     O_R   0.170140 0.910570 0.329080 -0.519637
O48   O     O_R   0.829860 0.910570 0.670920 -0.499374
O49   O     O_2   0.924122 0.976536 0.399534 -0.288866
O50   O     O_2   0.873465 0.180412 0.394051 -0.285625
O51   O     O_3   0.935513 0.117992 0.509328 -0.527313
O52   O     O_2   0.097353 0.877088 0.655858 -0.275359
O53   O     O_2   0.092153 0.082729 0.605057 -0.267343
O54   O     O_3   0.029043 0.910111 0.538250 -0.484664
O55   O     O_2   0.416215 0.488553 0.411746 -0.284048
O56   O     O_R   0.443460 0.252920 0.676030 -0.439542
O57   O     O_2   0.370920 0.692726 0.391488 -0.285714
O58   O     O_3   0.428626 0.647929 0.512118 -0.537832
O59   O     O_2   0.595571 0.376221 0.654410 -0.270382
O60   O     O_2   0.592366 0.584384 0.607079 -0.277102
O61   O     O_3   0.528992 0.416711 0.536463 -0.495116
O62   O     O_R   0.056540 0.752920 0.323970 -0.483190
O63   O     O_R   0.943460 0.752920 0.676030 -0.435395
O64   O     O_R   0.545870 0.051100 0.330840 -0.514885
S1    S     S_3+6 0.884991 0.071683 0.440935 0.002564
S2    S     S_3+6 0.099097 0.949690 0.587984 0.017458
S3    S     S_3+6 0.378323 0.593356 0.445601 -0.000543
S4    S     S_3+6 0.598593 0.452130 0.587811 0.015471

loop_
_geom_bond_atom_site_label_1
_geom_bond_atom_site_label_2
_ccdc_geom_bond_type
C1    O18   A    
C10   H50   S    
C5    H12   S    
C83   C87   A    
C15   H68   S    
C24   N3    S    
C17   C69   A    
C69   H10   S    
C6    H23   S    
C29   C33   A    
C76   H2    S    
C37   N6    S    
Cr2   O6    S    
C66   H45   S    
C19   C23   A    
C11   H57   S    
C54   O28   A    
Cr4   O8    S    
C86   C104  S    
C34   H26   S    
Cr9   O46   S    
C7    H34   S    
C99   O3    A    
C75   H76   S    
C57   H31   S    
C53   O27   A    
C103  O37   A    
C80   H11   S    
C4    H1    S    
H39   O61   S    
C50   C59   A    
C64   C68   A    
C3    C91   A    
C8    N1    S    
C93   O40   A    
Cr2   O10   S    
C38   C42   A    
C52   C61   A    
C61   H35   S    
Cr9   O56   S    
C79   C84   A    
Cr8   O45   S    
C92   O35   A    
C57   C59   A    
C12   H59   S    
C2    C102  A    
C27   C47   S    
C65   C70   A    
C79   H5    S    
Cr4   O30   S    
Cr7   O13   S    
C49   C57   A    
Cr5   O12   S    
C17   H17   S    
C67   C72   A    
C102  H14   S    
C64   C86   A    
Cr4   O13   S    
C101  O36   A    
C18   C40   A    
C24   C29   A    
C56   C108  S    
Cr7   O39   S    
O61   S4    S    
C49   C98   S    
Cr3   O33   S    
C31   H22   S    
C92   O34   A    
H37   O54   S    
O57   S3    D    
C48   C51   A    
C105  O39   A    
H71   N8    S    
C20   C24   A    
C101  O5    A    
Cr8   O9    S    
C87   C105  S    
C70   C74   A    
C19   H19   S    
O51   S1    S    
C45   C49   A    
C10   N3    S    
C36   O16   A    
C65   S4    S    
C77   H3    S    
C93   O44   A    
C72   C76   A    
C53   O22   A    
C5    C106  A    
O52   S2    D    
Cr2   O28   S    
C62   C84   A    
C9    H48   S    
Cr4   O35   S    
C78   H4    S    
C36   O20   A    
C105  O8    A    
C21   C43   A    
C63   C85   A    
O50   S1    D    
C10   H52   S    
C84   C101  S    
C14   H65   S    
C74   C93   S    
C56   O26   A    
C9    H46   S    
C2    C91   A    
C95   O47   A    
C73   C94   S    
C55   O25   A    
H44   N2    S    
C78   C83   A    
C95   O42   A    
Cr1   O9    S    
C21   C26   A    
C35   N5    S    
C81   C85   A    
C65   C87   A    
C63   C67   A    
Cr12  O5    S    
C64   S3    S    
C25   C29   S    
O54   S2    S    
C4    C107  A    
C46   C48   A    
O59   S4    D    
C44   H27   S    
C38   N7    S    
C30   C34   A    
C23   N2    S    
C27   C31   A    
C34   C39   A    
C72   C95   S    
C13   H16   S    
C28   C32   A    
C62   C66   A    
C60   H33   S    
C96   O48   A    
C94   O46   A    
Cr10  O11   S    
Cr8   O22   S    
Cr10  O47   S    
Cr3   O29   S    
Cr9   O10   S    
H62   N6    S    
C39   C43   A    
O53   S2    D    
C68   H67   S    
C68   C73   A    
C82   C86   A    
Cr6   O23   S    
Cr6   O16   S    
C80   C112  A    
C100  O4    A    
H36   O51   S    
C108  C112  A    
C80   C102  A    
C60   C61   A    
C42   C90   S    
C62   S1    S    
C21   H21   S    
C26   N4    S    
C54   O24   A    
C16   H72   S    
C8    H43   S    
Cr7   O43   S    
Cr11  O26   S    
C98   O2    A    
C67   H56   S    
C53   C107  S    
C63   S2    S    
C66   C71   A    
C47   O17   A    
C18   H18   S    
C3    C112  A    
Cr1   O36   S    
Cr10  O20   S    
C39   N8    S    
O60   S4    D    
C20   H20   S    
H53   N4    S    
Cr3   O7    S    
Cr5   O10   S    
C110  C111  A    
C11   H54   S    
C32   C37   A    
C55   O29   A    
C54   C106  S    
C103  O6    A    
C28   C36   S    
Cr11  O48   S    
C56   O30   A    
C8    H42   S    
C15   H70   S    
C47   O21   A    
C35   C40   A    
C26   C30   A    
O55   S3    D    
C88   O1    A    
C14   N6    S    
Cr6   O42   S    
C22   C27   A    
C6    C109  A    
C31   C35   A    
C90   O23   A    
C9    H47   S    
C23   C28   A    
C2    H15   S    
C94   O41   A    
Cr8   O18   S    
C16   H74   S    
C44   C45   A    
Cr7   O17   S    
Cr2   O32   S    
C106  C110  A    
C44   C50   A    
C10   H51   S    
Cr12  O31   S    
C46   H29   S    
C48   H30   S    
Cr12  O9    S    
Cr12  O64   S    
C50   C97   S    
Cr5   O41   S    
C52   C99   S    
C22   N1    S    
C41   C89   S    
C58   C110  A    
C107  C111  A    
C9    N2    S    
Cr8   O44   S    
C104  O7    A    
Cr11  O63   S    
C4    C5    A    
C16   N8    S    
C85   C103  S    
C76   C81   A    
C20   C42   A    
C59   H32   S    
Cr6   O38   S    
C97   O64   A    
H40   N1    S    
C6    C7    A    
C32   H24   S    
Cr5   O37   S    
Cr1   O40   S    
C99   O62   A    
C104  O38   A    
C43   C92   S    
Cr12  O27   S    
Cr3   O3    S    
H49   N3    S    
C45   H28   S    
C12   N5    S    
Cr11  O13   S    
C51   C60   A    
C18   C22   A    
C58   H9    S    
C82   H7    S    
Cr1   O1    S    
C83   H8    S    
Cr4   O4    S    
C13   C58   A    
C33   H25   S    
C46   C52   A    
C71   C75   A    
C14   H63   S    
C88   O31   A    
Cr2   O2    S    
C81   H6    S    
C12   H60   S    
C77   C82   A    
C3    C109  A    
C91   H13   S    
C12   H61   S    
C71   C96   S    
C1    C30   S    
O49   S1    D    
C25   O19   A    
C25   O15   A    
C97   O45   A    
C11   N4    S    
C37   C41   A    
Cr9   O19   S    
C69   C111  A    
Cr7   O34   S    
C15   N7    S    
Cr1   O14   S    
Cr5   O15   S    
C8    H41   S    
Cr10  O62   S    
C13   C17   A    
C15   H69   S    
C98   O56   A    
H66   N7    S    
Cr10  O25   S    
C11   H55   S    
C16   H73   S    
H58   N5    S    
O58   S3    S    
C89   O12   A    
C74   C78   A    
C90   O33   A    
Cr6   O11   S    
Cr9   O24   S    
C70   H75   S    
C73   C77   A    
C7    C108  A    
C1    O14   A    
C33   C38   A    
C51   C100  S    
C96   O43   A    
C14   H64   S    
H38   O58   S    
C75   C79   A    
Cr11  O21   S    
C55   C109  S    
C40   C88   S    
C19   C41   A    
Cr3   O11   S    
C100  O63   A    
C89   O32   A    
