data_mof_unit_12955.cif
_audit_creation_date              2012-12-11T15:15:43-0500
_audit_creation_method            fapswitch 2.2
_symmetry_space_group_name_H-M    P1
_symmetry_Int_Tables_number       1
_space_group_crystal_system       triclinic
_cell_length_a                    20.551724
_cell_length_b                    22.705442
_cell_length_c                    6.935391
_cell_angle_alpha                 89.990961
_cell_angle_beta                  86.706315
_cell_angle_gamma                 89.991086
_cell_volume                      3230.95701163

loop_
_atom_site_label
_atom_site_type_symbol
_atom_type_description
_atom_site_fract_x
_atom_site_fract_y
_atom_site_fract_z
_atom_type_partial_charge
O1    O     O_R   0.387100 0.552640 0.378490 -0.545701
O2    O     O_R   0.612900 0.052640 0.621510 -0.545929
O3    O     O_R   0.249610 0.559600 0.072250 -0.549063
O4    O     O_R   0.750390 0.059600 0.927750 -0.548577
O5    O     O_R   0.249120 0.447360 0.902040 -0.544489
O6    O     O_R   0.750880 0.947360 0.097960 -0.543758
C1    C     C_R   0.227522 0.574195 0.244670 0.677486
C2    C     C_R   0.772507 0.074166 0.755302 0.679247
O7    O     O_R   0.386610 0.559560 0.048860 -0.520733
O8    O     O_R   0.613390 0.059560 0.951140 -0.521088
O9    O     O_R   0.387100 0.447320 0.878470 -0.526903
O10   O     O_R   0.612900 0.947320 0.121530 -0.528786
C3    C     C_R   0.408147 0.574759 0.213567 0.751821
C4    C     C_R   0.591714 0.074645 0.786407 0.744372
O11   O     O_R   0.249120 0.552680 0.402050 -0.544667
O12   O     O_R   0.750880 0.052680 0.597950 -0.544193
O13   O     O_3   0.318110 0.463180 0.223790 -0.369748
O14   O     O_3   0.681890 0.963180 0.776210 -0.370163
V1    V     V_3+5 0.318110 0.506830 0.948930 1.457597
V2    V     V_3+5 0.681890 0.006830 0.051070 1.454203
O15   O     O_R   0.386610 0.440400 0.548840 -0.541821
O16   O     O_R   0.613390 0.940400 0.451160 -0.542841
C5    C     C_R   0.408188 0.425263 0.713674 0.719580
C6    C     C_R   0.591736 0.925365 0.286500 0.719799
O17   O     O_R   0.249610 0.440440 0.572240 -0.546548
O18   O     O_R   0.750390 0.940440 0.427760 -0.546178
C7    C     C_R   0.227781 0.425622 0.744525 0.713787
C8    C     C_R   0.772250 0.925649 0.255489 0.715293
V3    V     V_3+5 0.318110 0.493170 0.448930 1.426009
V4    V     V_3+5 0.681890 0.993170 0.551070 1.422698
O19   O     O_3   0.318110 0.536820 0.723940 -0.371412
O20   O     O_3   0.681890 0.036820 0.276060 -0.370635
C9    C     C_R   0.176141 0.380200 0.760077 -0.093052
C10   C     C_R   0.824022 0.880346 0.239939 -0.094281
C11   C     C_R   0.161497 0.347189 0.596460 -0.248577
C12   C     C_R   0.839160 0.847713 0.403917 -0.255138
C13   C     C_R   0.112326 0.303963 0.607382 0.522870
C14   C     C_R   0.888493 0.804661 0.392950 0.519263
C15   C     C_R   0.074441 0.297107 0.781748 0.112876
C16   C     C_R   0.926025 0.797535 0.218101 0.113218
C17   C     C_R   0.090528 0.328289 0.946647 -0.178682
C18   C     C_R   0.909479 0.828353 0.052928 -0.178583
C19   C     C_R   0.141126 0.369385 0.936362 -0.170679
C20   C     C_R   0.858736 0.869314 0.063298 -0.166842
C21   C     C_R   0.889078 0.195156 0.885051 -0.144170
C22   C     C_R   0.111248 0.695371 0.114369 -0.143540
C23   C     C_R   0.842534 0.150436 0.902136 -0.158167
C24   C     C_R   0.157624 0.650504 0.097498 -0.158386
C25   C     C_R   0.853562 0.134486 0.556250 -0.176307
C26   C     C_R   0.146754 0.634858 0.443578 -0.176606
C27   C     C_R   0.900422 0.179020 0.539548 -0.074632
C28   C     C_R   0.100062 0.679549 0.460072 -0.075182
C29   C     C_R   0.918046 0.210128 0.703480 0.088059
C30   C     C_R   0.082446 0.710568 0.295915 0.087943
C31   C     C_2   0.019048 0.255624 0.796011 -0.220240
C32   C     C_2   0.981436 0.756071 0.203619 -0.221387
C33   C     C_2   0.966825 0.258298 0.685500 -0.030727
C34   C     C_2   0.033781 0.758829 0.313579 -0.030741
C35   C     C_R   0.823841 0.119875 0.737699 -0.048570
C36   C     C_R   0.176308 0.620017 0.262131 -0.047981
H1    H     H_    0.187953 0.355295 0.459674 0.129344
H2    H     H_    0.812998 0.855974 0.541073 0.130934
H3    H     H_    0.820588 0.140445 0.044071 0.125670
H4    H     H_    0.179449 0.640343 0.955557 0.125509
H5    H     H_    0.840630 0.111588 0.426930 0.122863
H6    H     H_    0.159698 0.612030 0.573043 0.122585
H7    H     H_    0.062803 0.321742 0.082593 0.177600
H8    H     H_    0.936957 0.821634 0.916681 0.178532
H9    H     H_    0.901899 0.218672 0.013392 0.136152
H10   H     H_    0.098417 0.718817 0.985872 0.136106
H11   H     H_    0.151756 0.393623 0.065317 0.139397
H12   H     H_    0.847748 0.893271 0.934077 0.139554
H13   H     H_    0.022303 0.220155 0.900355 0.133063
H14   H     H_    0.978038 0.720488 0.099791 0.132141
H15   H     H_    0.923116 0.189023 0.398531 0.130956
H16   H     H_    0.077482 0.689739 0.601082 0.130705
C37   C     C_R   0.572802 0.356736 0.603822 -0.160897
C38   C     C_R   0.428803 0.855723 0.409730 -0.160127
H17   H     H_    0.533337 0.443891 0.596446 0.123321
H18   H     H_    0.468430 0.942719 0.422555 0.114013
H19   H     H_    0.660429 0.271598 0.566633 0.133748
H20   H     H_    0.341510 0.770621 0.446786 0.133929
H21   H     H_    0.620488 0.371436 0.548718 0.130312
H22   H     H_    0.381770 0.869866 0.471834 0.130454
C39   C     C_R   0.461752 0.381486 0.707941 -0.059163
C40   C     C_R   0.538223 0.881588 0.293432 -0.056110
C41   C     C_R   0.474630 0.096112 0.868443 0.370453
C42   C     C_R   0.525299 0.595041 0.135905 0.389823
C43   C     C_R   0.419879 0.133601 0.873927 -0.127795
C44   C     C_R   0.581087 0.630959 0.137888 -0.119202
C45   C     C_R   0.424820 0.190539 0.790684 -0.121030
C46   C     C_R   0.576179 0.689546 0.208897 -0.128092
C47   C     C_R   0.487648 0.215358 0.746247 0.023443
C48   C     C_R   0.513306 0.715070 0.252765 0.013396
C49   C     C_R   0.542518 0.176198 0.733636 0.002043
C50   C     C_R   0.458209 0.676039 0.267160 0.004345
C51   C     C_R   0.498308 0.277612 0.713843 0.120773
C52   C     C_R   0.502414 0.777458 0.285843 0.112354
C53   C     C_R   0.561096 0.296952 0.644248 0.129688
C54   C     C_R   0.440228 0.796311 0.362937 0.133639
C55   C     C_R   0.612409 0.256871 0.618734 -0.186495
C56   C     C_R   0.389124 0.756181 0.390054 -0.185577
C57   C     C_R   0.603791 0.197938 0.666840 -0.150369
C58   C     C_R   0.397293 0.697637 0.337543 -0.151077
C59   C     C_R   0.450160 0.321933 0.756041 -0.181547
C60   C     C_R   0.549326 0.822499 0.238680 -0.191069
C61   C     C_R   0.523339 0.398266 0.632168 -0.152875
C62   C     C_R   0.477830 0.897516 0.379857 -0.154023
C63   C     C_R   0.535450 0.116181 0.790295 -0.190973
C64   C     C_R   0.464544 0.616138 0.209235 -0.195158
H23   H     H_    0.403493 0.311603 0.826752 0.120290
H24   H     H_    0.594487 0.813485 0.158003 0.122746
H25   H     H_    0.646030 0.169475 0.651406 0.109608
H26   H     H_    0.355060 0.669209 0.354138 0.109208
O21   O     O_3   0.469296 0.040919 0.953698 -0.547406
C65   C     C_3   0.460555 0.998040 0.809950 -0.166808
H27   H     H_    0.424817 0.011836 0.703765 0.144382
H28   H     H_    0.441449 0.957323 0.881190 0.170708
H29   H     H_    0.507721 0.986603 0.733411 0.119815
O22   O     O_3   0.530096 0.538810 0.058166 -0.539657
C66   C     C_3   0.543180 0.498514 0.205865 -0.201773
H30   H     H_    0.588955 0.509580 0.276061 0.137339
H31   H     H_    0.549448 0.454074 0.140967 0.170149
H32   H     H_    0.501869 0.496021 0.315934 0.122600
C67   C     C_2   0.365906 0.216785 0.708148 0.755491
O23   O     O_2   0.313552 0.218101 0.801036 -0.553555
O24   O     O_R   0.370913 0.240225 0.521296 -0.647841
H33   H     H_    0.328140 0.257051 0.480242 0.296409
C68   C     C_2   0.636825 0.720185 0.258750 0.797862
O25   O     O_2   0.681929 0.726249 0.137383 -0.559256
O26   O     O_R   0.641636 0.743020 0.444644 -0.648584
H34   H     H_    0.684812 0.763494 0.461139 0.287553
C69   C     C_2   0.357644 0.112896 0.970130 0.890991
O27   O     O_2   0.334823 0.065167 0.928343 -0.552647
O28   O     O_R   0.325891 0.147824 0.112489 -0.634091
H35   H     H_    0.284175 0.129167 0.168657 0.299205
C70   C     C_2   0.644925 0.604926 0.072360 0.864841
O29   O     O_2   0.651569 0.581929 0.912998 -0.523047
O30   O     O_R   0.696659 0.605042 0.194807 -0.651676
H36   H     H_    0.737260 0.585611 0.134092 0.301447
C71   C     C_2   0.954566 0.308965 0.554272 0.820823
O31   O     O_2   0.915168 0.303940 0.429693 -0.572138
O32   O     O_R   0.985487 0.363155 0.577774 -0.658900
H37   H     H_    0.972592 0.393701 0.480373 0.297721
C72   C     C_2   0.046258 0.809647 0.443873 0.824314
O33   O     O_2   0.085676 0.804693 0.568436 -0.570907
O34   O     O_R   0.015508 0.863884 0.419478 -0.657926
H38   H     H_    0.028532 0.894540 0.516300 0.299015
O35   O     O_3   0.096637 0.271377 0.446926 -0.567612
C73   C     C_3   0.152576 0.243965 0.359797 -0.262501
H39   H     H_    0.184495 0.224647 0.468058 0.155398
H40   H     H_    0.180422 0.275209 0.263481 0.154462
H41   H     H_    0.136558 0.207323 0.267973 0.179462
O36   O     O_3   0.904620 0.772562 0.553928 -0.569349
C74   C     C_3   0.849173 0.743905 0.639094 -0.254874
H42   H     H_    0.818677 0.723319 0.529605 0.157310
H43   H     H_    0.819674 0.774668 0.732868 0.154701
H44   H     H_    0.865845 0.708061 0.733129 0.181011

loop_
_geom_bond_atom_site_label_1
_geom_bond_atom_site_label_2
_ccdc_geom_bond_type
C4    C63   S    
V4    O20   S    
O6    C8    A    
C74   H43   S    
O13   V3    S    
O34   H38   S    
O4    C2    A    
V1    O19   S    
C25   C27   A    
C72   O33   D    
C34   C72   S    
O35   C73   S    
O28   H35   S    
C17   H7    S    
C60   H24   S    
C7    C9    S    
C70   O30   S    
O9    V1    S    
C25   H5    S    
C11   C13   A    
C27   H15   S    
O3    C1    A    
C71   O32   S    
C2    C35   S    
C23   H3    S    
C9    C11   A    
C12   H2    S    
C24   H4    S    
C37   H21   S    
O12   V4    S    
O32   H37   S    
C65   H27   S    
C66   H31   S    
C38   C62   A    
O7    C3    A    
C66   H32   S    
C51   C53   A    
O5    C7    A    
O7    V1    S    
C15   C31   S    
O8    V2    S    
C49   C57   A    
C73   H41   S    
C26   C28   A    
O3    V1    S    
O14   V4    S    
C42   O22   S    
C45   C67   S    
C10   C12   A    
C24   C36   A    
C42   C64   A    
C16   C18   A    
C59   H23   S    
C8    C10   S    
C2    O12   A    
C74   H44   S    
C18   H8    S    
C17   C19   A    
O10   V2    S    
C40   C60   A    
C18   C20   A    
C39   C59   A    
O1    V3    S    
C72   O34   S    
C28   C30   A    
C41   C63   A    
O11   V3    S    
C21   C23   A    
O17   V3    S    
H17   C61   S    
C22   C24   A    
C23   C35   A    
C32   H14   S    
C21   H9    S    
C9    C19   A    
C65   H29   S    
C37   C61   A    
C43   C69   S    
C15   C17   A    
C49   C63   A    
C29   C33   S    
H19   C55   S    
C1    O11   A    
C16   C32   S    
C50   C64   A    
C27   C29   A    
C31   H13   S    
C37   C53   A    
C56   C58   A    
C3    C64   S    
C73   H40   S    
C45   C47   A    
C44   C46   A    
V3    O19   S    
C22   C30   A    
C54   C56   A    
H20   C56   S    
C10   C20   A    
C11   H1    S    
C48   C50   A    
C26   H6    S    
O36   C74   S    
C65   H28   S    
C58   H26   S    
C53   C55   A    
C42   C44   A    
O18   V4    S    
C52   C54   A    
C31   C33   D    
C38   C54   A    
C67   O23   D    
C30   C34   S    
O16   C6    A    
C43   C45   A    
C14   O36   S    
O24   H33   S    
C47   C51   A    
C1    C36   S    
C44   C70   S    
O22   C66   S    
C67   O24   S    
C68   O25   D    
V2    O20   S    
C50   C58   A    
O10   C6    A    
C19   H11   S    
O16   V4    S    
C57   H25   S    
C41   O21   S    
C40   C62   A    
C13   O35   S    
C28   H16   S    
C52   C60   A    
O30   H36   S    
C66   H30   S    
O5    V1    S    
O17   C7    A    
O6    V2    S    
C70   O29   D    
H18   C62   S    
O18   C8    A    
C25   C35   A    
C55   C57   A    
C33   C71   S    
O2    V4    S    
C26   C36   A    
O15   C5    A    
C46   C68   S    
C51   C59   A    
C13   C15   A    
C71   O31   D    
C12   C14   A    
C14   C16   A    
C46   C48   A    
C69   O27   D    
O15   V3    S    
O9    C5    A    
O13   V1    S    
C32   C34   D    
C20   H12   S    
O14   V2    S    
O2    C4    A    
C22   H10   S    
C21   C29   A    
O4    V2    S    
C38   H22   S    
O1    C3    A    
C47   C49   A    
C5    C39   S    
C74   H42   S    
C69   O28   S    
C41   C43   A    
C48   C52   A    
C73   H39   S    
O21   C65   S    
C39   C61   A    
C6    C40   S    
O26   H34   S    
O8    C4    A    
C68   O26   S    
