data_mof_unit_18253.cif
_audit_creation_date              2012-12-10T17:14:27-0500
_audit_creation_method            fapswitch 2.2
_symmetry_space_group_name_H-M    P1
_symmetry_Int_Tables_number       1
_space_group_crystal_system       triclinic
_cell_length_a                    15.450725
_cell_length_b                    14.813275
_cell_length_c                    10.140774
_cell_angle_alpha                 89.999641
_cell_angle_beta                  85.883065
_cell_angle_gamma                 90.002799
_cell_volume                      2314.9891118

loop_
_atom_site_label
_atom_site_type_symbol
_atom_type_description
_atom_site_fract_x
_atom_site_fract_y
_atom_site_fract_z
_atom_type_partial_charge
C1    C     C_R   0.390262 0.124015 0.549599 0.937462
C2    C     C_R   0.615096 0.882210 0.447589 0.934093
C3    C     C_R   0.609748 0.124010 0.450397 0.937470
C4    C     C_R   0.384902 0.882206 0.552411 0.934047
C5    C     C_R   0.890263 0.624016 0.549599 0.937455
C6    C     C_R   0.115096 0.382209 0.447590 0.934071
C7    C     C_R   0.109746 0.624012 0.450398 0.937465
C8    C     C_R   0.884903 0.382205 0.552411 0.934038
C9    C     C_2   0.489608 0.001685 0.928390 -0.122043
C10   C     C_2   0.510392 0.001687 0.071610 -0.122060
C11   C     C_2   0.989608 0.501686 0.928390 -0.122038
C12   C     C_2   0.010392 0.501687 0.071610 -0.122056
C13   C     C_2   0.313341 0.821816 0.578146 -0.422528
C14   C     C_2   0.664801 0.202483 0.432620 -0.423384
C15   C     C_2   0.686650 0.821821 0.421852 -0.422532
C16   C     C_2   0.335216 0.202485 0.567383 -0.423353
C17   C     C_2   0.813341 0.321814 0.578144 -0.422519
C18   C     C_2   0.164796 0.702486 0.432619 -0.423397
C19   C     C_2   0.186649 0.321818 0.421855 -0.422520
C20   C     C_2   0.835219 0.702485 0.567388 -0.423324
C21   C     C_2   0.241000 0.830417 0.512541 -0.003077
C22   C     C_2   0.676908 0.259961 0.533120 -0.013836
C23   C     C_2   0.758973 0.830389 0.487506 -0.003218
C24   C     C_2   0.323068 0.259944 0.466879 -0.013814
C25   C     C_2   0.740998 0.330419 0.512544 -0.003052
C26   C     C_2   0.176911 0.759958 0.533122 -0.013832
C27   C     C_2   0.258978 0.330393 0.487496 -0.003175
C28   C     C_2   0.823068 0.759945 0.466885 -0.013814
H1    H     H_    0.387253 0.998378 0.142614 0.159054
H2    H     H_    0.612747 0.998385 0.857386 0.159068
H3    H     H_    0.887253 0.498379 0.142614 0.159054
H4    H     H_    0.112747 0.498383 0.857386 0.159066
H5    H     H_    0.697642 0.213130 0.335634 0.133044
H6    H     H_    0.322615 0.764889 0.642963 0.138399
H7    H     H_    0.302409 0.213138 0.664388 0.133012
H8    H     H_    0.677389 0.764932 0.356960 0.138452
H9    H     H_    0.197631 0.713136 0.335630 0.133037
H10   H     H_    0.822617 0.264882 0.642952 0.138392
H11   H     H_    0.802413 0.713136 0.664393 0.133004
H12   H     H_    0.177382 0.264920 0.356983 0.138448
H13   H     H_    0.577859 0.002971 0.094804 0.158432
H14   H     H_    0.422141 0.002965 0.905195 0.158439
H15   H     H_    0.077860 0.502970 0.094804 0.158432
H16   H     H_    0.922141 0.502967 0.905195 0.158436
N1    N     N_2   0.549450 1.000000 0.831550 -0.187220
N2    N     N_2   0.450550 1.000000 0.168450 -0.187214
N3    N     N_2   0.049450 0.500000 0.831550 -0.187216
N4    N     N_2   0.950550 0.500000 0.168450 -0.187213
O1    O     O_R   0.398960 0.091100 0.433300 -0.602048
O2    O     O_R   0.601040 0.908900 0.566700 -0.596690
O3    O     O_R   0.601040 0.091100 0.566700 -0.602014
O4    O     O_R   0.398960 0.908900 0.433300 -0.596678
O5    O     O_R   0.898960 0.591100 0.433300 -0.602045
O6    O     O_R   0.101040 0.408900 0.566700 -0.596683
O7    O     O_R   0.101040 0.591100 0.566700 -0.602012
O8    O     O_R   0.898960 0.408900 0.433300 -0.596675
O9    O     O_R   0.430710 0.091090 0.646210 -0.612560
O10   O     O_R   0.569290 0.908910 0.353790 -0.612593
O11   O     O_R   0.569290 0.091090 0.353790 -0.612564
O12   O     O_R   0.430710 0.908910 0.646210 -0.612589
O13   O     O_R   0.930710 0.591090 0.646210 -0.612562
O14   O     O_R   0.069290 0.408910 0.353790 -0.612593
O15   O     O_R   0.069290 0.591090 0.353790 -0.612568
O16   O     O_R   0.930710 0.408910 0.646210 -0.612587
Zn1   Zn    Zn3+2 0.478810 0.000000 0.357840 0.942442
Zn2   Zn    Zn3+2 0.521190 0.000000 0.642160 0.942456
Zn3   Zn    Zn3+2 0.978810 0.500000 0.357840 0.942442
Zn4   Zn    Zn3+2 0.021190 0.500000 0.642160 0.942459
C29   C     C_R   0.636796 0.254679 0.670823 0.199097
C30   C     C_R   0.670123 0.194152 0.761462 -0.104502
C31   C     C_R   0.652181 0.205799 0.897190 -0.170271
C32   C     C_R   0.603492 0.279800 0.944015 -0.095912
C33   C     C_R   0.569439 0.340031 0.854933 -0.174762
C34   C     C_R   0.584727 0.326744 0.719033 -0.171184
H17   H     H_    0.713243 0.140385 0.727353 0.151973
H18   H     H_    0.678948 0.159492 0.966129 0.119723
H19   H     H_    0.593396 0.290847 0.049366 0.137662
H20   H     H_    0.532754 0.398324 0.890695 0.119283
H21   H     H_    0.560765 0.375987 0.651563 0.143383
C35   C     C_R   0.213103 0.915784 0.450573 0.188944
C36   C     C_R   0.185475 0.915801 0.321405 -0.146021
C37   C     C_R   0.144506 0.991635 0.272555 -0.175813
C38   C     C_R   0.130250 0.067818 0.352253 -0.139161
C39   C     C_R   0.159387 0.069380 0.479523 -0.148094
C40   C     C_R   0.200912 0.993880 0.528496 -0.161522
H22   H     H_    0.194068 0.856972 0.258872 0.116818
H23   H     H_    0.122521 0.990743 0.173580 0.124678
H24   H     H_    0.097153 0.125816 0.314945 0.123475
H25   H     H_    0.148561 0.128576 0.541052 0.139193
H26   H     H_    0.220087 0.994848 0.629155 0.116203
C41   C     C_R   0.363118 0.254644 0.329139 0.199176
C42   C     C_R   0.329775 0.194069 0.238572 -0.104534
C43   C     C_R   0.347641 0.205697 0.102823 -0.170314
C44   C     C_R   0.396258 0.279729 0.055904 -0.095847
C45   C     C_R   0.430312 0.340015 0.144911 -0.174877
C46   C     C_R   0.415115 0.326742 0.280828 -0.171287
H27   H     H_    0.286693 0.140281 0.272756 0.152018
H28   H     H_    0.320866 0.159351 0.033943 0.119711
H29   H     H_    0.406302 0.290756 0.950541 0.137626
H30   H     H_    0.466935 0.398334 0.109078 0.119224
H31   H     H_    0.439086 0.376020 0.348238 0.143325
C47   C     C_R   0.786838 0.915719 0.549615 0.189119
C48   C     C_R   0.814208 0.915707 0.678935 -0.145765
C49   C     C_R   0.855123 0.991513 0.727987 -0.175930
C50   C     C_R   0.869576 0.067696 0.648345 -0.139211
C51   C     C_R   0.840680 0.069291 0.520921 -0.147962
C52   C     C_R   0.799212 0.993819 0.471744 -0.161730
H32   H     H_    0.805442 0.856883 0.741444 0.116697
H33   H     H_    0.876905 0.990602 0.827088 0.124662
H34   H     H_    0.902621 0.125677 0.685821 0.123472
H35   H     H_    0.851646 0.128491 0.459440 0.139119
H36   H     H_    0.780218 0.994810 0.370986 0.116224
C53   C     C_R   0.136809 0.754670 0.670829 0.199108
C54   C     C_R   0.170143 0.694138 0.761458 -0.104502
C55   C     C_R   0.152203 0.705775 0.897188 -0.170278
C56   C     C_R   0.103511 0.779772 0.944026 -0.095919
C57   C     C_R   0.069456 0.840008 0.854955 -0.174751
C58   C     C_R   0.084741 0.826731 0.719053 -0.171172
H37   H     H_    0.213266 0.640375 0.727338 0.151961
H38   H     H_    0.178974 0.659465 0.966119 0.119721
H39   H     H_    0.093414 0.790810 0.049380 0.137670
H40   H     H_    0.032771 0.898299 0.890726 0.119304
H41   H     H_    0.060775 0.875976 0.651591 0.143374
C59   C     C_R   0.713099 0.415790 0.450587 0.188925
C60   C     C_R   0.685448 0.415810 0.321432 -0.146047
C61   C     C_R   0.644476 0.491648 0.272598 -0.175797
C62   C     C_R   0.630240 0.567832 0.352300 -0.139131
C63   C     C_R   0.659398 0.569391 0.479557 -0.148104
C64   C     C_R   0.700926 0.493887 0.528513 -0.161504
H42   H     H_    0.694024 0.356979 0.258898 0.116828
H43   H     H_    0.622475 0.490758 0.173633 0.124675
H44   H     H_    0.597140 0.625833 0.315005 0.123475
H45   H     H_    0.648586 0.628587 0.541090 0.139194
H46   H     H_    0.720116 0.494852 0.629164 0.116200
C65   C     C_R   0.863118 0.754646 0.329145 0.199181
C66   C     C_R   0.829772 0.694074 0.238576 -0.104536
C67   C     C_R   0.847643 0.705702 0.102828 -0.170312
C68   C     C_R   0.896268 0.779730 0.055913 -0.095868
C69   C     C_R   0.930325 0.840011 0.144924 -0.174880
C70   C     C_R   0.915122 0.826739 0.280839 -0.171292
H47   H     H_    0.786686 0.640289 0.272756 0.152008
H48   H     H_    0.820866 0.659359 0.033945 0.119710
H49   H     H_    0.906315 0.790758 0.950550 0.137640
H50   H     H_    0.966955 0.898327 0.109095 0.119228
H51   H     H_    0.939095 0.876013 0.348253 0.143313
C71   C     C_R   0.286857 0.415735 0.549558 0.189060
C72   C     C_R   0.314324 0.415730 0.678819 -0.145859
C73   C     C_R   0.355255 0.491548 0.727802 -0.175876
C74   C     C_R   0.369629 0.567736 0.648148 -0.139173
C75   C     C_R   0.340643 0.569322 0.520784 -0.148017
C76   C     C_R   0.299159 0.493838 0.471677 -0.161643
H52   H     H_    0.305623 0.356902 0.741332 0.116732
H53   H     H_    0.377112 0.490641 0.826853 0.124654
H54   H     H_    0.402690 0.625724 0.685566 0.123472
H55   H     H_    0.351553 0.628524 0.459292 0.139141
H56   H     H_    0.280096 0.494825 0.370959 0.116209

loop_
_geom_bond_atom_site_label_1
_geom_bond_atom_site_label_2
_ccdc_geom_bond_type
C21   C26   S    
C9    N1    D    
C61   C62   A    
C28   C65   S    
C52   H36   S    
N3    Zn4   S    
H2    N1    S    
C11   N3    D    
C72   C73   A    
C18   C26   D    
C24   C27   S    
C7    O7    A    
O9    Zn2   S    
C12   N4    D    
C63   C64   A    
C8    O8    A    
C14   H5    S    
O7    Zn4   S    
C74   C75   A    
C65   C66   A    
C5    C20   S    
C57   H40   S    
C6    C19   S    
C9    H14   S    
C43   C44   A    
O1    Zn1   S    
O14   Zn3   S    
C4    O4    A    
O16   Zn4   S    
C5    O5    A    
C50   H34   S    
C71   C72   A    
C12   H15   S    
C68   H49   S    
C16   H7    S    
C49   H33   S    
C23   C47   S    
O6    Zn4   S    
C51   C52   A    
C55   C56   A    
C56   C57   A    
C33   C34   A    
C4    C13   S    
C62   H44   S    
C2    O2    A    
C32   H19   S    
C41   C46   A    
C60   H42   S    
C45   C46   A    
C22   C25   S    
C10   N2    D    
C33   H20   S    
C48   H32   S    
C19   C27   D    
C9    C10   S    
C22   C29   S    
C36   H22   S    
C58   H41   S    
C15   C23   D    
C38   H24   S    
O12   Zn2   S    
C16   C24   D    
C46   H31   S    
C10   H13   S    
H3    N4    S    
C47   C48   A    
C6    O6    A    
C49   C50   A    
C42   H27   S    
C36   C37   A    
C51   H35   S    
C65   C70   A    
C69   C70   A    
O15   Zn3   S    
C67   H48   S    
C56   H39   S    
C5    O13   A    
C47   C52   A    
C73   C74   A    
N2    Zn1   S    
C19   H12   S    
C41   C42   A    
C20   H11   S    
C3    O3    A    
C45   H30   S    
C35   C36   A    
C44   H29   S    
C20   C28   D    
C76   H56   S    
C64   H46   S    
C71   C76   A    
N1    Zn2   S    
O3    Zn2   S    
C74   H54   S    
C35   C40   A    
C1    O9    A    
C69   H50   S    
O10   Zn1   S    
C38   C39   A    
C11   C12   S    
C7    C18   S    
C4    O12   A    
C13   C21   D    
C29   C34   A    
C1    C16   S    
C23   C28   S    
C39   C40   A    
C2    C15   S    
O2    Zn2   S    
C7    O15   A    
C30   C31   A    
C3    C14   S    
C8    O16   A    
C37   C38   A    
C34   H21   S    
C60   C61   A    
H4    N3    S    
C39   H25   S    
C62   C63   A    
C24   C41   S    
C11   H16   S    
C15   H8    S    
C30   H17   S    
C53   C54   A    
C67   C68   A    
C18   H9    S    
C54   H37   S    
C32   C33   A    
C70   H51   S    
C40   H26   S    
C2    O10   A    
C54   C55   A    
O8    Zn3   S    
C50   C51   A    
C8    C17   S    
H1    N2    S    
C75   H55   S    
C17   C25   D    
C14   C22   D    
C72   H52   S    
C26   C53   S    
C31   C32   A    
C63   H45   S    
O11   Zn1   S    
O13   Zn4   S    
C6    O14   A    
C31   H18   S    
C61   H43   S    
C27   C71   S    
C21   C35   S    
C42   C43   A    
C66   H47   S    
C59   C64   A    
C17   H10   S    
N4    Zn3   S    
C44   C45   A    
O5    Zn3   S    
C25   C59   S    
C29   C30   A    
C68   C69   A    
C53   C58   A    
C13   H6    S    
C55   H38   S    
C73   H53   S    
C48   C49   A    
C75   C76   A    
C66   C67   A    
C57   C58   A    
C1    O1    A    
C43   H28   S    
O4    Zn1   S    
C37   H23   S    
C59   C60   A    
C3    O11   A    
