data_mof_unit_49856.cif
_audit_creation_date              2012-12-11T16:08:43-0500
_audit_creation_method            fapswitch 2.2
_symmetry_space_group_name_H-M    P1
_symmetry_Int_Tables_number       1
_space_group_crystal_system       triclinic
_cell_length_a                    12.976576
_cell_length_b                    13.268194
_cell_length_c                    27.709319
_cell_angle_alpha                 94.942296
_cell_angle_beta                  90.072702
_cell_angle_gamma                 119.406537
_cell_volume                      4135.50886852

loop_
_atom_site_label
_atom_site_type_symbol
_atom_type_description
_atom_site_fract_x
_atom_site_fract_y
_atom_site_fract_z
_atom_type_partial_charge
C1    C     C_R   0.628304 0.895240 0.427220 0.544370
C2    C     C_R   0.158447 0.742933 0.300955 0.017920
C3    C     C_R   0.157043 0.738737 0.200093 0.015045
C4    C     C_R   0.601439 0.222193 0.440676 0.547643
C5    C     C_R   0.150857 0.645337 0.222929 -0.125198
C6    C     C_R   0.147338 0.645930 0.272719 -0.125385
C7    C     C_R   0.155308 0.735096 0.149609 0.065808
C8    C     C_R   0.131814 0.813288 0.127075 0.064435
C9    C     C_R   0.199950 0.943968 0.358518 -0.102326
C10   C     C_R   0.180326 0.937353 0.308203 0.034626
C11   C     C_R   0.164975 0.838159 0.279023 0.027295
C12   C     C_R   0.616254 0.384774 0.234051 -0.142236
C13   C     C_R   0.184724 0.031242 0.286617 0.098985
C14   C     C_R   0.176387 0.027714 0.235515 0.112724
C15   C     C_R   0.162995 0.928425 0.205527 0.033068
C16   C     C_R   0.267808 0.875717 0.425997 0.545125
C17   C     C_R   0.160275 0.834881 0.228137 -0.017353
C18   C     C_R   0.147217 0.915571 0.153901 0.070929
C19   C     C_R   0.204653 0.853406 0.379147 -0.021090
C20   C     C_R   0.756417 0.933990 0.356122 -0.020798
C21   C     C_R   0.754272 0.931506 0.305493 0.005473
C22   C     C_R   0.747754 0.926862 0.203961 0.030836
C23   C     C_R   0.609130 0.371841 0.283711 -0.002899
C24   C     C_R   0.837385 0.022669 0.232449 -0.134044
C25   C     C_R   0.843014 0.023070 0.282350 -0.135357
C26   C     C_R   0.748249 0.919609 0.153207 0.095820
C27   C     C_R   0.677327 0.810774 0.126429 0.035627
C28   C     C_R   0.627689 0.897950 0.564480 0.546660
C29   C     C_R   0.559042 0.764179 0.350739 -0.131846
C30   C     C_R   0.562760 0.750513 0.300094 0.001506
C31   C     C_R   0.658453 0.838374 0.277455 0.037402
C32   C     C_R   0.470728 0.655270 0.271160 0.000990
C33   C     C_R   0.477920 0.646007 0.220746 -0.136035
C34   C     C_R   0.676564 0.330308 0.305822 0.002376
C35   C     C_R   0.571566 0.733954 0.198339 -0.012212
C36   C     C_R   0.658999 0.833181 0.226592 0.041414
C37   C     C_R   0.583634 0.721372 0.148415 -0.164960
C38   C     C_R   0.652028 0.859085 0.378590 -0.024023
C39   C     C_R   0.742118 0.301562 0.650984 -0.126541
C40   C     C_R   0.603671 0.228221 0.578163 0.542987
C41   C     C_R   0.756700 0.325819 0.701613 -0.011382
C42   C     C_R   0.769693 0.353331 0.803572 0.003910
C43   C     C_R   0.860029 0.347091 0.778349 -0.129400
C44   C     C_R   0.853713 0.331987 0.727708 -0.015279
C45   C     C_R   0.691237 0.357819 0.206226 0.055060
C46   C     C_R   0.778043 0.371094 0.854181 -0.115328
C47   C     C_R   0.688300 0.379129 0.879113 -0.000212
C48   C     C_R   0.565275 0.319738 0.651321 -0.113223
C49   C     C_R   0.572968 0.337009 0.701686 0.021959
C50   C     C_R   0.667771 0.337514 0.727090 0.003320
C51   C     C_R   0.483387 0.346537 0.726802 0.070275
C52   C     C_R   0.271440 0.879253 0.563338 0.546388
C53   C     C_R   0.484980 0.350740 0.777571 -0.014319
C54   C     C_R   0.579302 0.350695 0.803119 -0.034695
C55   C     C_R   0.672212 0.347175 0.777890 0.026610
C56   C     C_1   0.698164 0.375521 0.155423 -0.024255
C57   C     C_R   0.585824 0.359692 0.853630 -0.120988
C58   C     C_R   0.642599 0.291419 0.626455 -0.021041
C59   C     C_1   0.221039 0.862339 0.609925 0.006652
C60   C     C_R   0.071272 0.748754 0.718429 0.121456
C61   C     C_R   0.058934 0.740942 0.768546 -0.112485
C62   C     C_R   0.238686 0.927754 0.785728 0.118141
C63   C     C_R   0.250904 0.935679 0.735588 -0.114672
C64   C     C_1   0.636623 0.272299 0.395668 0.007145
C65   C     C_R   0.168637 0.846552 0.702091 0.046249
C66   C     C_R   0.142383 0.829041 0.802041 0.047532
C67   C     C_1   0.659238 0.302980 0.355510 -0.038339
C68   C     C_1   0.125384 0.816150 0.852999 -0.017967
C69   C     C_1   0.191724 0.853316 0.651271 -0.014439
C70   C     C_1   0.101499 0.798238 0.894513 0.002334
C71   C     C_1   0.647204 0.859903 0.608670 0.001132
C72   C     C_R   0.666306 0.891948 0.734451 -0.136270
C73   C     C_R   0.676759 0.877569 0.783201 0.002989
C74   C     C_R   0.696812 0.707686 0.758790 -0.101570
C75   C     C_R   0.685953 0.721934 0.709609 0.119412
C76   C     C_R   0.753308 0.305362 0.278284 -0.097316
C77   C     C_R   0.671192 0.815275 0.697723 0.057441
C78   C     C_1   0.705098 0.398762 0.114015 -0.005737
C79   C     C_R   0.692306 0.785009 0.795495 0.005600
C80   C     C_1   0.707910 0.771008 0.845499 -0.038746
C81   C     C_1   0.659682 0.835311 0.648267 -0.014600
C82   C     C_1   0.724072 0.762529 0.887388 0.006829
C83   C     C_R   0.066857 0.773673 0.079070 0.588764
C84   C     C_R   0.717114 0.441798 0.067443 0.548763
C85   C     C_R   0.718823 0.784109 0.080275 0.578179
C86   C     C_R   0.056873 0.766515 0.941323 0.538048
C87   C     C_R   0.710098 0.433998 0.928946 0.538158
C88   C     C_R   0.762710 0.320640 0.228496 0.126566
C89   C     C_R   0.173287 0.749419 0.350869 -0.125973
C90   C     C_R   0.748412 0.754552 0.936874 0.557030
C91   C     C_1   0.864664 0.014169 0.384615 0.223895
C92   C     C_1   0.368743 0.564810 0.291998 0.190810
C93   C     C_1   0.948308 0.323463 0.703647 0.199541
C94   C     C_1   0.390155 0.357163 0.802797 0.187737
C95   C     C_1   0.672163 0.959361 0.819897 0.208347
C96   C     C_1   0.532034 0.400867 0.311738 0.187543
Cr1   Cr    Cr6+3 0.416430 0.829200 0.492370 1.048558
Cr2   Cr    Cr6+3 0.674630 0.087020 0.504170 1.059475
Cr3   Cr    Cr6+3 0.408920 0.083740 0.503490 1.051933
Cr4   Cr    Cr6+3 0.914010 0.832750 0.013970 1.061344
Cr5   Cr    Cr6+3 0.922310 0.578600 0.003000 1.041597
Cr6   Cr    Cr6+3 0.656280 0.574630 0.003870 1.037201
H1    H     H_    0.804898 0.273060 0.295492 0.114834
H2    H     H_    0.935253 0.352991 0.798201 0.131624
H3    H     H_    0.515393 0.362664 0.873432 0.165104
H4    H     H_    0.491284 0.316130 0.631567 0.186868
H5    H     H_    0.563540 0.416218 0.217029 0.114867
H6    H     H_    0.984499 0.665606 0.781544 0.106708
H7    H     H_    0.326015 0.010400 0.722582 0.113777
H8    H     H_    0.654616 0.963558 0.725000 0.118451
H9    H     H_    0.709121 0.636690 0.768486 0.109322
H10   H     H_    0.173930 0.677931 0.366906 0.145272
H11   H     H_    0.146049 0.569566 0.202753 0.106013
H12   H     H_    0.221748 0.023220 0.381164 0.185169
H13   H     H_    0.140354 0.572011 0.289293 0.138708
H14   H     H_    0.266343 0.199464 0.225247 0.240083
H15   H     H_    0.116735 0.141484 0.227128 0.226846
H16   H     H_    0.276111 0.204283 0.308557 0.260037
H17   H     H_    0.126377 0.142909 0.310374 0.241697
H18   H     H_    0.911589 0.047635 0.137677 0.227414
H19   H     H_    0.804369 0.086254 0.139612 0.253115
H20   H     H_    0.888758 0.270567 0.222352 0.214660
H21   H     H_    0.907916 0.377213 0.189127 0.226825
H22   H     H_    0.389618 0.426480 0.711873 0.251530
H23   H     H_    0.906944 0.095909 0.216546 0.102682
H24   H     H_    0.308754 0.279059 0.708299 0.257623
H25   H     H_    0.923286 0.589305 0.702216 0.226593
H26   H     H_    0.942633 0.690686 0.665586 0.250673
H27   H     H_    0.385281 0.088162 0.802036 0.233286
H28   H     H_    0.370349 0.985680 0.837249 0.244877
H29   H     H_    0.711437 0.585111 0.686752 0.225721
H30   H     H_    0.605975 0.593682 0.655311 0.244886
H31   H     H_    0.252863 0.656099 0.132356 0.228415
H32   H     H_    0.103061 0.566856 0.124721 0.235241
H33   H     H_    0.075393 0.016308 0.138635 0.262566
H34   H     H_    0.915254 0.097891 0.302727 0.118440
H35   H     H_    0.226585 0.079251 0.132361 0.262584
H36   H     H_    0.524981 0.639550 0.127392 0.130856
H37   H     H_    0.409715 0.570487 0.198879 0.107455
H38   H     H_    0.481121 0.704531 0.368477 0.158385
H39   H     H_    0.856986 0.385055 0.873857 0.137564
H40   H     H_    0.802986 0.282250 0.630963 0.153711
N1    N     N_3   0.184444 0.126498 0.214685 -0.670913
N2    N     N_3   0.987295 0.657037 0.684152 -0.606199
N3    N     N_3   0.323351 0.018869 0.820016 -0.602235
N4    N     N_1   0.668469 0.024981 0.849215 -0.288479
N5    N     N_3   0.690901 0.643285 0.671889 -0.626835
N6    N     N_1   0.471044 0.423898 0.334905 -0.279635
N7    N     N_3   0.173145 0.650007 0.120668 -0.595601
N8    N     N_3   0.144837 0.002809 0.127475 -0.594362
N9    N     N_3   0.198729 0.130982 0.317005 -0.624636
N10   N     N_3   0.822955 0.019785 0.128497 -0.591755
N11   N     N_1   0.951111 0.077899 0.407178 -0.275243
N12   N     N_1   0.287081 0.492134 0.308631 -0.311918
N13   N     N_3   0.843635 0.298131 0.200469 -0.634882
N14   N     N_1   0.024106 0.316663 0.684427 -0.276511
N15   N     N_1   0.314454 0.362289 0.822868 -0.277920
N16   N     N_3   0.389566 0.349312 0.700333 -0.640225
O1    O     O_R   0.296680 0.802170 0.437540 -0.514124
O2    O     O_R   0.637200 0.461990 0.052510 -0.506453
O3    O     O_R   0.664790 0.681920 0.057970 -0.508187
O4    O     O_R   0.525380 0.838530 0.443500 -0.502346
O5    O     O_R   0.815840 0.852920 0.961840 -0.487746
O6    O     O_R   0.012100 0.822630 0.963670 -0.508222
O7    O     O_R   0.037010 0.668460 0.953040 -0.504920
O8    O     O_R   0.813390 0.478970 0.949660 -0.502158
O9    O     O_R   0.632250 0.456930 0.945520 -0.521675
O10   O     O_R   0.660200 0.677230 0.958780 -0.485791
O11   O     O_3   0.830870 0.661990 0.006950 -0.284947
O12   O     O_R   0.662610 0.183990 0.557860 -0.500371
O13   O     O_R   0.702130 0.995190 0.446810 -0.493742
O14   O     O_R   0.661770 0.181390 0.458760 -0.494491
O15   O     O_R   0.499820 0.198480 0.455280 -0.496147
O16   O     O_R   0.311660 0.976250 0.449080 -0.500199
O17   O     O_R   0.297580 0.804960 0.544440 -0.498699
O18   O     O_R   0.526220 0.841130 0.542590 -0.493683
O19   O     O_R   0.703030 0.997990 0.553710 -0.499766
O20   O     O_R   0.500730 0.201280 0.562180 -0.515212
O21   O     O_R   0.312500 0.978850 0.548170 -0.492892
O22   O     O_3   0.499990 0.999990 0.500010 -0.256194
O23   O     O_R   0.820790 0.857990 0.068830 -0.470691
O24   O     O_R   0.016700 0.827330 0.062850 -0.475555
O25   O     O_R   0.041970 0.673520 0.060040 -0.481093
O26   O     O_R   0.817980 0.483660 0.048840 -0.490277

loop_
_geom_bond_atom_site_label_1
_geom_bond_atom_site_label_2
_ccdc_geom_bond_type
C15   C18   A    
C57   H3    S    
C63   C65   A    
Cr6   O9    S    
Cr1   O17   S    
C8    C83   S    
C85   O3    A    
H20   N13   S    
C66   C68   S    
C35   C36   A    
C48   H4    S    
C40   O12   A    
C84   O2    A    
C7    C8    A    
C39   C41   A    
H21   N13   S    
C53   C54   A    
C95   N4    T    
C12   C23   A    
C26   C27   A    
C72   C77   A    
C9    H12   S    
Cr1   O1    S    
H15   N1    S    
C33   H37   S    
C91   N11   T    
C3    C7    A    
Cr6   O3    S    
C5    C6    A    
C87   O8    A    
C56   C78   T    
C23   C96   S    
C42   C46   A    
C27   C85   S    
C61   H6    S    
C16   O1    A    
C43   H2    S    
C44   C93   S    
C25   H34   S    
C7    N7    S    
C61   C66   A    
C9    C19   A    
C87   O9    A    
C45   C56   S    
C49   C51   A    
C62   N3    S    
H22   N16   S    
C29   C38   A    
Cr5   O8    S    
C85   O23   A    
Cr5   O11   S    
C89   H10   S    
C29   C30   A    
Cr4   O24   S    
C9    C10   A    
C76   C88   A    
H27   N3    S    
Cr5   O25   S    
Cr2   O14   S    
Cr6   O11   S    
C53   C94   S    
Cr1   O18   S    
C13   C14   A    
H28   N3    S    
C2    C6    A    
C86   O7    A    
C2    C11   A    
C74   C79   A    
C46   H39   S    
H24   N16   S    
H17   N9    S    
C96   N6    T    
C20   C91   S    
C72   H8    S    
H18   N10   S    
C40   C58   S    
C74   C75   A    
C62   C66   A    
C88   N13   S    
C84   O26   A    
C45   C88   A    
H31   N7    S    
C24   C25   A    
C13   N9    S    
Cr3   O20   S    
C80   C82   T    
Cr6   O2    S    
C74   H9    S    
C28   O18   A    
Cr1   O22   S    
C75   N5    S    
H32   N7    S    
C1    O13   A    
C8    C18   A    
C83   O24   A    
C60   C61   A    
C51   C53   A    
C47   C87   S    
C63   H7    S    
C2    C89   A    
C43   C44   A    
C64   C67   T    
H33   N8    S    
Cr3   O21   S    
C62   C63   A    
C19   C89   A    
C52   C59   S    
C42   C55   A    
C47   C57   A    
H14   N1    S    
C20   C38   A    
C5    H11   S    
Cr3   O15   S    
C39   H40   S    
C77   C81   S    
C30   C31   A    
C23   C34   A    
C21   C31   A    
C73   C79   A    
C83   O25   A    
Cr4   O6    S    
C46   C47   A    
Cr2   O19   S    
Cr5   O7    S    
Cr4   O23   S    
H26   N2    S    
C52   O17   A    
Cr5   O26   S    
C1    C38   S    
C59   C69   T    
C40   O20   A    
Cr2   O13   S    
C48   C49   A    
C1    O4    A    
Cr1   O4    S    
C94   N15   T    
C4    O15   A    
C24   H23   S    
C41   C44   A    
C22   C24   A    
H35   N8    S    
C28   C71   S    
C86   O6    A    
C42   C43   A    
C73   C95   S    
Cr2   O22   S    
C70   C86   S    
C41   C50   A    
C35   C37   A    
C28   O19   A    
C16   O16   A    
C15   C17   A    
C29   H38   S    
C21   C25   A    
C54   C55   A    
C11   C17   A    
Cr6   O10   S    
C4    O14   A    
C90   O10   A    
Cr4   O11   S    
C31   C36   A    
H30   N5    S    
C93   N14   T    
C72   C73   A    
C3    C5    A    
C10   C13   A    
C34   C67   S    
C60   C65   A    
C12   H5    S    
C48   C58   A    
C12   C45   A    
C76   H1    S    
C22   C36   A    
C4    C64   S    
C51   N16   S    
C50   C55   A    
C82   C90   S    
H19   N10   S    
C90   O5    A    
C37   H36   S    
C32   C33   A    
C26   N10   S    
C14   N1    S    
C52   O21   A    
Cr3   O22   S    
C60   N2    S    
C30   C32   A    
C39   C58   A    
C32   C92   S    
Cr3   O16   S    
C27   C37   A    
C16   C19   S    
C65   C69   S    
C33   C35   A    
C3    C17   A    
Cr4   O5    S    
H25   N2    S    
H16   N9    S    
C6    H13   S    
C10   C11   A    
C79   C80   S    
Cr2   O12   S    
C78   C84   S    
C20   C21   A    
C68   C70   T    
C49   C50   A    
C22   C26   A    
C75   C77   A    
C14   C15   A    
C92   N12   T    
H29   N5    S    
C18   N8    S    
C34   C76   A    
C71   C81   T    
C54   C57   A    
