data_mof_unit_31023.cif
_audit_creation_date              2012-12-10T17:57:25-0500
_audit_creation_method            fapswitch 2.2
_symmetry_space_group_name_H-M    P1
_symmetry_Int_Tables_number       1
_space_group_crystal_system       triclinic
_cell_length_a                    9.529722
_cell_length_b                    10.832805
_cell_length_c                    13.463838
_cell_angle_alpha                 90.14791
_cell_angle_beta                  73.271602
_cell_angle_gamma                 89.994
_cell_volume                      1331.09426588

loop_
_atom_site_label
_atom_site_type_symbol
_atom_type_description
_atom_site_fract_x
_atom_site_fract_y
_atom_site_fract_z
_atom_type_partial_charge
C1    C     C_R   0.499971 0.737893 0.500135 0.820649
C2    C     C_R   0.449358 0.446730 0.973352 0.108360
C3    C     C_R   0.494714 0.442923 0.863824 0.083304
C4    C     C_R   0.554324 0.471597 0.027099 -0.001283
C5    C     C_R   0.705214 0.463783 0.972551 0.124354
C6    C     C_R   0.749116 0.436227 0.867246 -0.210920
C7    C     C_R   0.645693 0.424594 0.813770 -0.196823
C8    C     C_R   0.515168 0.508835 0.131959 0.290645
C9    C     C_R   0.770013 0.494489 0.131127 -0.239489
C10   C     C_R   0.386022 0.451145 0.809931 -0.107835
C11   C     C_R   0.626988 0.936154 0.501286 -0.172706
C12   C     C_R   0.424024 0.484727 0.698722 0.809558
C13   C     C_R   0.627018 0.063870 0.501192 -0.177617
C14   C     C_R   0.499977 0.128241 0.500030 -0.015825
C15   C     C_R   0.372885 0.063859 0.499008 -0.185355
C16   C     C_R   0.372851 0.936143 0.499109 -0.137343
C17   C     C_R   0.499925 0.871767 0.500194 -0.030167
C18   C     C_R   0.898176 0.573257 0.567229 -0.121792
C19   C     C_R   0.046816 0.573253 0.567336 0.695535
C20   C     C_R   0.101704 0.426751 0.432687 -0.088464
C21   C     C_R   0.952941 0.426785 0.432716 -0.043606
C22   C     C_R   0.500005 0.262103 0.499921 0.766378
C23   C     C_R   0.577442 0.504924 0.300171 0.837555
C24   C     C_R   0.811139 0.481590 0.024103 -0.183082
C25   C     C_R   0.621462 0.504598 0.186380 -0.114782
C26   C     C_R   0.239787 0.425153 0.864324 -0.171488
C27   C     C_R   0.202264 0.397324 0.969764 -0.163066
C28   C     C_R   0.304002 0.412898 0.024779 -0.097043
Cu1   Cu    Cu3+1 0.359340 0.499980 0.500000 1.026624
Cu2   Cu    Cu3+1 0.640660 0.500020 0.500000 0.947798
H1    H     H_    0.854560 0.498089 0.170299 0.184216
H2    H     H_    0.726364 0.111900 0.502047 0.151851
H3    H     H_    0.273561 0.111880 0.498071 0.151885
H4    H     H_    0.273496 0.888116 0.498270 0.179039
H5    H     H_    0.820159 0.631981 0.621077 0.161626
H6    H     H_    0.179542 0.367959 0.378779 0.155094
H7    H     H_    0.918832 0.368051 0.378832 0.138199
H8    H     H_    0.863992 0.423354 0.825914 0.146057
H9    H     H_    0.925467 0.482798 0.981184 0.152285
H10   H     H_    0.155856 0.421501 0.824630 0.155899
H11   H     H_    0.270035 0.391459 0.106634 0.163828
H12   H     H_    0.093928 0.364664 0.010123 0.136822
H13   H     H_    0.687169 0.392359 0.734994 0.182114
H14   H     H_    0.726310 0.888136 0.502227 0.160604
N1    N     N_R   0.147940 0.499970 0.499970 -0.204254
N2    N     N_R   0.852060 0.500060 0.499990 -0.194505
O1    O     O_R   0.381250 0.680340 0.500010 -0.528666
O2    O     O_R   0.618820 0.680370 0.500010 -0.588810
O3    O     O_R   0.323240 0.499950 0.650980 -0.530797
O4    O     O_R   0.560810 0.499980 0.650980 -0.601528
O5    O     O_R   0.381180 0.319630 0.499990 -0.603422
O6    O     O_R   0.618750 0.319660 0.499990 -0.597756
O7    O     O_R   0.439190 0.500020 0.349020 -0.535213
O8    O     O_R   0.676760 0.500050 0.349020 -0.591023
F1    F     F_    0.088718 0.647270 0.634920 -0.666091
Cl1   Cl    Cl    0.349352 0.591765 0.185726 -0.629530

loop_
_geom_bond_atom_site_label_1
_geom_bond_atom_site_label_2
_ccdc_geom_bond_type
C12   O4    A    
C19   N1    A    
C1    O2    A    
C12   O3    A    
C6    C7    A    
C7    H13   S    
C11   C13   A    
C18   H5    S    
C13   H2    S    
C1    C17   S    
C20   N1    A    
C4    C8    A    
C14   C22   S    
C6    H8    S    
C2    C3    A    
Cu2   O4    S    
C9    C25   A    
C11   H14   S    
C9    C24   A    
C3    C10   A    
Cu1   O3    S    
C13   C14   A    
C8    C25   A    
Cu2   O8    S    
C27   H12   S    
C26   H10   S    
C26   C27   A    
Cu1   Cu2   S    
C5    C24   A    
C10   C12   S    
Cu1   O1    S    
C2    C4    A    
C18   N2    A    
Cu2   O2    S    
Cu2   N2    S    
C23   O7    A    
C3    C7    A    
C23   C25   S    
C1    O1    A    
C5    C6    A    
C22   O5    A    
C9    H1    S    
C15   C16   A    
C20   H6    S    
C28   H11   S    
C24   H9    S    
C21   H7    S    
C20   C21   A    
C23   O8    A    
C22   O6    A    
C21   N2    A    
Cu1   O5    S    
C19   F1    S    
C27   C28   A    
C18   C19   A    
Cu2   O6    S    
C14   C15   A    
C4    C5    A    
C2    C28   A    
C16   H4    S    
C15   H3    S    
C10   C26   A    
C11   C17   A    
C8    Cl1   S    
Cu1   N1    S    
C16   C17   A    
Cu1   O7    S    
