data_mof_unit_13134.cif
_audit_creation_date              2012-12-11T14:15:00-0500
_audit_creation_method            fapswitch 2.2
_symmetry_space_group_name_H-M    P1
_symmetry_Int_Tables_number       1
_space_group_crystal_system       triclinic
_cell_length_a                    24.401532
_cell_length_b                    17.235777
_cell_length_c                    15.725864
_cell_angle_alpha                 89.897937
_cell_angle_beta                  129.294106
_cell_angle_gamma                 90.077053
_cell_volume                      5118.58152347

loop_
_atom_site_label
_atom_site_type_symbol
_atom_type_description
_atom_site_fract_x
_atom_site_fract_y
_atom_site_fract_z
_atom_type_partial_charge
C1    C     C_R   0.337584 0.379662 0.210333 0.362195
C2    C     C_R   0.634653 0.688334 0.497219 0.125948
C3    C     C_R   0.864497 0.188198 0.500403 0.128132
C4    C     C_R   0.134663 0.188328 0.497223 0.125947
C5    C     C_R   0.348959 0.618321 0.131181 0.107595
C6    C     C_R   0.640143 0.652609 0.839278 0.101990
C7    C     C_R   0.848968 0.118350 0.131196 0.107545
C8    C     C_R   0.140094 0.152684 0.839187 0.102122
C9    C     C_2   0.645579 0.797936 0.410608 -0.106866
C10   C     C_2   0.353307 0.797253 0.586642 -0.110283
C11   C     C_2   0.145583 0.297935 0.410610 -0.106874
C12   C     C_R   0.655635 0.366923 0.770421 0.342861
C13   C     C_2   0.853303 0.297249 0.586642 -0.110290
C14   C     C_2   0.659828 0.765721 0.500162 -0.190534
C15   C     C_2   0.338526 0.765026 0.496857 -0.189705
C16   C     C_2   0.159838 0.265715 0.500167 -0.190502
C17   C     C_2   0.838521 0.265022 0.496858 -0.189704
C18   C     C_2   0.194958 0.351846 0.417506 -0.112661
C19   C     C_2   0.802082 0.347561 0.579373 -0.116305
C20   C     C_2   0.694962 0.851838 0.417512 -0.112687
C21   C     C_2   0.302090 0.847572 0.579378 -0.116299
C22   C     C_2   0.263465 0.355656 0.507654 -0.187707
C23   C     C_R   0.837596 0.879626 0.210382 0.362219
C24   C     C_2   0.732611 0.342500 0.493664 -0.190751
C25   C     C_2   0.763473 0.855618 0.507651 -0.187729
C26   C     C_2   0.232620 0.842530 0.493659 -0.190737
C27   C     C_2   0.649850 0.250876 0.865418 -0.195082
C28   C     C_2   0.318962 0.310407 0.050913 -0.181888
C29   C     C_2   0.149796 0.750824 0.865308 -0.195130
C30   C     C_2   0.819012 0.810163 0.051143 -0.181875
C31   C     C_2   0.693239 0.204299 0.864065 -0.122792
C32   C     C_2   0.251775 0.330764 0.970126 -0.149984
C33   C     C_2   0.193243 0.704282 0.864050 -0.122823
C34   C     C_R   0.155623 0.866906 0.770390 0.342888
C35   C     C_2   0.751890 0.830652 0.970194 -0.150043
C36   C     C_2   0.304316 0.648940 0.017945 -0.191630
C37   C     C_2   0.673656 0.720272 0.910415 -0.178912
C38   C     C_2   0.804331 0.148998 0.017976 -0.191604
C39   C     C_2   0.173525 0.220409 0.910215 -0.178878
C40   C     C_R   0.610836 0.390483 0.407199 -0.136336
C41   C     C_R   0.387415 0.395589 0.592999 -0.145193
C42   C     C_R   0.110841 0.890495 0.407200 -0.136363
C43   C     C_R   0.887419 0.895576 0.592999 -0.145218
C44   C     C_2   0.233452 0.645663 0.949126 -0.132896
C45   C     C_R   0.411786 0.642542 0.591564 -0.098271
C46   C     C_2   0.703708 0.773204 0.888408 -0.128317
C47   C     C_2   0.733468 0.145676 0.949128 -0.132986
C48   C     C_2   0.203691 0.273272 0.888337 -0.128217
C49   C     C_R   0.687083 0.394569 0.589567 -0.116491
C50   C     C_R   0.311269 0.401799 0.411988 -0.118648
C51   C     C_R   0.187088 0.894586 0.589565 -0.116476
C52   C     C_R   0.811273 0.901779 0.411987 -0.118585
C53   C     C_R   0.561283 0.361237 0.762929 -0.215438
C54   C     C_R   0.428529 0.380663 0.209952 -0.218412
C55   C     C_R   0.061270 0.861221 0.762893 -0.215448
C56   C     C_R   0.585679 0.643331 0.406513 -0.103230
C57   C     C_R   0.928555 0.880574 0.210031 -0.218346
C58   C     C_R   0.360792 0.352703 0.154712 0.089092
C59   C     C_R   0.623214 0.322996 0.801788 0.097424
C60   C     C_R   0.860830 0.852579 0.154840 0.088903
C61   C     C_R   0.123191 0.822969 0.801731 0.097475
C62   C     C_R   0.678725 0.372066 0.497760 0.119684
C63   C     C_R   0.318454 0.381436 0.503304 0.122658
C64   C     C_R   0.178733 0.872088 0.497759 0.119685
C65   C     C_R   0.818461 0.881409 0.503303 0.122643
C66   C     C_R   0.341556 0.645768 0.409081 -0.169441
C67   C     C_R   0.911775 0.142536 0.591562 -0.098243
C68   C     C_R   0.659359 0.645340 0.589273 -0.167507
C69   C     C_R   0.841559 0.145770 0.409083 -0.169470
C70   C     C_R   0.159370 0.145333 0.589277 -0.167491
C71   C     C_R   0.421227 0.604654 0.195808 -0.242234
C72   C     C_R   0.572982 0.623428 0.789463 -0.219720
C73   C     C_R   0.921234 0.104669 0.195818 -0.242236
C74   C     C_R   0.072956 0.123464 0.789411 -0.219722
C75   C     C_R   0.665131 0.616016 0.792172 0.315621
C76   C     C_R   0.329969 0.597968 0.195159 0.343084
C77   C     C_R   0.165113 0.116062 0.792136 0.315519
C78   C     C_R   0.085684 0.143329 0.406515 -0.103228
C79   C     C_R   0.829973 0.097987 0.195164 0.343135
C80   C     C_3   0.268976 0.359541 0.185340 -1.095729
C81   C     C_3   0.733783 0.369312 0.830586 -1.078937
C82   C     C_3   0.768927 0.859641 0.185268 -1.095631
C83   C     C_3   0.233771 0.869285 0.830552 -1.079006
C84   C     C_3   0.741869 0.600366 0.849159 -1.076184
C85   C     C_3   0.257617 0.577558 0.156527 -1.126658
C86   C     C_3   0.241857 0.100391 0.849186 -1.076096
C87   C     C_3   0.757613 0.077611 0.156521 -1.126692
C88   C     C_R   0.364501 0.688201 0.500402 0.128126
H1    H     H_    0.698436 0.791117 0.580804 0.126285
H2    H     H_    0.712866 0.309930 0.420361 0.131374
H3    H     H_    0.782664 0.830029 0.585031 0.128365
H4    H     H_    0.212874 0.809976 0.420345 0.131368
H5    H     H_    0.204019 0.610588 0.964113 0.160593
H6    H     H_    0.699566 0.768765 0.815595 0.135837
H7    H     H_    0.704041 0.110548 0.964079 0.160597
H8    H     H_    0.199786 0.268694 0.815748 0.135824
H9    H     H_    0.706412 0.215744 0.811157 0.151186
H10   H     H_    0.229677 0.383763 0.974708 0.154712
H11   H     H_    0.206488 0.715765 0.811245 0.151226
H12   H     H_    0.298138 0.789492 0.415995 0.129983
H13   H     H_    0.729895 0.883837 0.974552 0.154650
H14   H     H_    0.330620 0.684491 0.996103 0.135613
H15   H     H_    0.675500 0.725620 0.980911 0.136057
H16   H     H_    0.830630 0.184596 0.996170 0.135651
H17   H     H_    0.175154 0.225893 0.980493 0.135904
H18   H     H_    0.636312 0.237588 0.917746 0.133686
H19   H     H_    0.341177 0.258230 0.044646 0.145956
H20   H     H_    0.136179 0.737488 0.917522 0.133667
H21   H     H_    0.841139 0.757800 0.045106 0.146102
H22   H     H_    0.589975 0.390670 0.322648 0.092718
H23   H     H_    0.198446 0.291110 0.580809 0.126273
H24   H     H_    0.408285 0.397646 0.677515 0.092100
H25   H     H_    0.089981 0.890687 0.322649 0.092718
H26   H     H_    0.908287 0.897633 0.677514 0.092115
H27   H     H_    0.736967 0.401572 0.670471 0.106016
H28   H     H_    0.261547 0.414454 0.332922 0.106385
H29   H     H_    0.236973 0.901605 0.670465 0.106009
H30   H     H_    0.761549 0.914435 0.332929 0.106368
H31   H     H_    0.524134 0.344810 0.775483 0.120850
H32   H     H_    0.460120 0.377296 0.183782 0.120295
H33   H     H_    0.024114 0.844785 0.775429 0.120851
H34   H     H_    0.798131 0.289487 0.415996 0.129982
H35   H     H_    0.960157 0.877150 0.183886 0.120337
H36   H     H_    0.305426 0.666143 0.325541 0.130380
H37   H     H_    0.698070 0.665341 0.671962 0.125331
H38   H     H_    0.805436 0.166153 0.325549 0.130395
H39   H     H_    0.198091 0.165324 0.671968 0.125306
H40   H     H_    0.451063 0.603838 0.166430 0.118004
H41   H     H_    0.542965 0.632240 0.817491 0.111588
H42   H     H_    0.951071 0.103859 0.166442 0.118011
H43   H     H_    0.042934 0.132286 0.817430 0.111559
H44   H     H_    0.436846 0.656650 0.675399 0.084652
H45   H     H_    0.177349 0.376649 0.340461 0.118058
H46   H     H_    0.555583 0.658929 0.321233 0.090884
H47   H     H_    0.936815 0.156633 0.675391 0.084629
H48   H     H_    0.055590 0.158928 0.321237 0.090880
H49   H     H_    0.603630 0.774990 0.329594 0.115932
H50   H     H_    0.397274 0.776727 0.668097 0.117078
H51   H     H_    0.103634 0.274987 0.329597 0.115925
H52   H     H_    0.897273 0.276728 0.668098 0.117075
H53   H     H_    0.233840 0.324243 0.110728 0.257155
H54   H     H_    0.280003 0.321834 0.251533 0.261226
H55   H     H_    0.239798 0.412803 0.173980 0.253306
H56   H     H_    0.820581 0.378848 0.653039 0.118860
H57   H     H_    0.763285 0.357254 0.919236 0.265411
H58   H     H_    0.748976 0.325488 0.797462 0.240622
H59   H     H_    0.749696 0.427829 0.824322 0.255973
H60   H     H_    0.733719 0.824489 0.110520 0.257213
H61   H     H_    0.779853 0.821865 0.251336 0.261155
H62   H     H_    0.739858 0.912960 0.174051 0.253328
H63   H     H_    0.263274 0.857172 0.919188 0.265423
H64   H     H_    0.248950 0.825493 0.797373 0.240615
H65   H     H_    0.249698 0.927813 0.824352 0.255985
H66   H     H_    0.770966 0.655068 0.865240 0.246811
H67   H     H_    0.677352 0.876662 0.340478 0.118069
H68   H     H_    0.766349 0.570966 0.928768 0.266520
H69   H     H_    0.747268 0.561902 0.798386 0.249243
H70   H     H_    0.223501 0.629950 0.125024 0.253392
H71   H     H_    0.234000 0.531549 0.093133 0.254711
H72   H     H_    0.260677 0.552749 0.224502 0.260161
H73   H     H_    0.270978 0.155075 0.865283 0.246714
H74   H     H_    0.266306 0.071002 0.928791 0.266553
H75   H     H_    0.247272 0.061905 0.798449 0.249224
H76   H     H_    0.723509 0.130015 0.125002 0.253421
H77   H     H_    0.733988 0.031598 0.093133 0.254724
H78   H     H_    0.320589 0.878843 0.653054 0.118857
H79   H     H_    0.760658 0.052819 0.224490 0.260140
H80   H     H_    0.282656 0.330093 0.585049 0.128341
N1    N     N_R   0.389060 0.424180 0.294540 -0.058472
N2    N     N_R   0.374530 0.423490 0.443400 -0.038799
N3    N     N_R   0.125470 0.923490 0.556600 -0.044094
N4    N     N_R   0.874530 0.923490 0.443400 -0.038804
N5    N     N_R   0.555250 0.423100 0.705420 -0.053710
N6    N     N_R   0.444750 0.423100 0.294580 -0.054789
N7    N     N_R   0.055250 0.923100 0.705420 -0.053710
N8    N     N_R   0.944750 0.923100 0.294580 -0.054804
N9    N     N_R   0.375210 0.577180 0.443400 -0.041609
N10   N     N_R   0.624790 0.577180 0.556600 -0.040787
N11   N     N_R   0.875210 0.077180 0.443400 -0.041609
N12   N     N_R   0.610940 0.424180 0.705460 -0.059318
N13   N     N_R   0.124790 0.077180 0.556600 -0.040790
N14   N     N_R   0.445430 0.577570 0.294580 -0.052142
N15   N     N_R   0.554570 0.577570 0.705420 -0.051234
N16   N     N_R   0.945430 0.077570 0.294580 -0.052142
N17   N     N_R   0.054570 0.077570 0.705420 -0.051220
N18   N     N_R   0.611620 0.576500 0.705460 -0.057969
N19   N     N_R   0.388380 0.576500 0.294540 -0.059096
N20   N     N_R   0.111620 0.076500 0.705460 -0.057957
N21   N     N_R   0.888380 0.076500 0.294540 -0.059093
N22   N     N_R   0.421010 0.576890 0.556640 -0.041486
N23   N     N_R   0.889060 0.924180 0.294540 -0.058491
N24   N     N_R   0.578990 0.576890 0.443360 -0.041299
N25   N     N_R   0.921010 0.076890 0.556640 -0.041485
N26   N     N_R   0.078990 0.076890 0.443360 -0.041298
N27   N     N_R   0.110940 0.924180 0.705460 -0.059318
N28   N     N_R   0.579670 0.423790 0.443360 -0.039263
N29   N     N_R   0.420330 0.423790 0.556640 -0.038056
N30   N     N_R   0.079670 0.923790 0.443360 -0.039264
N31   N     N_R   0.920330 0.923790 0.556640 -0.038061
N32   N     N_R   0.625470 0.423490 0.556600 -0.044096
Ni1   Ni    Ni4+2 0.383200 0.500680 0.370150 0.207253
Ni2   Ni    Ni4+2 0.616800 0.500680 0.629850 0.207908
Ni3   Ni    Ni4+2 0.883200 0.000680 0.370150 0.207244
Ni4   Ni    Ni4+2 0.116800 0.000680 0.629850 0.207912
Ni5   Ni    Ni4+2 0.512440 0.500680 0.370150 0.204417
Ni6   Ni    Ni4+2 0.487560 0.500680 0.629850 0.207747
Ni7   Ni    Ni4+2 0.012440 0.000680 0.370150 0.204420
Ni8   Ni    Ni4+2 0.987560 0.000680 0.629850 0.207759

loop_
_geom_bond_atom_site_label_1
_geom_bond_atom_site_label_2
_ccdc_geom_bond_type
C34   N27   A    
C70   H39   S    
C21   C26   D    
C56   N24   A    
C11   C18   S    
C19   H56   S    
C23   C82   S    
C54   H32   S    
N24   Ni5   S    
N17   Ni8   S    
C15   H12   S    
N28   N32   A    
C52   N4    A    
C4    C70   A    
C53   C59   A    
C53   N5    A    
C72   H41   S    
C7    C73   A    
N21   Ni3   S    
C6    C72   A    
N26   Ni7   S    
N16   Ni7   S    
C30   C35   D    
N4    N31   A    
C49   C62   A    
N8    Ni7   S    
C3    C69   A    
N3    N30   A    
C2    C68   A    
C10   C15   D    
C43   H26   S    
C54   C58   A    
C75   C84   S    
C43   N31   A    
C20   C25   D    
C28   H19   S    
C26   H4    S    
C5    C36   S    
C29   C33   D    
N28   Ni5   S    
C40   C62   A    
N18   Ni2   S    
C18   H45   S    
C36   H14   S    
C26   C64   S    
C78   N26   A    
N7    N27   A    
N3    Ni4   S    
C11   H51   S    
N2    Ni1   S    
C38   H16   S    
C44   H5    S    
C42   H25   S    
C22   C63   S    
C12   C59   A    
C9    H49   S    
N12   Ni2   S    
N22   Ni6   S    
C87   H79   S    
C81   H59   S    
C41   H24   S    
C30   C60   S    
N6    Ni5   S    
N1    N6    A    
C29   H20   S    
N5    Ni6   S    
C86   H74   S    
C85   H72   S    
C20   H67   S    
C86   H73   S    
C74   N17   A    
C22   H80   S    
C87   H76   S    
N25   Ni8   S    
C31   C47   S    
C79   C87   S    
C50   C63   A    
C32   C48   S    
C71   N14   A    
N11   N25   A    
N29   Ni6   S    
N9    Ni1   S    
N23   Ni3   S    
N7    Ni8   S    
C23   N23   A    
C68   H37   S    
C83   H63   S    
C10   C21   S    
C23   C60   A    
C66   N9    A    
C29   C61   S    
C25   H3    S    
C13   C19   S    
C30   H21   S    
C27   C31   D    
C13   H52   S    
C42   N30   A    
C45   C88   A    
C25   C65   S    
C41   N29   A    
N15   N18   A    
C37   H15   S    
C73   N16   A    
N17   N20   A    
C40   H22   S    
N27   Ni4   S    
C27   H18   S    
N20   Ni4   S    
C34   C61   A    
C21   H78   S    
C85   H71   S    
C33   H11   S    
C4    C16   S    
N4    Ni3   S    
C67   H47   S    
C9    C14   D    
C14   H1    S    
C4    C78   A    
C57   H35   S    
C57   N8    A    
N10   N24   A    
C11   C16   D    
C45   N22   A    
C70   N13   A    
C56   H46   S    
C46   H6    S    
C28   C32   D    
C43   C65   A    
C80   H55   S    
C55   H33   S    
C8    C74   A    
C6    C37   S    
C50   N2    A    
C84   H66   S    
N13   N26   A    
C55   N7    A    
C38   C47   D    
C82   H62   S    
C76   N19   A    
C9    C20   S    
C8    C39   S    
N11   Ni3   S    
C77   C86   S    
C81   H58   S    
C81   H57   S    
N10   Ni2   S    
C79   N21   A    
C8    C77   A    
C66   H36   S    
C71   H40   S    
C36   C44   D    
C75   N18   A    
C34   C83   S    
C41   C63   A    
C42   C64   A    
C7    C79   A    
C83   H64   S    
C40   N28   A    
C39   H17   S    
C74   H43   S    
C73   H42   S    
C24   C62   S    
N9    N22   A    
C48   H8    S    
C12   N12   A    
N30   Ni7   S    
C18   C22   D    
C33   C44   S    
C3    C67   A    
C51   C64   A    
C72   N15   A    
C35   H13   S    
C24   H2    S    
C69   H38   S    
C82   H60   S    
C84   H69   S    
C53   H31   S    
C83   H65   S    
C28   C58   S    
C10   H50   S    
N19   Ni1   S    
C80   H54   S    
N5    N12   A    
C13   C17   D    
N14   Ni5   S    
C54   N6    A    
C5    C76   A    
C51   N3    A    
C19   C24   D    
C5    C71   A    
C27   C59   S    
C1    C58   A    
C69   N11   A    
C66   C88   A    
C84   H68   S    
C87   H77   S    
C55   C61   A    
C1    N1    A    
N31   Ni8   S    
C51   H29   S    
C7    C38   S    
C32   H10   S    
C12   C81   S    
C3    C17   S    
C50   H28   S    
N14   N19   A    
C31   H9    S    
C2    C14   S    
C15   C88   S    
C82   H61   S    
C77   N20   A    
N1    Ni1   S    
N13   Ni4   S    
C17   H34   S    
C57   C60   A    
C68   N10   A    
C45   H44   S    
N32   Ni2   S    
C80   H53   S    
C85   H70   S    
N15   Ni6   S    
C47   H7    S    
N16   N21   A    
C1    C80   S    
C2    C56   A    
C86   H75   S    
C49   H27   S    
N8    N23   A    
C37   C46   D    
C67   N25   A    
C35   C46   S    
C78   H48   S    
C76   C85   S    
N2    N29   A    
C52   C65   A    
C16   H23   S    
C52   H30   S    
C39   C48   D    
C49   N32   A    
C6    C75   A    
