data_mof_unit_19768.cif
_audit_creation_date              2012-12-11T15:37:22-0500
_audit_creation_method            fapswitch 2.2
_symmetry_space_group_name_H-M    P1
_symmetry_Int_Tables_number       1
_space_group_crystal_system       triclinic
_cell_length_a                    17.285309
_cell_length_b                    24.258296
_cell_length_c                    14.723296
_cell_angle_alpha                 90.07711
_cell_angle_beta                  125.740514
_cell_angle_gamma                 90.227174
_cell_volume                      5010.88594402

loop_
_atom_site_label
_atom_site_type_symbol
_atom_type_description
_atom_site_fract_x
_atom_site_fract_y
_atom_site_fract_z
_atom_type_partial_charge
C1    C     C_R   0.809133 0.625396 0.906649 -0.128963
C2    C     C_R   0.148929 0.347284 0.092173 -0.144550
C3    C     C_R   0.149147 0.652985 0.092764 -0.137669
C4    C     C_R   0.808762 0.374473 0.907157 -0.133268
C5    C     C_R   0.309133 0.125396 0.906649 -0.128963
C6    C     C_R   0.648929 0.847284 0.092173 -0.144550
C7    C     C_R   0.649148 0.152985 0.092765 -0.137670
C8    C     C_R   0.308762 0.874471 0.907156 -0.133268
C9    C     C_3   0.425153 0.502071 0.345720 0.057235
C10   C     C_3   0.598465 0.496045 0.531122 0.068590
C11   C     C_3   0.925153 0.002071 0.345719 0.057235
C12   C     C_3   0.098465 0.996045 0.531122 0.068589
C13   C     C_R   0.655772 0.314850 0.900187 -0.177493
C14   C     C_R   0.208574 0.769007 0.102045 -0.170252
C15   C     C_R   0.208495 0.231939 0.100088 -0.175915
C16   C     C_R   0.658692 0.687265 0.898206 -0.166651
C17   C     C_R   0.155774 0.814846 0.900178 -0.177492
C18   C     C_R   0.708586 0.269003 0.102052 -0.170254
C19   C     C_R   0.708495 0.731939 0.100088 -0.175916
C20   C     C_R   0.158692 0.187265 0.898205 -0.166652
C21   C     C_R   0.107359 0.769087 0.899392 -0.177220
C22   C     C_R   0.757407 0.314486 0.102660 -0.182045
C23   C     C_R   0.757753 0.686941 0.100784 -0.177763
C24   C     C_R   0.109683 0.232330 0.897435 -0.183288
C25   C     C_R   0.607356 0.269091 0.899400 -0.177221
C26   C     C_R   0.257397 0.814490 0.102652 -0.182049
C27   C     C_R   0.257753 0.186941 0.100784 -0.177764
C28   C     C_R   0.609683 0.732330 0.897435 -0.183287
C29   C     C_R   0.140371 0.742601 0.000279 0.138300
C30   C     C_R   0.738334 0.333244 0.001655 0.141978
C31   C     C_R   0.739589 0.668315 0.000027 0.136109
C32   C     C_R   0.140977 0.258208 0.998523 0.140304
C33   C     C_R   0.640376 0.242601 0.000285 0.138302
C34   C     C_R   0.238331 0.833243 0.001649 0.141978
C35   C     C_R   0.239589 0.168315 0.000027 0.136109
C36   C     C_R   0.640977 0.758208 0.998523 0.140304
C37   C     C_R   0.123216 0.450955 0.648160 0.213696
C38   C     C_R   0.080069 0.551078 0.534017 0.233714
C39   C     C_R   0.077632 0.449761 0.532148 0.236348
C40   C     C_R   0.124942 0.549476 0.649923 0.218746
C41   C     C_R   0.623216 0.950955 0.648160 0.213695
C42   C     C_R   0.580068 0.051078 0.534016 0.233713
C43   C     C_R   0.577631 0.949761 0.532147 0.236350
C44   C     C_R   0.624941 0.049476 0.649922 0.218747
C45   C     C_R   0.062677 0.500468 0.474555 -0.075136
C46   C     C_R   0.122433 0.500147 0.696930 -0.038877
C47   C     C_R   0.562676 0.000468 0.474554 -0.075136
C48   C     C_R   0.622433 0.000147 0.696930 -0.038877
C49   C     C_R   0.904065 0.375370 0.094510 -0.129312
C50   C     C_R   0.054188 0.652025 0.906991 -0.145511
C51   C     C_R   0.053945 0.348097 0.906322 -0.142231
C52   C     C_R   0.904150 0.624959 0.094231 -0.129425
C53   C     C_R   0.404064 0.875370 0.094508 -0.129313
C54   C     C_R   0.554189 0.152025 0.906992 -0.145510
C55   C     C_R   0.553945 0.848097 0.906322 -0.142231
C56   C     C_R   0.404150 0.124959 0.094230 -0.129424
C57   C     C_R   0.040106 0.545926 0.301373 -0.164588
C58   C     C_R   0.026325 0.453972 0.758961 -0.131525
C59   C     C_R   0.026366 0.546173 0.758870 -0.133152
C60   C     C_R   0.040406 0.454554 0.301729 -0.166155
C61   C     C_R   0.540106 0.045926 0.301373 -0.164589
C62   C     C_R   0.526325 0.953972 0.758961 -0.131526
C63   C     C_R   0.526366 0.046173 0.758870 -0.133152
C64   C     C_R   0.540405 0.954554 0.301728 -0.166154
C65   C     C_R   0.741478 0.453186 0.698725 -0.166676
C66   C     C_R   0.267396 0.546500 0.244106 -0.141298
C67   C     C_R   0.267557 0.455167 0.240896 -0.120008
C68   C     C_R   0.740455 0.544266 0.695635 -0.142464
C69   C     C_R   0.241478 0.953186 0.698725 -0.166675
C70   C     C_R   0.767396 0.046499 0.244105 -0.141296
C71   C     C_R   0.767557 0.955167 0.240895 -0.120008
C72   C     C_R   0.240455 0.044266 0.695635 -0.142464
C73   C     C_R   0.813092 0.638424 0.000781 0.038926
C74   C     C_R   0.116418 0.315686 0.998590 0.052632
C75   C     C_R   0.116593 0.684690 0.999638 0.049161
C76   C     C_R   0.812587 0.362123 0.001497 0.037946
C77   C     C_R   0.313092 0.138424 0.000781 0.038926
C78   C     C_R   0.616418 0.815686 0.998590 0.052631
C79   C     C_R   0.616595 0.184689 0.999640 0.049161
C80   C     C_R   0.312587 0.862122 0.001494 0.037946
C81   C     C_R   0.041101 0.500352 0.360019 0.147488
C82   C     C_R   0.064073 0.500123 0.741005 0.099512
C83   C     C_R   0.541101 0.000352 0.360019 0.147488
C84   C     C_R   0.564073 0.000122 0.741005 0.099511
C85   C     C_R   0.691123 0.497663 0.636765 0.052583
C86   C     C_R   0.322846 0.501523 0.263520 0.058329
C87   C     C_R   0.191123 0.997663 0.636765 0.052583
C88   C     C_R   0.822846 0.001523 0.263520 0.058328
C89   C     C_3   0.533354 0.445945 0.469328 0.012230
C90   C     C_3   0.490904 0.551980 0.407494 0.014639
C91   C     C_3   0.506060 0.469593 0.357077 0.017234
C92   C     C_3   0.516522 0.528221 0.518763 0.020146
C93   C     C_3   0.033354 0.945945 0.469328 0.012230
C94   C     C_3   0.990904 0.051980 0.407493 0.014640
C95   C     C_3   0.006059 0.969593 0.357077 0.017234
C96   C     C_3   0.016522 0.028221 0.518763 0.020146
C97   C     C_3   0.451687 0.478022 0.457790 -0.253294
C98   C     C_3   0.573965 0.519694 0.419986 -0.262088
C99   C     C_3   0.951687 0.978022 0.457789 -0.253294
C100  C     C_3   0.073965 0.019693 0.419985 -0.262087
H1    H     H_    0.750811 0.630776 0.820007 0.094196
H2    H     H_    0.187849 0.333644 0.177887 0.085396
H3    H     H_    0.187798 0.666818 0.178559 0.088824
H4    H     H_    0.750055 0.368297 0.820882 0.103839
H5    H     H_    0.250811 0.130776 0.820007 0.094196
H6    H     H_    0.687849 0.833644 0.177887 0.085396
H7    H     H_    0.687798 0.166817 0.178560 0.088822
H8    H     H_    0.250057 0.868296 0.820880 0.103837
H9    H     H_    0.932618 0.369326 0.181216 0.090204
H10   H     H_    0.005784 0.665843 0.821618 0.084707
H11   H     H_    0.005549 0.334140 0.820746 0.084389
H12   H     H_    0.932507 0.631273 0.180906 0.095179
H13   H     H_    0.432616 0.869326 0.181214 0.090205
H14   H     H_    0.505786 0.165844 0.821619 0.084707
H15   H     H_    0.505549 0.834140 0.820746 0.084389
H16   H     H_    0.432507 0.131273 0.180906 0.095179
H17   H     H_    0.064270 0.587117 0.332417 0.121442
H18   H     H_    0.038100 0.411444 0.750467 0.123141
H19   H     H_    0.038256 0.588733 0.750252 0.123245
H20   H     H_    0.064797 0.413629 0.333428 0.121052
H21   H     H_    0.564269 0.087116 0.332417 0.121443
H22   H     H_    0.538100 0.911444 0.750467 0.123141
H23   H     H_    0.538256 0.088733 0.750252 0.123245
H24   H     H_    0.564796 0.913629 0.333427 0.121052
H25   H     H_    0.730731 0.410758 0.672738 0.120097
H26   H     H_    0.288682 0.589156 0.261985 0.110232
H27   H     H_    0.290518 0.412862 0.256854 0.096148
H28   H     H_    0.725342 0.586149 0.665014 0.095290
H29   H     H_    0.230731 0.910758 0.672738 0.120095
H30   H     H_    0.788682 0.089156 0.261984 0.110231
H31   H     H_    0.790518 0.912862 0.256854 0.096148
H32   H     H_    0.225342 0.086149 0.665013 0.095290
H33   H     H_    0.400194 0.461746 0.473331 0.133126
H34   H     H_    0.627849 0.536877 0.409391 0.131562
H35   H     H_    0.900194 0.961747 0.473331 0.133126
H36   H     H_    0.127849 0.036876 0.409390 0.131562
H37   H     H_    0.634092 0.331480 0.820593 0.117929
H38   H     H_    0.231795 0.751893 0.181869 0.115428
H39   H     H_    0.230524 0.248706 0.179901 0.111276
H40   H     H_    0.638262 0.671461 0.818378 0.123779
H41   H     H_    0.134100 0.831471 0.820583 0.117931
H42   H     H_    0.731815 0.251886 0.181876 0.115430
H43   H     H_    0.730524 0.748706 0.179901 0.111276
H44   H     H_    0.138262 0.171461 0.818378 0.123779
H45   H     H_    0.050884 0.751837 0.819376 0.103318
H46   H     H_    0.816118 0.330665 0.182534 0.109410
H47   H     H_    0.815789 0.670836 0.180699 0.113816
H48   H     H_    0.054151 0.249611 0.817437 0.109243
H49   H     H_    0.550874 0.251844 0.819384 0.103318
H50   H     H_    0.316103 0.830672 0.182527 0.109412
H51   H     H_    0.315789 0.170836 0.180699 0.113816
H52   H     H_    0.554151 0.749611 0.817437 0.109243
N1    N     N_R   0.892620 0.603790 0.941800 -0.039238
N2    N     N_R   0.107380 0.396210 0.058200 -0.035720
N3    N     N_R   0.107380 0.603790 0.058200 -0.037347
N4    N     N_R   0.892620 0.396210 0.941800 -0.038679
N5    N     N_R   0.392620 0.103790 0.941800 -0.039238
N6    N     N_R   0.607380 0.896210 0.058200 -0.035720
N7    N     N_R   0.607380 0.103790 0.058200 -0.037347
N8    N     N_R   0.392620 0.896210 0.941800 -0.038679
N9    N     N_R   0.952210 0.397600 0.057910 -0.037402
N10   N     N_R   0.047790 0.602400 0.942090 -0.036700
N11   N     N_R   0.047790 0.397600 0.942090 -0.036382
N12   N     N_R   0.952210 0.602400 0.057910 -0.038328
N13   N     N_R   0.452210 0.897600 0.057910 -0.037402
N14   N     N_R   0.547790 0.102400 0.942090 -0.036700
N15   N     N_R   0.547790 0.897600 0.942090 -0.036382
N16   N     N_R   0.452210 0.102400 0.057910 -0.038328
N17   N     N_R   0.026300 0.529110 0.206760 -0.040505
N18   N     N_R   0.973700 0.470890 0.793240 -0.044207
N19   N     N_R   0.973700 0.529110 0.793240 -0.044103
N20   N     N_R   0.026300 0.470890 0.206760 -0.040264
N21   N     N_R   0.526300 0.029110 0.206760 -0.040505
N22   N     N_R   0.473700 0.970890 0.793240 -0.044208
N23   N     N_R   0.473700 0.029110 0.793240 -0.044103
N24   N     N_R   0.526300 0.970890 0.206760 -0.040264
N25   N     N_R   0.818530 0.472270 0.792960 -0.037881
N26   N     N_R   0.181470 0.527730 0.207040 -0.040849
N27   N     N_R   0.181470 0.472270 0.207040 -0.042465
N28   N     N_R   0.818530 0.527730 0.792960 -0.037515
N29   N     N_R   0.318530 0.972270 0.792960 -0.037881
N30   N     N_R   0.681470 0.027730 0.207040 -0.040849
N31   N     N_R   0.681470 0.972270 0.207040 -0.042465
N32   N     N_R   0.318530 0.027730 0.792960 -0.037515
Ni1   Ni    Ni4+2 0.934150 0.565840 0.869060 0.209416
Ni2   Ni    Ni4+2 0.065850 0.434160 0.130940 0.208067
Ni3   Ni    Ni4+2 0.065850 0.565840 0.130940 0.208038
Ni4   Ni    Ni4+2 0.934150 0.434160 0.869060 0.211897
Ni5   Ni    Ni4+2 0.434150 0.065840 0.869060 0.209416
Ni6   Ni    Ni4+2 0.565850 0.934160 0.130940 0.208067
Ni7   Ni    Ni4+2 0.565850 0.065840 0.130940 0.208038
Ni8   Ni    Ni4+2 0.434150 0.934160 0.869060 0.211896
C101  C     C_R   0.555438 0.386025 0.501778 0.114044
C102  C     C_R   0.516322 0.358206 0.550023 -0.170176
C103  C     C_R   0.537181 0.302646 0.579320 -0.127792
C104  C     C_R   0.597342 0.274462 0.561125 -0.091065
C105  C     C_R   0.636783 0.301798 0.513528 -0.117320
C106  C     C_R   0.616054 0.357320 0.483992 -0.170613
H53   H     H_    0.470404 0.379279 0.566058 0.109032
H54   H     H_    0.506918 0.281465 0.616538 0.103806
H55   H     H_    0.613577 0.231508 0.584179 0.109652
H56   H     H_    0.683643 0.280002 0.499770 0.105600
H57   H     H_    0.647910 0.378088 0.448195 0.122484
C107  C     C_R   0.478338 0.610982 0.368970 0.110537
C108  C     C_R   0.520115 0.654488 0.446909 -0.163603
C109  C     C_R   0.510783 0.708898 0.410644 -0.122464
C110  C     C_R   0.461537 0.720218 0.296627 -0.094223
C111  C     C_R   0.422389 0.677094 0.218755 -0.100315
C112  C     C_R   0.431979 0.622628 0.254803 -0.171432
H58   H     H_    0.560817 0.646475 0.535730 0.110760
H59   H     H_    0.542458 0.742270 0.471056 0.111933
H60   H     H_    0.454807 0.762321 0.268807 0.102452
H61   H     H_    0.385115 0.685848 0.130520 0.121990
H62   H     H_    0.402625 0.589569 0.193633 0.122840
C113  C     C_R   0.494298 0.438524 0.260818 0.118431
C114  C     C_R   0.534045 0.458987 0.207172 -0.159786
C115  C     C_R   0.521656 0.430272 0.117017 -0.103475
C116  C     C_R   0.469415 0.381061 0.079549 -0.086772
C117  C     C_R   0.429553 0.360430 0.132278 -0.109464
C118  C     C_R   0.441929 0.388973 0.222499 -0.138727
H63   H     H_    0.573959 0.497259 0.234039 0.110410
H64   H     H_    0.552394 0.446266 0.075987 0.112318
H65   H     H_    0.459922 0.358909 0.009778 0.112385
H66   H     H_    0.389294 0.322218 0.103509 0.121094
H67   H     H_    0.411972 0.371835 0.263430 0.110356
C119  C     C_R   0.506689 0.555201 0.604271 0.108810
C120  C     C_R   0.434451 0.594190 0.569358 -0.155089
C121  C     C_R   0.419193 0.616247 0.645413 -0.126854
C122  C     C_R   0.474201 0.598610 0.756446 -0.081879
C123  C     C_R   0.544156 0.558655 0.791367 -0.116390
C124  C     C_R   0.559539 0.536482 0.715484 -0.157141
H68   H     H_    0.388828 0.607026 0.482859 0.114652
H69   H     H_    0.363903 0.646544 0.617897 0.106227
H70   H     H_    0.462140 0.615579 0.815199 0.113134
H71   H     H_    0.585756 0.544357 0.877024 0.116398
H72   H     H_    0.610986 0.503830 0.743577 0.129542
C125  C     C_R   0.055437 0.886025 0.501778 0.114044
C126  C     C_R   0.016317 0.858205 0.550018 -0.170172
C127  C     C_R   0.037175 0.802645 0.579313 -0.127797
C128  C     C_R   0.097337 0.774461 0.561119 -0.091067
C129  C     C_R   0.136782 0.801798 0.513527 -0.117319
C130  C     C_R   0.116054 0.857320 0.483994 -0.170614
H73   H     H_    0.970398 0.879278 0.566051 0.109033
H74   H     H_    0.006909 0.781463 0.616527 0.103807
H75   H     H_    0.113571 0.731507 0.584172 0.109652
H76   H     H_    0.183643 0.780002 0.499771 0.105600
H77   H     H_    0.147913 0.878088 0.448200 0.122483
C131  C     C_R   0.978339 0.110981 0.368969 0.110537
C132  C     C_R   0.020119 0.154488 0.446908 -0.163604
C133  C     C_R   0.010789 0.208897 0.410644 -0.122462
C134  C     C_R   0.961544 0.220217 0.296627 -0.094225
C135  C     C_R   0.922394 0.177094 0.218754 -0.100315
C136  C     C_R   0.931981 0.122628 0.254802 -0.171431
H78   H     H_    0.060820 0.146475 0.535729 0.110760
H79   H     H_    0.042465 0.242270 0.471056 0.111933
H80   H     H_    0.954816 0.262320 0.268807 0.102450
H81   H     H_    0.885120 0.185847 0.130520 0.121990
H82   H     H_    0.902625 0.089568 0.193632 0.122840
C137  C     C_R   0.994298 0.938523 0.260818 0.118432
C138  C     C_R   0.034046 0.958986 0.207173 -0.159788
C139  C     C_R   0.021657 0.930271 0.117019 -0.103474
C140  C     C_R   0.969417 0.881059 0.079550 -0.086773
C141  C     C_R   0.929554 0.860429 0.132279 -0.109464
C142  C     C_R   0.941929 0.888972 0.222500 -0.138726
H83   H     H_    0.073960 0.997258 0.234040 0.110411
H84   H     H_    0.052397 0.946264 0.075989 0.112318
H85   H     H_    0.959924 0.858907 0.009780 0.112385
H86   H     H_    0.889295 0.822217 0.103511 0.121094
H87   H     H_    0.911972 0.871834 0.263430 0.110356
C143  C     C_R   0.006690 0.055201 0.604270 0.108810
C144  C     C_R   0.934452 0.094192 0.569357 -0.155089
C145  C     C_R   0.919194 0.116248 0.645412 -0.126854
C146  C     C_R   0.974202 0.098611 0.756445 -0.081879
C147  C     C_R   0.044155 0.058656 0.791366 -0.116390
C148  C     C_R   0.059539 0.036483 0.715483 -0.157140
H88   H     H_    0.888830 0.107027 0.482858 0.114652
H89   H     H_    0.863905 0.146545 0.617896 0.106227
H90   H     H_    0.962141 0.115580 0.815199 0.113134
H91   H     H_    0.085755 0.044357 0.877023 0.116398
H92   H     H_    0.110985 0.003829 0.743576 0.129542
C149  C     C_3   0.171620 0.400463 0.719450 -0.992211
H93   H     H_    0.227093 0.386469 0.709036 0.252972
H94   H     H_    0.207442 0.409934 0.809586 0.253925
H95   H     H_    0.120521 0.366096 0.695447 0.244553
C150  C     C_3   0.034063 0.605099 0.476244 -1.023046
H96   H     H_    0.005006 0.626157 0.517205 0.249764
H97   H     H_    0.087030 0.632997 0.480185 0.247680
H98   H     H_    0.970303 0.598706 0.389216 0.244419
C151  C     C_3   0.028209 0.396287 0.472447 -1.029564
H99   H     H_    0.996923 0.376400 0.512065 0.250748
H100  H     H_    0.965693 0.403201 0.385068 0.244812
H101  H     H_    0.079608 0.367178 0.476656 0.249173
C152  C     C_3   0.174983 0.599599 0.723212 -0.999762
H102  H     H_    0.230962 0.613593 0.713409 0.252399
H103  H     H_    0.125088 0.634138 0.700753 0.242574
H104  H     H_    0.210379 0.589652 0.812923 0.252132
C153  C     C_3   0.671620 0.900463 0.719449 -0.992211
H105  H     H_    0.727093 0.886469 0.709035 0.252973
H106  H     H_    0.707442 0.909934 0.809586 0.253925
H107  H     H_    0.620520 0.866096 0.695447 0.244553
C154  C     C_3   0.534063 0.105099 0.476244 -1.023046
H108  H     H_    0.505005 0.126157 0.517205 0.249765
H109  H     H_    0.587029 0.132997 0.480185 0.247680
H110  H     H_    0.470302 0.098706 0.389216 0.244419
C155  C     C_3   0.528208 0.896287 0.472446 -1.029565
H111  H     H_    0.496921 0.876400 0.512065 0.250748
H112  H     H_    0.465692 0.903201 0.385068 0.244811
H113  H     H_    0.579606 0.867178 0.476656 0.249174
C156  C     C_3   0.674983 0.099599 0.723211 -0.999763
H114  H     H_    0.730961 0.113593 0.713408 0.252399
H115  H     H_    0.625088 0.134137 0.700752 0.242575
H116  H     H_    0.710379 0.089652 0.812922 0.252132

loop_
_geom_bond_atom_site_label_1
_geom_bond_atom_site_label_2
_ccdc_geom_bond_type
C10   C85   S    
C142  H87   S    
C20   H44   S    
C15   C32   A    
C5    H5    S    
C154  H108  S    
C149  H95   S    
C40   C46   A    
C125  C130  A    
C58   C82   A    
C7    N7    A    
C144  C145  A    
C96   C99   S    
C50   H10   S    
C147  C148  A    
C122  H70   S    
N30   N31   A    
C38   C45   A    
C91   C113  S    
C136  H82   S    
C145  C146  A    
C9    C97   S    
C124  H72   S    
C47   C83   S    
C68   H28   S    
C41   C43   A    
C42   C44   A    
C59   N19   A    
N5    N16   A    
C121  C122  A    
C53   H13   S    
N6    N15   A    
C72   H32   S    
C15   H39   S    
N3    N10   A    
N19   Ni1   S    
C71   N31   A    
C13   C30   A    
C134  C135  A    
N17   Ni3   S    
C109  C110  A    
C27   C35   A    
C64   H24   S    
C21   C29   A    
N21   Ni7   S    
C17   C21   A    
C16   C31   A    
C23   C31   A    
C19   C23   A    
C113  C114  A    
C24   C32   A    
N9    Ni2   S    
C30   C76   S    
C15   C27   A    
C120  C121  A    
C89   C101  S    
N13   Ni6   S    
C6    H6    S    
C14   C26   A    
C94   C96   S    
C128  H75   S    
C12   C93   S    
C17   C34   A    
C5    C77   A    
C1    H1    S    
C7    C79   A    
C54   C79   A    
C154  H110  S    
C3    H3    S    
C45   C81   S    
C104  C105  A    
C9    C90   S    
C146  H90   S    
C63   C84   A    
C148  H92   S    
C139  H84   S    
C150  H97   S    
N3    Ni3   S    
C113  C118  A    
C134  H80   S    
C4    H4    S    
C91   C98   S    
C71   C88   A    
C69   H29   S    
C101  C102  A    
C43   C155  S    
C65   H25   S    
C43   C47   A    
C44   C48   A    
C69   N29   A    
C135  C136  A    
C111  H61   S    
C39   C151  S    
C65   C85   A    
C59   C82   A    
C97   H33   S    
N26   N27   A    
C116  H65   S    
N27   Ni2   S    
N2    Ni2   S    
C132  C133  A    
N25   Ni4   S    
C59   H19   S    
N6    Ni6   S    
C32   C74   S    
C139  C140  A    
N29   Ni8   S    
C6    C78   A    
N18   N19   A    
C52   H12   S    
C54   H14   S    
C25   H49   S    
C129  C130  A    
N22   N23   A    
C117  H66   S    
C46   C82   S    
C20   C35   A    
C22   H46   S    
C10   C89   S    
C93   C125  S    
C155  H112  S    
C64   N24   A    
C3    C75   A    
C49   N9    A    
C39   C45   A    
C155  H113  S    
C93   C95   S    
C125  C126  A    
C68   C85   A    
C153  H106  S    
C16   H40   S    
C6    N6    A    
C92   C97   S    
C156  H115  S    
C144  H88   S    
C147  H91   S    
C53   C80   A    
C140  H85   S    
C55   C78   A    
C131  C136  A    
C115  C116  A    
C126  H73   S    
C66   H26   S    
N11   Ni4   S    
C152  H102  S    
C60   C81   A    
C94   C100  S    
C151  H99   S    
C105  H56   S    
C121  H69   S    
N4    N9    A    
C7    H7    S    
C14   C29   A    
C37   C149  S    
C62   H22   S    
C72   C87   A    
C62   C84   A    
C22   C30   A    
C18   C22   A    
C44   C156  S    
C138  C139  A    
C66   C86   A    
N10   Ni1   S    
C140  C141  A    
C149  H94   S    
N14   Ni5   S    
C138  H83   S    
C65   N25   A    
C108  H58   S    
C11   C99   S    
C128  C129  A    
C153  H107  S    
C105  C106  A    
C18   C33   A    
C92   C119  S    
C107  C108  A    
C119  C120  A    
N18   Ni4   S    
C104  H55   S    
C94   C131  S    
C100  H36   S    
C25   C33   A    
C42   C154  S    
C127  C128  A    
C51   C74   A    
C55   N15   A    
C141  C142  A    
C152  H104  S    
N21   N24   A    
C50   N10   A    
C101  C106  A    
C70   H30   S    
C151  H101  S    
C17   H41   S    
C114  H63   S    
C41   C153  S    
C70   N30   A    
C14   H38   S    
C111  C112  A    
C107  C112  A    
C51   H11   S    
C51   N11   A    
C93   C99   S    
C90   C107  S    
C69   C87   A    
N4    Ni4   S    
C102  C103  A    
C10   C92   S    
C132  H78   S    
C54   N14   A    
C143  C148  A    
C135  H81   S    
C154  H109  S    
C141  H86   S    
C129  H76   S    
N7    Ni7   S    
C26   H50   S    
N8    Ni8   S    
C137  C142  A    
C61   C83   A    
C117  C118  A    
C95   C100  S    
C33   C79   S    
C103  C104  A    
C133  C134  A    
C156  H114  S    
C23   H47   S    
C35   C77   S    
C110  C111  A    
C21   H45   S    
C64   C83   A    
C150  H96   S    
N24   Ni6   S    
C3    N3    A    
C99   H35   S    
C123  H71   S    
N8    N13   A    
C1    N1    A    
C72   N32   A    
C52   N12   A    
N26   Ni3   S    
C11   C94   S    
C53   N13   A    
C4    N4    A    
C5    N5    A    
N30   Ni7   S    
C8    N8    A    
N31   Ni6   S    
C131  C132  A    
C57   H17   S    
N29   N32   A    
C115  H64   S    
C126  C127  A    
C67   C86   A    
C27   H51   S    
C63   H23   S    
C112  H62   S    
C1    C73   A    
C37   C39   A    
C67   N27   A    
C50   C75   A    
C38   C40   A    
C55   H15   S    
C60   H20   S    
C123  C124  A    
C12   C100  S    
C28   C36   A    
C155  H111  S    
C106  H57   S    
C2    H2    S    
C143  C144  A    
C12   C96   S    
C37   C46   A    
C16   C28   A    
C145  H89   S    
C153  H105  S    
N12   Ni3   S    
C70   C88   A    
C9    C91   S    
C108  C109  A    
C95   C137  S    
N15   Ni8   S    
C66   N26   A    
C122  C123  A    
N16   Ni7   S    
C61   H21   S    
C58   N18   A    
C150  H98   S    
C19   C36   A    
C31   C73   S    
C96   C143  S    
C119  C124  A    
C62   N22   A    
C58   H18   S    
C10   C98   S    
C34   C80   S    
C90   C92   S    
C109  H59   S    
C26   C34   A    
C20   C24   A    
N20   Ni2   S    
C127  H74   S    
C2    C74   A    
C120  H68   S    
C13   C25   A    
C40   C152  S    
C8    H8    S    
C57   N17   A    
C56   H16   S    
N1    N12   A    
C60   N20   A    
N2    N11   A    
C18   H42   S    
C61   N21   A    
C114  C115  A    
C52   C73   A    
C24   H48   S    
C149  H93   S    
C71   H31   S    
C68   N28   A    
C56   C77   A    
C48   C84   S    
C89   C97   S    
C13   H37   S    
C67   H27   S    
C9    C86   S    
C102  H53   S    
C11   C88   S    
N25   N28   A    
C56   N16   A    
C146  C147  A    
C49   C76   A    
C28   H52   S    
C110  H60   S    
N17   N20   A    
C57   C81   A    
C89   C91   S    
C137  C138  A    
C49   H9    S    
C103  H54   S    
C156  H116  S    
C11   C95   S    
C133  H79   S    
C19   H43   S    
C12   C87   S    
N23   Ni5   S    
C63   N23   A    
C29   C75   S    
C98   H34   S    
C130  H77   S    
N7    N14   A    
C152  H103  S    
C36   C78   S    
C116  C117  A    
N1    Ni1   S    
C151  H100  S    
C41   C48   A    
C118  H67   S    
C42   C47   A    
N5    Ni5   S    
C4    C76   A    
N28   Ni1   S    
C2    N2    A    
N22   Ni8   S    
C8    C80   A    
N32   Ni5   S    
C90   C98   S    
C38   C150  S    
