data_mof_unit_59721.cif
_audit_creation_date              2013-03-05T16:31:36-0500
_audit_creation_method            fapswitch 2.2
_symmetry_space_group_name_H-M    P1
_symmetry_Int_Tables_number       1
_space_group_crystal_system       triclinic
_cell_length_a                    9.632203
_cell_length_b                    10.778998
_cell_length_c                    15.564812
_cell_angle_alpha                 88.236598
_cell_angle_beta                  74.296333
_cell_angle_gamma                 90.300793
_cell_volume                      1554.81371286

loop_
_atom_site_label
_atom_site_type_symbol
_atom_site_description
_atom_site_fract_x
_atom_site_fract_y
_atom_site_fract_z
_atom_type_partial_charge
O1    O     O_R   0.118810 0.319640 0.500000 -0.517960
O2    O     O_R   0.881230 0.319680 0.499990 -0.566878
C1    C     C_R   0.999109 0.262869 0.501470 0.822846
O3    O     O_R   0.055580 0.499970 0.629840 -0.507049
O4    O     O_R   0.818000 0.500010 0.629830 -0.553179
C2    C     C_R   0.917778 0.498244 0.672431 0.849135
Cu1   Cu    Cu3+1 0.140670 0.499980 0.500000 1.086417
Cu2   Cu    Cu3+1 0.859330 0.500020 0.500000 0.972330
O5    O     O_R   0.118770 0.680320 0.500010 -0.580415
O6    O     O_R   0.881190 0.680360 0.500000 -0.573268
O7    O     O_R   0.182000 0.499990 0.370170 -0.525025
O8    O     O_R   0.944420 0.500030 0.370160 -0.615530
C3    C     C_R   0.000024 0.737319 0.500335 0.804239
C4    C     C_R   0.081835 0.498709 0.328145 0.775071
C5    C     C_R   0.870526 0.493626 0.771981 -0.176037
C6    C     C_R   0.128230 0.505143 0.229872 -0.047945
C7    C     C_R   0.921940 0.470917 0.916376 -0.276004
C8    C     C_R   0.971000 0.493572 0.824103 0.327192
C9    C     C_R   0.720851 0.482842 0.816408 0.042259
C10   C     C_R   0.673756 0.491641 0.910358 0.046169
C11   C     C_R   0.774584 0.469611 0.959656 0.071376
C12   C     C_R   0.528287 0.515476 0.956829 0.049364
C13   C     C_R   0.477916 0.485705 0.049747 0.064653
C14   C     C_R   0.579906 0.445989 0.094952 -0.157365
C15   C     C_R   0.726596 0.445244 0.051493 -0.178955
C16   C     C_R   0.436346 0.578735 0.914252 -0.169129
C17   C     C_R   0.293295 0.598859 0.958152 -0.150727
C18   C     C_R   0.238131 0.560113 0.046985 0.131795
C19   C     C_R   0.329437 0.503698 0.094405 0.091524
C20   C     C_R   0.093339 0.582492 0.089969 -0.201212
C21   C     C_R   0.038877 0.554892 0.180606 -0.205831
C22   C     C_R   0.269589 0.472750 0.185607 -0.148379
H1    H     H_    0.802550 0.422702 0.089668 0.152323
H2    H     H_    0.330796 0.424878 0.224388 0.180664
H3    H     H_    0.928687 0.577241 0.212058 0.166220
H4    H     H_    0.226144 0.647648 0.922839 0.181396
H5    H     H_    0.999609 0.459251 0.954814 0.173080
H6    H     H_    0.551314 0.420568 0.164794 0.188466
H7    H     H_    0.475933 0.620114 0.848152 0.164351
H8    H     H_    0.023285 0.625798 0.054156 0.148455
C23   C     C_R   0.116554 0.067542 0.454456 0.238046
C24   C     C_R   0.998482 0.129603 0.505682 -0.136971
C25   C     C_R   0.884745 0.062330 0.564002 -0.234731
H9    H     H_    0.796693 0.110985 0.607789 0.167957
C26   C     C_R   0.884029 0.931962 0.564718 0.145573
C27   C     C_R   0.998811 0.870756 0.505484 -0.096281
C28   C     C_R   0.116655 0.939540 0.453780 0.018548
C29   C     C_3   0.180605 0.939586 0.354633 -0.505355
C30   C     C_3   0.180699 0.080534 0.355856 -0.087374
H10   H     H_    0.289956 0.900053 0.335530 0.241351
H11   H     H_    0.105193 0.901035 0.318988 0.191525
H12   H     H_    0.108108 0.125654 0.319832 0.152071
C31   C     C_R   0.579098 0.607916 0.486667 0.122078
N1    N     N_R   0.648210 0.500930 0.499430 -0.193204
C32   C     C_R   0.559869 0.400545 0.533378 0.169986
C33   C     C_R   0.411402 0.399846 0.532824 0.405158
N2    N     N_R   0.352300 0.500890 0.499430 -0.220172
C34   C     C_R   0.434566 0.606796 0.484222 0.079415
C35   C     C_3   0.462501 0.698752 0.407430 0.177211
C36   C     C_3   0.618298 0.707569 0.414217 -0.139123
H13   H     H_    0.401664 0.785902 0.423884 0.074413
H14   H     H_    0.643258 0.798225 0.439520 0.154497
N3    N     N_3   0.766991 0.861989 0.623519 -0.562810
H15   H     H_    0.808415 0.813598 0.670138 0.215552
H16   H     H_    0.688825 0.921551 0.659645 0.224963
N4    N     N_3   0.325094 0.137284 0.333104 -0.535208
H17   H     H_    0.371126 0.127447 0.264711 0.228288
H18   H     H_    0.390631 0.089855 0.366562 0.262473
N5    N     N_3   0.613731 0.299436 0.575892 -0.508851
H19   H     H_    0.548317 0.286559 0.641175 0.240693
H20   H     H_    0.609139 0.219053 0.540880 0.237572
N6    N     N_R   0.323778 0.294740 0.572582 0.124780
O9    O     O_R   0.353034 0.185693 0.539225 -0.408849
O10   O     O_R   0.230200 0.303722 0.649811 -0.308293
N7    N     N_R   0.450089 0.643494 0.324902 0.175546
O11   O     O_R   0.417361 0.712487 0.263442 -0.383639
O12   O     O_R   0.485848 0.528669 0.308368 -0.412454
N8    N     N_3   0.726307 0.673217 0.333194 -0.516778
H21   H     H_    0.827100 0.701808 0.338965 0.230811
H22   H     H_    0.727303 0.576890 0.327655 0.277281
N9    N     N_R   0.122702 0.513402 0.785208 0.140891
O13   O     O_R   0.168708 0.618224 0.743166 -0.379405
O14   O     O_R   0.214576 0.440848 0.808697 -0.360055
N10   N     N_3   0.623186 0.435495 0.769059 -0.550091
H23   H     H_    0.540691 0.381236 0.811230 0.252186
H24   H     H_    0.579319 0.508316 0.739689 0.252343

loop_
_geom_bond_atom_site_label_1
_geom_bond_atom_site_label_2
_geom_bond_distance
_ccdc_geom_bond_type
C5    C8    1.421184 A    
N4    H18   1.046915 S    
C32   C33   1.432401 A    
N3    H16   1.045644 S    
C1    C24   1.435857 S    
C23   C24   1.388021 A    
C9    C10   1.415288 A    
C25   H9    1.082895 S    
N9    O13   1.301332 A    
Cu1   Cu2   2.709925 S    
C31   N1    1.370413 A    
C6    C21   1.397541 A    
Cu1   O7    1.951037 S    
C36   N8    1.460283 S    
C16   C17   1.383889 A    
C13   C19   1.428029 A    
C18   C19   1.420360 A    
N10   H24   1.043829 S    
C19   C22   1.408736 A    
O4    C2    1.306938 A    
O7    C4    1.304208 A    
N8    H22   1.044394 S    
C16   H7    1.077242 S    
C8    N9    1.434315 S    
C33   N2    1.382875 A    
C36   H14   1.113666 S    
N5    H20   1.044684 S    
O5    C3    1.300072 A    
C2    C5    1.491233 S    
C27   C28   1.394902 A    
C29   H11   1.112334 S    
C33   N6    1.429313 S    
C14   H6    1.073063 S    
C13   C14   1.415443 A    
C29   H10   1.105620 S    
N4    H17   1.045456 S    
C35   C36   1.535292 S    
O3    Cu1   1.964506 S    
C23   C30   1.493064 S    
N9    O14   1.301237 A    
C31   C36   1.502911 S    
C35   H13   1.109402 S    
C30   N4    1.464624 S    
C14   C15   1.391800 A    
N6    O10   1.299359 A    
Cu2   N1    2.036045 S    
N8    H21   1.044689 S    
C34   C35   1.494558 S    
C26   C27   1.414551 A    
C26   N3    1.437870 S    
C7    C11   1.396499 A    
O1    C1    1.296848 A    
C22   H2    1.074640 S    
C5    C9    1.422611 A    
N7    O11   1.299800 A    
N7    O12   1.301095 A    
C28   C29   1.498766 S    
C20   C21   1.387737 A    
Cu2   O8    1.964506 S    
C30   H12   1.113039 S    
C7    C8    1.398385 A    
C23   C28   1.380098 A    
C20   H8    1.083900 S    
C7    H5    1.082631 S    
N10   H23   1.045687 S    
C25   C26   1.404897 A    
C32   N5    1.429059 S    
O3    C2    1.313124 A    
C29   C30   1.519981 S    
C10   C12   1.420945 A    
C21   H3    1.073716 S    
C24   C25   1.401015 A    
C9    N10   1.442902 S    
C35   N7    1.465794 S    
Cu1   O5    1.956397 S    
C11   C15   1.394222 A    
N1    C32   1.373265 A    
O1    Cu1   1.954156 S    
O2    Cu2   1.956396 S    
O8    C4    1.308442 A    
N6    O9    1.300929 A    
O6    C3    1.297382 A    
O4    Cu2   1.951034 S    
C31   C34   1.402940 A    
C17   H4    1.084093 S    
C6    C22   1.400907 A    
C18   C20   1.399739 A    
O2    C1    1.298200 A    
N2    C34   1.363608 A    
C3    C27   1.442945 S    
C4    C6    1.472173 S    
N5    H19   1.045280 S    
N3    H15   1.045663 S    
C10   C11   1.408193 A    
Cu2   O6    1.954156 S    
C12   C16   1.408773 A    
C17   C18   1.390299 A    
C12   C13   1.421263 A    
Cu1   N2    2.036051 S    
C15   H1    1.084262 S    
