data_mof_unit_34220.cif
_audit_creation_date              2013-03-05T16:09:35-0500
_audit_creation_method            fapswitch 2.2
_symmetry_space_group_name_H-M    P1
_symmetry_Int_Tables_number       1
_space_group_crystal_system       triclinic
_cell_length_a                    10.550188
_cell_length_b                    10.754964
_cell_length_c                    9.898355
_cell_angle_alpha                 91.401488
_cell_angle_beta                  100.577718
_cell_angle_gamma                 91.999978
_cell_volume                      1102.83270839

loop_
_atom_site_label
_atom_site_type_symbol
_atom_site_description
_atom_site_fract_x
_atom_site_fract_y
_atom_site_fract_z
_atom_type_partial_charge
O1    O     O_R   0.499990 0.316750 0.614620 -0.629175
O2    O     O_R   0.500010 0.683250 0.385380 -0.630732
O3    O     O_R   0.499990 0.316780 0.385290 -0.540186
O4    O     O_R   0.500010 0.683220 0.614710 -0.544989
C1    C     C_R   0.513442 0.261011 0.500716 0.919088
C2    C     C_R   0.490383 0.740021 0.499898 0.906363
O5    O     O_R   0.317810 0.500000 0.571850 -0.553612
O6    O     O_R   0.682190 0.500000 0.428150 -0.570389
O7    O     O_R   0.317810 0.500030 0.342520 -0.599414
O8    O     O_R   0.682190 0.499970 0.657480 -0.585483
C3    C     C_R   0.258178 0.504871 0.446479 0.901225
C4    C     C_R   0.741466 0.503783 0.554382 0.957078
Zn1   Zn    Zn3+2 0.500000 0.499980 0.653120 1.075525
Zn2   Zn    Zn3+2 0.500000 0.500020 0.346880 1.076264
C5    C     C_R   0.596294 0.561179 0.092376 0.217139
C6    C     C_R   0.408840 0.431654 0.908474 0.213205
C7    C     C_R   0.597196 0.560651 0.949025 0.251329
C8    C     C_R   0.404366 0.437155 0.050889 0.251616
C9    C     C_2   0.119944 0.524738 0.428047 -0.071695
C10   C     C_2   0.880188 0.514647 0.578660 -0.074261
C11   C     C_2   0.076675 0.604967 0.515555 0.042221
C12   C     C_2   0.938677 0.608141 0.521107 0.116864
C13   C     C_R   0.501080 0.060026 0.373553 0.333311
C14   C     C_R   0.516314 0.942554 0.627937 0.330773
C15   C     C_R   0.464522 0.935359 0.374866 0.004282
C16   C     C_R   0.552446 0.067405 0.625616 0.001209
C17   C     C_R   0.482610 0.874251 0.501522 -0.296635
C18   C     C_R   0.530201 0.128182 0.499581 -0.294967
N1    N     N_R   0.499970 0.499970 0.857200 -0.221620
N2    N     N_R   0.500030 0.500030 0.142800 -0.221726
N3    N     N_3   0.867339 0.713861 0.468680 -0.353096
H1    H     H_    0.844088 0.763249 0.552559 0.184676
H2    H     H_    0.926065 0.773632 0.422754 0.230854
N4    N     N_3   0.164462 0.688592 0.605748 -0.399754
H3    H     H_    0.137439 0.779601 0.584195 0.204847
H4    H     H_    0.153579 0.671713 0.706645 0.242168
N5    N     N_R   0.697900 0.626117 0.184314 0.258578
O9    O     O_R   0.694190 0.746227 0.199957 -0.358211
O10   O     O_R   0.807988 0.573679 0.215594 -0.329225
N6    N     N_R   0.325800 0.343328 0.821515 0.257335
O11   O     O_R   0.334780 0.225622 0.847150 -0.319052
O12   O     O_R   0.219546 0.380138 0.749483 -0.395664
N7    N     N_3   0.949462 0.422078 0.659847 -0.411603
H5    H     H_    0.009456 0.467651 0.743379 0.282388
H6    H     H_    0.003821 0.373587 0.599460 0.242405
N8    N     N_3   0.031935 0.450752 0.327607 -0.361018
H7    H     H_    0.052596 0.470452 0.230998 0.282218
H8    H     H_    0.050102 0.357070 0.345488 0.206366
N9    N     N_R   0.708353 0.612205 0.903383 0.263213
O13   O     O_R   0.700381 0.709825 0.828307 -0.322088
O14   O     O_R   0.819362 0.561508 0.937976 -0.331240
N10   N     N_R   0.293944 0.382287 0.095225 0.255815
O15   O     O_R   0.305861 0.289075 0.176789 -0.306358
O16   O     O_R   0.178935 0.411467 0.035522 -0.362786
N11   N     N_R   0.522924 0.113058 0.246780 0.257439
O17   O     O_R   0.632218 0.172097 0.244009 -0.349314
O18   O     O_R   0.445470 0.085911 0.130783 -0.255513
N12   N     N_R   0.498706 0.890612 0.756642 0.263023
O19   O     O_R   0.388110 0.837086 0.765286 -0.368973
O20   O     O_R   0.579387 0.919155 0.870116 -0.262815
N13   N     N_3   0.402706 0.874644 0.247468 -0.339342
H9    H     H_    0.325493 0.816650 0.263410 0.203922
H10   H     H_    0.469290 0.824730 0.204455 0.276288
N14   N     N_3   0.617719 0.129338 0.750920 -0.334982
H11   H     H_    0.690965 0.190141 0.730498 0.210681
H12   H     H_    0.552248 0.177711 0.797063 0.276213

loop_
_geom_bond_atom_site_label_1
_geom_bond_atom_site_label_2
_geom_bond_distance
_ccdc_geom_bond_type
O7    Zn2   1.914691 S    
N3    H2    1.045784 S    
C13   N11   1.443973 S    
N5    O9    1.300064 A    
C8    N2    1.374312 A    
C15   C17   1.414678 A    
C1    C18   1.445612 S    
C7    N1    1.373384 A    
C16   C18   1.407765 A    
C2    C17   1.448683 S    
C14   C17   1.416077 A    
O6    C4    1.289509 A    
N7    H5    1.044459 S    
N14   H11   1.046039 S    
C4    C10   1.439067 S    
N11   O17   1.301871 A    
N6    O12   1.293484 A    
C6    N1    1.367427 A    
C9    N8    1.433366 S    
C8    N10   1.431909 S    
N5    O10   1.298126 A    
C15   N13   1.438739 S    
C11   C12   1.468537 S    
O5    C3    1.287395 A    
N7    H6    1.043859 S    
C3    C9    1.460076 S    
O2    C2    1.296445 A    
O3    Zn2   2.016188 S    
O8    C4    1.291802 A    
C6    N6    1.426839 S    
O1    C1    1.297033 A    
O7    C3    1.301825 A    
O4    C2    1.292649 A    
N6    O11   1.300455 A    
C9    C11   1.356203 D    
C10   C12   1.352834 D    
N10   O16   1.300923 A    
N4    H3    1.045079 S    
N4    H4    1.045512 S    
N11   O18   1.301459 A    
N13   H9    1.045979 S    
O2    Zn2   1.997962 S    
N8    H8    1.045450 S    
C10   N7    1.430177 S    
C7    N9    1.431149 S    
O1    Zn1   1.997962 S    
C12   N3    1.440057 S    
N12   O20   1.301634 A    
C14   N12   1.443615 S    
O5    Zn1   1.942703 S    
C13   C15   1.383193 A    
N10   O15   1.297584 A    
C5    N2    1.366967 A    
C6    C8    1.418964 A    
N9    O13   1.297306 A    
Zn1   N1    2.020116 S    
O4    Zn1   2.016188 S    
C5    C7    1.420600 A    
C16   N14   1.438832 S    
N8    H7    1.044061 S    
C5    N5    1.422513 S    
O6    Zn2   1.942702 S    
C11   N4    1.436224 S    
N9    O14   1.301012 A    
N12   O19   1.300897 A    
Zn2   N2    2.020118 S    
N13   H10   1.043012 S    
C13   C18   1.409513 A    
N3    H1    1.045923 S    
C14   C16   1.384869 A    
O3    C1    1.290422 A    
O8    Zn1   1.914691 S    
N14   H12   1.041952 S    
