data_mof_unit_39885.cif
_audit_creation_date              2012-10-26T17:50:21-0400
_audit_creation_method            fapswitch 2.2
_symmetry_space_group_name_H-M    P1
_symmetry_Int_Tables_number       1
_space_group_crystal_system       triclinic
_cell_length_a                    21.764467
_cell_length_b                    21.766598
_cell_length_c                    30.130473
_cell_angle_alpha                 89.962186
_cell_angle_beta                  90.088866
_cell_angle_gamma                 90.436419
_cell_volume                      14273.5279495

loop_
_atom_site_label
_atom_site_type_symbol
_atom_type_description
_atom_site_fract_x
_atom_site_fract_y
_atom_site_fract_z
_atom_type_partial_charge
C1    C     C_R   0.500208 0.118475 0.500049 0.535364
C2    C     C_R   0.279673 0.380774 0.587763 0.012181
C3    C     C_R   0.000166 0.499985 0.414340 0.539810
C4    C     C_R   0.000017 0.499898 0.085550 0.541080
C5    C     C_R   0.499957 0.999983 0.085576 0.541888
C6    C     C_R   0.999965 0.500025 0.914410 0.540778
C7    C     C_R   0.499477 0.000042 0.914456 0.542148
C8    C     C_R   0.541827 0.034636 0.843162 -0.138548
C9    C     C_R   0.036007 0.458205 0.843213 -0.139024
C10   C     C_R   0.453119 0.967403 0.843609 -0.134699
C11   C     C_R   0.963644 0.541802 0.843166 -0.139762
C12   C     C_R   0.541823 0.964044 0.156881 -0.139106
C13   C     C_R   0.373435 0.716586 0.581398 0.012611
C14   C     C_R   0.036613 0.543007 0.156184 -0.137526
C15   C     C_R   0.457910 0.036063 0.156636 -0.138986
C16   C     C_R   0.964063 0.458851 0.157046 -0.139288
C17   C     C_R   0.033610 0.545787 0.343278 -0.142164
C18   C     C_R   0.546873 0.971219 0.342877 -0.141522
C19   C     C_R   0.973368 0.452395 0.342599 -0.140897
C20   C     C_R   0.452928 0.029595 0.342765 -0.141954
C21   C     C_R   0.028941 0.453055 0.657202 -0.141516
C22   C     C_R   0.548334 0.025591 0.657518 -0.142048
C23   C     C_R   0.970085 0.546679 0.657051 -0.141657
C24   C     C_R   0.721019 0.614540 0.590665 0.011748
C25   C     C_R   0.452909 0.968612 0.656644 -0.142190
C26   C     C_R   0.498256 0.000421 0.866208 -0.001896
C27   C     C_R   0.999888 0.500025 0.866079 -0.000150
C28   C     C_R   0.499862 0.999978 0.133883 0.000384
C29   C     C_R   0.000079 0.500638 0.133821 -0.005101
C30   C     C_R   0.002018 0.499662 0.365889 -0.010471
C31   C     C_R   0.499868 0.000289 0.365845 -0.007513
C32   C     C_R   0.999673 0.499931 0.634118 -0.007301
C33   C     C_R   0.500380 0.998157 0.634109 -0.011256
C34   C     C_R   0.450153 0.968442 0.796968 0.011188
C35   C     C_R   0.618376 0.720651 0.411812 0.012058
C36   C     C_R   0.962998 0.543020 0.796522 0.000851
C37   C     C_R   0.542982 0.034521 0.796590 0.001144
C38   C     C_R   0.036218 0.456790 0.796576 0.000953
C39   C     C_R   0.456676 0.036720 0.203265 0.000890
C40   C     C_R   0.965223 0.457248 0.203617 0.001353
C41   C     C_R   0.543199 0.963840 0.203515 0.001035
C42   C     C_R   0.037894 0.545319 0.202851 0.010177
C43   C     C_R   0.975239 0.450523 0.296124 0.002800
C44   C     C_R   0.450961 0.028716 0.296163 0.002151
C45   C     C_R   0.037224 0.545932 0.296591 0.007953
C46   C     C_R   0.283569 0.628098 0.419726 0.012467
C47   C     C_R   0.548937 0.972377 0.296335 0.002115
C48   C     C_R   0.970986 0.548716 0.703634 0.002115
C49   C     C_R   0.451278 0.967151 0.703303 0.009943
C50   C     C_R   0.027754 0.450993 0.703747 0.002159
C51   C     C_R   0.549587 0.024385 0.704049 0.002111
C52   C     C_R   0.497682 0.999581 0.773466 0.019719
C53   C     C_R   0.999543 0.499902 0.773332 0.022503
C54   C     C_R   0.499934 0.000357 0.226610 0.022496
C55   C     C_R   0.003286 0.500331 0.226543 0.017065
C56   C     C_R   0.005031 0.499236 0.273013 0.020327
C57   C     C_R   0.385263 0.279340 0.409335 0.011768
C58   C     C_R   0.499938 0.000492 0.273026 0.023221
C59   C     C_R   0.999435 0.499885 0.726917 0.023100
C60   C     C_R   0.499076 0.997562 0.726993 0.021206
C61   C     C_R   0.401305 0.938959 0.773598 0.008581
C62   C     C_R   0.928094 0.587451 0.772890 0.016027
C63   C     C_R   0.589673 0.066958 0.773077 0.017110
C64   C     C_R   0.070664 0.412067 0.772997 0.016145
C65   C     C_R   0.412080 0.071434 0.226733 0.016184
C66   C     C_R   0.930707 0.412153 0.227291 0.016750
C67   C     C_R   0.588034 0.929564 0.227236 0.016228
C68   C     C_R   0.718241 0.383953 0.410184 0.011746
C69   C     C_R   0.072888 0.590877 0.226043 0.030451
C70   C     C_R   0.945983 0.402057 0.272536 0.015347
C71   C     C_R   0.402400 0.057188 0.272355 0.014968
C72   C     C_R   0.072111 0.591362 0.273383 0.010245
C73   C     C_R   0.597701 0.944232 0.272764 0.015202
C74   C     C_R   0.942279 0.597168 0.727270 0.015403
C75   C     C_R   0.402982 0.936468 0.726415 0.009885
C76   C     C_R   0.056052 0.402341 0.727456 0.015326
C77   C     C_R   0.599211 0.051427 0.727841 0.014641
C78   C     C_R   0.566747 0.186828 0.566679 -0.113320
C79   C     C_R   0.131272 0.784088 0.077500 0.010544
C80   C     C_R   0.185896 0.431541 0.565446 -0.112254
C81   C     C_R   0.426213 0.811621 0.562822 -0.114139
C82   C     C_R   0.814558 0.564498 0.567363 -0.112324
C83   C     C_R   0.567782 0.814341 0.434265 -0.112398
C84   C     C_R   0.188425 0.575170 0.437810 -0.114604
C85   C     C_R   0.435282 0.185696 0.432672 -0.112371
C86   C     C_R   0.812976 0.433560 0.433322 -0.113315
C87   C     C_R   0.078889 0.688770 0.060098 -0.117831
C88   C     C_R   0.686463 0.927181 0.063088 -0.113313
C89   C     C_R   0.925952 0.312363 0.062661 -0.114425
C90   C     C_R   0.780461 0.876375 0.083849 0.011397
C91   C     C_R   0.313493 0.078396 0.059964 -0.112167
C92   C     C_R   0.073036 0.313655 0.937126 -0.113462
C93   C     C_R   0.687517 0.074141 0.937258 -0.114526
C94   C     C_R   0.926468 0.686300 0.937256 -0.116675
C95   C     C_R   0.308867 0.911343 0.947132 -0.113900
C96   C     C_R   0.606078 0.218333 0.595267 -0.104246
C97   C     C_R   0.216669 0.391069 0.593280 -0.104906
C98   C     C_R   0.383129 0.779594 0.588106 -0.106800
C99   C     C_R   0.783947 0.603642 0.596141 -0.104228
C100  C     C_R   0.608015 0.783660 0.406312 -0.104814
C101  C     C_R   0.875848 0.217344 0.083652 0.011415
C102  C     C_R   0.220494 0.618808 0.413021 -0.107813
C103  C     C_R   0.396119 0.216429 0.403858 -0.104305
C104  C     C_R   0.781392 0.394367 0.404700 -0.104316
C105  C     C_R   0.123486 0.721104 0.083880 -0.124808
C106  C     C_R   0.717490 0.884720 0.089094 -0.120752
C107  C     C_R   0.883818 0.280522 0.088783 -0.120368
C108  C     C_R   0.282554 0.123029 0.084038 -0.121162
C109  C     C_R   0.115624 0.282687 0.911308 -0.120981
C110  C     C_R   0.719352 0.116205 0.911049 -0.121162
C111  C     C_R   0.883859 0.717254 0.911296 -0.120844
C112  C     C_R   0.118594 0.500276 0.499733 0.535427
C113  C     C_R   0.219714 0.131664 0.077831 0.012468
C114  C     C_R   0.276111 0.861401 0.929968 -0.123381
C115  C     C_3   0.345476 0.913362 0.798441 -0.252173
C116  C     C_3   0.354334 0.845753 0.811764 -0.298221
C117  C     C_3   0.292788 0.811861 0.815171 -0.465890
C118  C     C_3   0.876323 0.621036 0.797390 -0.250610
C119  C     C_3   0.822258 0.644353 0.769109 -0.303592
C120  C     C_3   0.764067 0.652147 0.796799 -0.465151
C121  C     C_3   0.625526 0.118296 0.797035 -0.250598
C122  C     C_3   0.650795 0.170976 0.767943 -0.303051
C123  C     C_3   0.659688 0.230204 0.794482 -0.465293
C124  C     C_R   0.123942 0.219710 0.916613 0.011728
C125  C     C_3   0.122372 0.378104 0.797411 -0.250994
C126  C     C_3   0.175675 0.353786 0.768940 -0.303459
C127  C     C_3   0.234308 0.345783 0.796242 -0.465134
C128  C     C_3   0.378522 0.123354 0.202183 -0.250678
C129  C     C_3   0.355541 0.177325 0.230594 -0.303055
C130  C     C_3   0.348757 0.236018 0.203206 -0.465391
C131  C     C_3   0.877945 0.378364 0.203309 -0.250751
C132  C     C_3   0.824971 0.353450 0.232200 -0.303878
C133  C     C_3   0.765846 0.345199 0.205360 -0.465237
C134  C     C_3   0.622169 0.877954 0.202980 -0.250866
C135  C     C_R   0.782533 0.124202 0.916265 0.011433
C136  C     C_3   0.646495 0.824679 0.231592 -0.303466
C137  C     C_3   0.654622 0.766074 0.204392 -0.465177
C138  C     C_3   0.108880 0.640714 0.200798 -0.245007
C139  C     C_3   0.177160 0.624473 0.194534 -0.301395
C140  C     C_3   0.187597 0.574330 0.160024 -0.427365
C141  C     C_3   0.939151 0.338681 0.294305 -0.247706
C142  C     C_3   0.966624 0.286748 0.266087 -0.292528
C143  C     C_3   0.960968 0.224824 0.289587 -0.464700
C144  C     C_3   0.339337 0.064436 0.294255 -0.247764
C145  C     C_3   0.286786 0.036118 0.266572 -0.292677
C146  C     C_R   0.875582 0.780252 0.916457 0.011408
C147  C     C_3   0.225433 0.040528 0.290802 -0.464867
C148  C     C_3   0.108476 0.640062 0.299337 -0.255820
C149  C     C_3   0.067122 0.693747 0.312855 -0.297147
C150  C     C_3   0.102623 0.741579 0.339830 -0.462778
C151  C     C_3   0.660886 0.937915 0.294803 -0.247555
C152  C     C_3   0.713048 0.966793 0.267116 -0.292465
C153  C     C_3   0.774689 0.962183 0.291072 -0.464779
C154  C     C_3   0.934303 0.660035 0.705081 -0.247043
C155  C     C_3   0.962235 0.713109 0.732410 -0.292989
C156  C     C_3   0.954830 0.774520 0.708568 -0.464827
C157  C     C_R   0.213356 0.854773 0.938408 0.008847
C158  C     C_3   0.354782 0.899020 0.700851 -0.257558
C159  C     C_3   0.303017 0.939895 0.682991 -0.298081
C160  C     C_3   0.256101 0.902295 0.656639 -0.461705
C161  C     C_3   0.062551 0.339173 0.705541 -0.247521
C162  C     C_3   0.033769 0.286959 0.733262 -0.292412
C163  C     C_3   0.038721 0.225297 0.709486 -0.464868
C164  C     C_3   0.662980 0.055457 0.706391 -0.247954
C165  C     C_3   0.713510 0.025933 0.734980 -0.292468
C166  C     C_3   0.775140 0.025920 0.710857 -0.464742
C167  C     C_3   0.660866 0.318342 0.618384 -0.251826
C168  C     C_R   0.583562 0.312616 0.556712 -0.098236
C169  C     C_3   0.693886 0.281753 0.654890 -0.305162
C170  C     C_3   0.737062 0.322965 0.681767 -0.452954
C171  C     C_3   0.315799 0.335844 0.616007 -0.251574
C172  C     C_3   0.279130 0.303914 0.653165 -0.305258
C173  C     C_3   0.319885 0.261247 0.680339 -0.452926
C174  C     C_3   0.324851 0.679421 0.605890 -0.251951
C175  C     C_3   0.284574 0.716070 0.638158 -0.305819
C176  C     C_3   0.236569 0.674730 0.660203 -0.449770
C177  C     C_3   0.685242 0.658884 0.619502 -0.251686
C178  C     C_3   0.722560 0.690684 0.656431 -0.305107
C179  C     C_R   0.311320 0.414387 0.555164 -0.098981
C180  C     C_3   0.682410 0.733616 0.683724 -0.453698
C181  C     C_3   0.663188 0.684643 0.383518 -0.251612
C182  C     C_3   0.695159 0.721519 0.346480 -0.305208
C183  C     C_3   0.737860 0.680923 0.319343 -0.453091
C184  C     C_3   0.320811 0.677081 0.395690 -0.251887
C185  C     C_3   0.284195 0.718121 0.363790 -0.306150
C186  C     C_3   0.325636 0.766390 0.342135 -0.449994
C187  C     C_3   0.340996 0.315278 0.380416 -0.251734
C188  C     C_3   0.309421 0.278228 0.343260 -0.305041
C189  C     C_3   0.266693 0.318597 0.315832 -0.453868
C190  C     C_R   0.410878 0.685963 0.550945 -0.099098
C191  C     C_3   0.681337 0.339649 0.381537 -0.251727
C192  C     C_3   0.717760 0.307178 0.344793 -0.305275
C193  C     C_3   0.676465 0.264291 0.317750 -0.453108
C194  C     C_3   0.181325 0.818504 0.101931 -0.252476
C195  C     C_3   0.165587 0.825000 0.151293 -0.295723
C196  C     C_3   0.215441 0.860930 0.176020 -0.456370
C197  C     C_3   0.813463 0.829620 0.111932 -0.254474
C198  C     C_3   0.817510 0.850901 0.160417 -0.296803
C199  C     C_3   0.847865 0.802502 0.189596 -0.455756
C200  C     C_3   0.829349 0.183406 0.111748 -0.254356
C201  C     C_R   0.689189 0.582428 0.557324 -0.098442
C202  C     C_3   0.850529 0.180236 0.160312 -0.296345
C203  C     C_3   0.803018 0.147491 0.189246 -0.456787
C204  C     C_3   0.186671 0.180544 0.103777 -0.253991
C205  C     C_3   0.180219 0.161890 0.152687 -0.296579
C206  C     C_3   0.148592 0.211890 0.179559 -0.456244
C207  C     C_3   0.170874 0.186779 0.888768 -0.254442
C208  C     C_3   0.149858 0.182783 0.840193 -0.296472
C209  C     C_3   0.198465 0.152554 0.811248 -0.456125
C210  C     C_3   0.816477 0.170638 0.888123 -0.254459
C211  C     C_3   0.821303 0.148414 0.839933 -0.296527
C212  C     C_R   0.584994 0.688892 0.444477 -0.098951
C213  C     C_3   0.853273 0.196161 0.810732 -0.456883
C214  C     C_3   0.828891 0.813288 0.888309 -0.254383
C215  C     C_3   0.850246 0.817307 0.839852 -0.296803
C216  C     C_3   0.802522 0.848973 0.810787 -0.456874
C217  C     C_3   0.178545 0.797984 0.923720 -0.262436
C218  C     C_3   0.127568 0.813216 0.890275 -0.299233
C219  C     C_3   0.091676 0.755554 0.876983 -0.445356
C220  C     C_R   0.499737 0.881423 0.500217 0.535393
C221  C     C_R   0.314186 0.589855 0.449736 -0.099122
C222  C     C_R   0.417372 0.311015 0.442751 -0.098365
C223  C     C_R   0.687243 0.416547 0.443361 -0.098089
C224  C     C_R   0.091739 0.814842 0.048560 -0.095166
C225  C     C_R   0.812314 0.912414 0.052839 -0.089712
C226  C     C_R   0.911998 0.186134 0.052693 -0.089808
C227  C     C_R   0.187761 0.093300 0.048348 -0.091779
C228  C     C_R   0.087718 0.187786 0.947464 -0.090403
C229  C     C_R   0.813785 0.088024 0.947272 -0.089847
C230  C     C_R   0.911796 0.812184 0.947351 -0.090031
C231  C     C_R   0.881529 0.499792 0.499969 0.535226
C232  C     C_R   0.183415 0.900749 0.962172 -0.087560
C233  C     C_R   0.539723 0.282008 0.529490 -0.006907
C234  C     C_R   0.281489 0.459294 0.528802 -0.007527
C235  C     C_R   0.457428 0.717248 0.526758 -0.007987
C236  C     C_R   0.718816 0.538670 0.529922 -0.007187
C237  C     C_R   0.540295 0.718628 0.470965 -0.007455
C238  C     C_R   0.282819 0.542946 0.473526 -0.007732
C239  C     C_R   0.461172 0.281285 0.470172 -0.007137
C240  C     C_R   0.717916 0.460303 0.470597 -0.006908
C241  C     C_R   0.044303 0.783154 0.025462 -0.011901
C242  C     C_R   0.000280 0.618673 0.000207 0.534223
C243  C     C_R   0.781956 0.958252 0.027577 -0.008860
C244  C     C_R   0.957604 0.217330 0.027403 -0.008877
C245  C     C_R   0.217989 0.045265 0.025485 -0.010828
C246  C     C_R   0.041782 0.218097 0.972540 -0.009642
C247  C     C_R   0.782621 0.042380 0.972554 -0.008966
C248  C     C_R   0.957839 0.781919 0.972463 -0.009108
C249  C     C_R   0.215852 0.952199 0.979289 -0.009231
C250  C     C_R   0.535548 0.217550 0.532005 0.002338
C251  C     C_R   0.217136 0.463912 0.531415 0.003174
C252  C     C_R   0.461144 0.781677 0.529803 0.002217
C253  C     C_R   0.618605 0.000202 0.999967 0.534079
C254  C     C_R   0.783161 0.534004 0.532495 0.002831
C255  C     C_R   0.535708 0.782990 0.468385 0.003002
C256  C     C_R   0.218363 0.539436 0.470480 0.002402
C257  C     C_R   0.465854 0.216957 0.467571 0.002840
C258  C     C_R   0.782360 0.464552 0.468042 0.002408
C259  C     C_R   0.041210 0.718611 0.028415 0.001693
C260  C     C_R   0.717498 0.962189 0.030269 0.004045
C261  C     C_R   0.961129 0.281900 0.029947 0.003309
C262  C     C_R   0.282433 0.040992 0.028479 0.005070
C263  C     C_R   0.037899 0.282561 0.969839 0.003825
C264  C     C_R   0.999805 0.381392 0.000008 0.534230
C265  C     C_R   0.718038 0.038909 0.970014 0.003708
C266  C     C_R   0.961819 0.717452 0.969876 -0.001592
C267  C     C_R   0.280273 0.954549 0.975451 0.001492
C268  C     C_R   0.500214 0.313988 0.499945 -0.029123
C269  C     C_R   0.314298 0.500064 0.500487 -0.027837
C270  C     C_R   0.499795 0.685757 0.499452 -0.028295
C271  C     C_R   0.686018 0.499697 0.500164 -0.029175
C272  C     C_R   0.000237 0.814529 0.999533 -0.028385
C273  C     C_R   0.814385 0.000165 0.999989 -0.029814
C274  C     C_R   0.999753 0.185615 0.999979 -0.030157
C275  C     C_R   0.381179 0.999663 0.999712 0.534073
C276  C     C_R   0.185137 0.000406 0.000973 -0.026673
C277  C     C_R   0.500636 0.185294 0.499853 -0.013836
C278  C     C_R   0.185602 0.500991 0.500325 -0.016120
C279  C     C_R   0.499056 0.814450 0.499656 -0.015967
C280  C     C_R   0.814716 0.499351 0.500193 -0.013754
C281  C     C_R   0.000993 0.685798 0.999654 -0.020022
C282  C     C_R   0.685639 0.000580 0.000139 -0.015486
C283  C     C_R   0.999454 0.314358 0.999862 -0.015830
C284  C     C_R   0.313836 0.998787 0.000726 -0.019591
C285  C     C_R   0.381287 0.499364 0.500073 0.524570
C286  C     C_R   0.616400 0.281510 0.589806 0.011692
C287  C     C_R   0.500498 0.618734 0.499897 0.524507
C288  C     C_R   0.618831 0.499991 0.500041 0.525501
C289  C     C_R   0.499984 0.381171 0.499999 0.525284
C290  C     C_R   0.881322 0.000001 0.999981 0.522790
C291  C     C_R   0.999904 0.118679 0.999993 0.521529
C292  C     C_R   0.118490 0.001437 0.000173 0.522328
C293  C     C_R   0.999561 0.881373 0.999927 0.520904
C294  C     C_R   0.500081 0.999779 0.585658 0.539913
C295  C     C_R   0.999907 0.499982 0.585659 0.539600
C296  C     C_R   0.499951 0.000121 0.414327 0.539492
Cu1   Cu    Cu3+1 0.438180 1.000000 0.500000 0.900460
Cu2   Cu    Cu3+1 0.500000 0.500000 0.544440 0.876867
Cu3   Cu    Cu3+1 0.000000 0.000000 0.955560 0.874052
Cu4   Cu    Cu3+1 1.000000 0.000000 0.044440 0.879243
Cu5   Cu    Cu3+1 0.000000 0.561820 0.500000 0.900796
Cu6   Cu    Cu3+1 0.561820 1.000000 0.500000 0.902319
Cu7   Cu    Cu3+1 0.000000 0.438180 0.500000 0.902622
Cu8   Cu    Cu3+1 0.938180 0.500000 0.000000 0.907697
Cu9   Cu    Cu3+1 0.500000 0.061820 0.000000 0.906588
Cu10  Cu    Cu3+1 0.061820 0.500000 0.000000 0.898997
Cu11  Cu    Cu3+1 0.500000 0.938180 0.000000 0.903340
Cu12  Cu    Cu3+1 0.500000 0.500000 0.455560 0.876622
H1    H     H_    0.576917 0.058109 0.862298 0.094731
H2    H     H_    0.579991 0.945322 0.361902 0.104934
H3    H     H_    0.296762 0.986938 0.259957 0.163235
H4    H     H_    0.337381 0.039202 0.326145 0.140649
H5    H     H_    0.330578 0.112927 0.302981 0.119053
H6    H     H_    0.118471 0.721376 0.371638 0.145745
H7    H     H_    0.142926 0.758840 0.320832 0.145940
H8    H     H_    0.072205 0.780918 0.347385 0.142770
H9    H     H_    0.048392 0.716169 0.282638 0.156225
H10   H     H_    0.027616 0.676944 0.332864 0.166906
H11   H     H_    0.131164 0.619273 0.328568 0.123447
H12   H     H_    0.148216 0.658456 0.280721 0.133167
H13   H     H_    0.946399 0.419355 0.361244 0.105289
H14   H     H_    0.773117 0.986947 0.323268 0.151109
H15   H     H_    0.786262 0.913249 0.297087 0.146515
H16   H     H_    0.811304 0.983206 0.270257 0.138753
H17   H     H_    0.717840 0.943805 0.234647 0.161176
H18   H     H_    0.702840 0.016036 0.260892 0.163648
H19   H     H_    0.662546 0.963337 0.326613 0.140644
H20   H     H_    0.670251 0.889608 0.303774 0.119210
H21   H     H_    0.905345 0.784425 0.703294 0.146289
H22   H     H_    0.975204 0.811841 0.729093 0.138250
H23   H     H_    0.978671 0.773751 0.676005 0.151079
H24   H     H_    0.419872 0.055433 0.361773 0.104446
H25   H     H_    0.940130 0.717199 0.765227 0.160635
H26   H     H_    0.011975 0.704533 0.737891 0.162012
H27   H     H_    0.959379 0.662155 0.673172 0.140015
H28   H     H_    0.885681 0.668137 0.696285 0.119146
H29   H     H_    0.278039 0.881847 0.626936 0.145836
H30   H     H_    0.236359 0.865068 0.677588 0.145806
H31   H     H_    0.218273 0.932568 0.645454 0.143013
H32   H     H_    0.279131 0.962723 0.710948 0.153730
H33   H     H_    0.321877 0.976602 0.661232 0.166904
H34   H     H_    0.376778 0.872975 0.673641 0.123027
H35   H     H_    0.054994 0.420055 0.638275 0.104733
H36   H     H_    0.334612 0.861871 0.721399 0.144880
H37   H     H_    0.014095 0.226715 0.677188 0.151048
H38   H     H_    0.087732 0.213899 0.703696 0.146399
H39   H     H_    0.017740 0.188647 0.730314 0.138745
H40   H     H_    0.056640 0.282328 0.765833 0.161255
H41   H     H_    0.984455 0.296985 0.739276 0.163615
H42   H     H_    0.037167 0.337436 0.673678 0.140542
H43   H     H_    0.110895 0.329928 0.696684 0.119245
H44   H     H_    0.771768 0.998946 0.679653 0.150946
H45   H     H_    0.789660 0.073739 0.702982 0.147191
H46   H     H_    0.582593 0.050994 0.638896 0.106601
H47   H     H_    0.810588 0.004746 0.732428 0.138420
H48   H     H_    0.720087 0.050938 0.766541 0.160520
H49   H     H_    0.700285 0.977728 0.742947 0.164480
H50   H     H_    0.663872 0.029176 0.674928 0.141775
H51   H     H_    0.674598 0.103251 0.696947 0.119506
H52   H     H_    0.373863 0.189981 0.377995 0.093998
H53   H     H_    0.195104 0.645711 0.389323 0.095039
H54   H     H_    0.631272 0.810180 0.380974 0.094007
H55   H     H_    0.807354 0.371735 0.378983 0.094159
H56   H     H_    0.356994 0.804992 0.612202 0.094352
H57   H     H_    0.944021 0.579514 0.637919 0.104210
H58   H     H_    0.190231 0.367620 0.618566 0.094014
H59   H     H_    0.628885 0.192296 0.620940 0.094604
H60   H     H_    0.810510 0.625862 0.621965 0.093837
H61   H     H_    0.856545 0.691748 0.887478 0.098593
H62   H     H_    0.694383 0.143421 0.887077 0.098775
H63   H     H_    0.142994 0.308194 0.887561 0.098195
H64   H     H_    0.300372 0.827083 0.911018 0.104977
H65   H     H_    0.856548 0.305482 0.112648 0.098087
H66   H     H_    0.692034 0.857480 0.112948 0.098270
H67   H     H_    0.152831 0.696776 0.106829 0.105794
H68   H     H_    0.417427 0.947370 0.636744 0.120709
H69   H     H_    0.307880 0.151252 0.107447 0.098383
H70   H     H_    0.772506 0.343889 0.659858 0.159198
H71   H     H_    0.710793 0.359973 0.698355 0.151333
H72   H     H_    0.760472 0.295216 0.707610 0.136761
H73   H     H_    0.659526 0.261162 0.677884 0.155324
H74   H     H_    0.721383 0.244469 0.639662 0.157892
H75   H     H_    0.696000 0.339472 0.596240 0.146536
H76   H     H_    0.634911 0.356222 0.634293 0.144858
H77   H     H_    0.339631 0.225052 0.658779 0.158710
H78   H     H_    0.357767 0.287724 0.696263 0.151462
H79   H     H_    0.560909 0.138132 0.572493 0.132922
H80   H     H_    0.292092 0.238809 0.706740 0.136985
H81   H     H_    0.259571 0.338938 0.675860 0.155148
H82   H     H_    0.241062 0.276216 0.638530 0.157128
H83   H     H_    0.335207 0.300189 0.593752 0.146282
H84   H     H_    0.354924 0.361267 0.631364 0.145274
H85   H     H_    0.205837 0.653873 0.634783 0.160590
H86   H     H_    0.259302 0.637645 0.679357 0.153169
H87   H     H_    0.208284 0.702360 0.683317 0.137533
H88   H     H_    0.313721 0.737015 0.664539 0.155005
H89   H     H_    0.260354 0.753115 0.619882 0.160436
H90   H     H_    0.137471 0.437796 0.571678 0.134050
H91   H     H_    0.294506 0.657177 0.580762 0.148107
H92   H     H_    0.348292 0.642369 0.624707 0.145610
H93   H     H_    0.662510 0.769845 0.662191 0.158517
H94   H     H_    0.644653 0.707351 0.699920 0.150946
H95   H     H_    0.710703 0.756023 0.709904 0.136880
H96   H     H_    0.742199 0.655573 0.679075 0.154601
H97   H     H_    0.760595 0.718151 0.641583 0.157368
H98   H     H_    0.665198 0.694707 0.597609 0.145978
H99   H     H_    0.646575 0.633078 0.635061 0.144610
H100  H     H_    0.774009 0.661021 0.340959 0.158702
H101  H     H_    0.431597 0.860061 0.569743 0.134217
H102  H     H_    0.711390 0.643162 0.303285 0.151286
H103  H     H_    0.760368 0.708874 0.293052 0.137008
H104  H     H_    0.660152 0.741198 0.323740 0.155072
H105  H     H_    0.722841 0.759504 0.361224 0.157245
H106  H     H_    0.698843 0.665010 0.405759 0.146279
H107  H     H_    0.637665 0.645682 0.368056 0.145116
H108  H     H_    0.346732 0.796528 0.367805 0.161049
H109  H     H_    0.362547 0.743892 0.322753 0.152887
H110  H     H_    0.298019 0.795244 0.319292 0.137456
H111  H     H_    0.263028 0.689567 0.337177 0.153716
H112  H     H_    0.061345 0.425029 0.862534 0.095630
H113  H     H_    0.863110 0.558170 0.573185 0.132182
H114  H     H_    0.247321 0.742128 0.382296 0.160914
H115  H     H_    0.343223 0.706832 0.421096 0.148282
H116  H     H_    0.357741 0.653926 0.376656 0.145465
H117  H     H_    0.230345 0.338389 0.337225 0.158569
H118  H     H_    0.293095 0.356432 0.299832 0.150565
H119  H     H_    0.244422 0.290504 0.289492 0.136956
H120  H     H_    0.344670 0.258712 0.320754 0.154840
H121  H     H_    0.281827 0.240120 0.357901 0.157329
H122  H     H_    0.305048 0.335112 0.402216 0.145934
H123  H     H_    0.366832 0.354090 0.365053 0.144566
H124  H     H_    0.561535 0.862805 0.428111 0.133929
H125  H     H_    0.655776 0.228492 0.339495 0.159142
H126  H     H_    0.639277 0.290700 0.301390 0.151156
H127  H     H_    0.704100 0.241327 0.291713 0.136905
H128  H     H_    0.738144 0.341878 0.321952 0.155142
H129  H     H_    0.755198 0.279554 0.359807 0.157771
H130  H     H_    0.660509 0.304209 0.403594 0.146524
H131  H     H_    0.643232 0.365631 0.365828 0.144865
H132  H     H_    0.260145 0.836892 0.173545 0.152113
H133  H     H_    0.220262 0.907925 0.161970 0.156632
H134  H     H_    0.202862 0.864809 0.211607 0.135566
H135  H     H_    0.139963 0.570072 0.430808 0.134437
H136  H     H_    0.121197 0.849465 0.154846 0.167262
H137  H     H_    0.160748 0.778828 0.166740 0.151351
H138  H     H_    0.225389 0.793553 0.098064 0.142000
H139  H     H_    0.187950 0.865058 0.087330 0.146182
H140  H     H_    0.820555 0.759177 0.189064 0.151308
H141  H     H_    0.895213 0.793198 0.177780 0.155605
H142  H     H_    0.850336 0.819376 0.224334 0.136489
H143  H     H_    0.844724 0.894265 0.162310 0.165404
H144  H     H_    0.770842 0.859966 0.173661 0.156365
H145  H     H_    0.788388 0.785000 0.109885 0.141422
H146  H     H_    0.441591 0.137168 0.426834 0.132216
H147  H     H_    0.860716 0.822022 0.099128 0.143763
H148  H     H_    0.758795 0.172631 0.188531 0.151283
H149  H     H_    0.795400 0.099725 0.177365 0.154667
H150  H     H_    0.819755 0.145806 0.224061 0.136558
H151  H     H_    0.894728 0.155089 0.162339 0.165712
H152  H     H_    0.858007 0.227292 0.173649 0.155878
H153  H     H_    0.784482 0.207330 0.109519 0.141482
H154  H     H_    0.822241 0.135882 0.099066 0.144150
H155  H     H_    0.175994 0.255134 0.178480 0.150984
H156  H     H_    0.101850 0.220580 0.166197 0.156200
H157  H     H_    0.861647 0.439475 0.427489 0.132383
H158  H     H_    0.144386 0.196955 0.214681 0.136597
H159  H     H_    0.152729 0.118746 0.155080 0.166305
H160  H     H_    0.226229 0.153375 0.167419 0.156064
H161  H     H_    0.212713 0.224542 0.101084 0.141235
H162  H     H_    0.140147 0.188387 0.089599 0.144691
H163  H     H_    0.241748 0.179930 0.811946 0.151253
H164  H     H_    0.207787 0.105208 0.823141 0.154600
H165  H     H_    0.181777 0.150110 0.776439 0.136418
H166  H     H_    0.106540 0.155511 0.838129 0.165481
H167  H     H_    0.140789 0.229454 0.826876 0.156427
H168  H     H_    0.074570 0.640344 0.067216 0.134558
H169  H     H_    0.215471 0.211878 0.890991 0.141236
H170  H     H_    0.178435 0.139521 0.901651 0.143014
H171  H     H_    0.826785 0.239589 0.810441 0.151130
H172  H     H_    0.900518 0.205529 0.823138 0.154983
H173  H     H_    0.856276 0.178631 0.776204 0.136607
H174  H     H_    0.847785 0.104954 0.838877 0.165541
H175  H     H_    0.774772 0.139185 0.826137 0.156710
H176  H     H_    0.791810 0.215160 0.889393 0.141117
H177  H     H_    0.863537 0.178779 0.901457 0.144193
H178  H     H_    0.758580 0.822671 0.811210 0.151081
H179  H     H_    0.638006 0.932242 0.069503 0.135418
H180  H     H_    0.794324 0.896463 0.822772 0.154608
H181  H     H_    0.819405 0.851298 0.776056 0.136496
H182  H     H_    0.894181 0.843606 0.838109 0.164494
H183  H     H_    0.858298 0.770538 0.826411 0.155724
H184  H     H_    0.784217 0.788298 0.890261 0.141216
H185  H     H_    0.821351 0.860546 0.901141 0.143827
H186  H     H_    0.122631 0.721904 0.860917 0.150541
H187  H     H_    0.070127 0.734069 0.906636 0.167806
H188  H     H_    0.054811 0.767926 0.853145 0.141320
H189  H     H_    0.094793 0.846406 0.904901 0.180562
H190  H     H_    0.930664 0.360967 0.068960 0.135488
H191  H     H_    0.148105 0.834348 0.860107 0.156429
H192  H     H_    0.210421 0.764415 0.908401 0.137167
H193  H     H_    0.158039 0.775705 0.953514 0.154607
H194  H     H_    0.593626 0.360940 0.552425 0.138433
H195  H     H_    0.359602 0.404738 0.550946 0.136075
H196  H     H_    0.402069 0.637505 0.545947 0.134877
H197  H     H_    0.641109 0.592947 0.553028 0.137483
H198  H     H_    0.594759 0.640628 0.448696 0.136487
H199  H     H_    0.362715 0.598347 0.454741 0.134637
H200  H     H_    0.406859 0.359075 0.447063 0.137302
H201  H     H_    0.361610 0.072840 0.067489 0.137172
H202  H     H_    0.638950 0.406387 0.447683 0.138508
H203  H     H_    0.099088 0.863593 0.044188 0.133733
H204  H     H_    0.860771 0.903740 0.048735 0.136328
H205  H     H_    0.903625 0.137483 0.048675 0.137218
H206  H     H_    0.139055 0.100886 0.044183 0.131122
H207  H     H_    0.096342 0.139317 0.951607 0.135092
H208  H     H_    0.862453 0.096377 0.951303 0.137363
H209  H     H_    0.903367 0.860715 0.951291 0.136090
H210  H     H_    0.134885 0.894639 0.968441 0.126512
H211  H     H_    0.068007 0.362118 0.930662 0.135807
H212  H     H_    0.420747 0.941323 0.863310 0.103631
H213  H     H_    0.638877 0.069524 0.931007 0.135598
H214  H     H_    0.931624 0.637876 0.930766 0.136268
H215  H     H_    0.356701 0.914648 0.938077 0.138243
H216  H     H_    0.260533 0.837642 0.836548 0.158748
H217  H     H_    0.271914 0.806600 0.781711 0.143182
H218  H     H_    0.299867 0.765482 0.829574 0.138627
H219  H     H_    0.383229 0.821479 0.787045 0.164329
H220  H     H_    0.378316 0.843457 0.844281 0.151544
H221  H     H_    0.334389 0.941372 0.828082 0.127256
H222  H     H_    0.303359 0.918662 0.778151 0.143337
H223  H     H_    0.938506 0.575070 0.862459 0.095017
H224  H     H_    0.748365 0.607121 0.810141 0.152393
H225  H     H_    0.772757 0.684317 0.824757 0.149082
H226  H     H_    0.726933 0.671192 0.775680 0.143282
H227  H     H_    0.833428 0.690341 0.755386 0.160073
H228  H     H_    0.812139 0.611582 0.741731 0.164040
H229  H     H_    0.855588 0.587569 0.821005 0.148733
H230  H     H_    0.895905 0.658992 0.817587 0.113142
H231  H     H_    0.614838 0.247019 0.806908 0.152516
H232  H     H_    0.691021 0.222340 0.823018 0.149054
H233  H     H_    0.680202 0.266178 0.772830 0.142908
H234  H     H_    0.575137 0.938869 0.137661 0.095315
H235  H     H_    0.696663 0.158603 0.754919 0.157944
H236  H     H_    0.618849 0.180421 0.739976 0.164322
H237  H     H_    0.593150 0.140401 0.820520 0.148324
H238  H     H_    0.662824 0.098241 0.817395 0.114398
H239  H     H_    0.250845 0.390873 0.808932 0.152175
H240  H     H_    0.225792 0.314308 0.824643 0.149276
H241  H     H_    0.270746 0.325814 0.775030 0.142857
H242  H     H_    0.163717 0.307719 0.755711 0.159359
H243  H     H_    0.185673 0.385992 0.741180 0.164543
H244  H     H_    0.143825 0.411539 0.820735 0.148082
H245  H     H_    0.063383 0.573619 0.135821 0.110174
H246  H     H_    0.102584 0.340540 0.817876 0.114237
H247  H     H_    0.394164 0.251490 0.190450 0.152034
H248  H     H_    0.317029 0.228095 0.174841 0.147915
H249  H     H_    0.329700 0.273003 0.224364 0.143214
H250  H     H_    0.309313 0.166419 0.243969 0.158592
H251  H     H_    0.388117 0.186719 0.258263 0.164217
H252  H     H_    0.412026 0.144076 0.178607 0.148305
H253  H     H_    0.340411 0.104166 0.181831 0.115317
H254  H     H_    0.749519 0.390234 0.192847 0.152410
H255  H     H_    0.773668 0.313872 0.176863 0.148982
H256  H     H_    0.424524 0.061056 0.137236 0.095536
H257  H     H_    0.729536 0.324939 0.226823 0.143105
H258  H     H_    0.836761 0.307366 0.245182 0.159570
H259  H     H_    0.815723 0.385405 0.260127 0.163931
H260  H     H_    0.856328 0.412118 0.180522 0.148811
H261  H     H_    0.896715 0.341148 0.182316 0.113994
H262  H     H_    0.609576 0.749503 0.191591 0.152260
H263  H     H_    0.686167 0.774634 0.176073 0.149346
H264  H     H_    0.674567 0.729642 0.225706 0.142932
H265  H     H_    0.692524 0.836688 0.244931 0.159371
H266  H     H_    0.614237 0.814641 0.259278 0.164378
H267  H     H_    0.938177 0.425445 0.137974 0.096025
H268  H     H_    0.588838 0.856454 0.179581 0.148251
H269  H     H_    0.659749 0.897822 0.182597 0.114083
H270  H     H_    0.165355 0.530653 0.170543 0.170614
H271  H     H_    0.169580 0.588560 0.127151 0.143142
H272  H     H_    0.237655 0.566106 0.156640 0.133338
H273  H     H_    0.202393 0.666478 0.183766 0.136612
H274  H     H_    0.197746 0.609232 0.226378 0.156541
H275  H     H_    0.087624 0.653425 0.168799 0.124584
H276  H     H_    0.105872 0.685201 0.218463 0.114252
H277  H     H_    0.986059 0.225838 0.321712 0.151134
H278  H     H_    0.055084 0.581075 0.363193 0.119432
H279  H     H_    0.911849 0.213429 0.295674 0.146463
H280  H     H_    0.981035 0.188383 0.268423 0.138784
H281  H     H_    0.943211 0.282542 0.233664 0.161462
H282  H     H_    0.016014 0.296768 0.259740 0.163075
H283  H     H_    0.965265 0.336802 0.325867 0.140942
H284  H     H_    0.890896 0.329275 0.303723 0.119472
H285  H     H_    0.214172 0.089386 0.297361 0.147090
H286  H     H_    0.188483 0.020114 0.269922 0.138774
H287  H     H_    0.227240 0.015078 0.322739 0.150595
H288  H     H_    0.281715 0.059680 0.234301 0.161647
O1    O     O_R   0.447800 0.090110 0.500010 -0.511533
O2    O     O_R   0.590110 0.052200 0.000010 -0.513406
O3    O     O_R   0.052200 0.409890 0.000010 -0.513404
O4    O     O_R   0.409890 0.947800 0.000010 -0.516483
O5    O     O_R   0.947800 0.409890 0.999990 -0.513253
O6    O     O_R   0.590110 0.947800 0.999990 -0.513084
O7    O     O_R   0.052200 0.590110 0.999990 -0.516699
O8    O     O_R   0.409890 0.052200 0.999990 -0.513188
O9    O     O_R   0.447790 0.999910 0.564880 -0.517193
O10   O     O_R   0.999910 0.552210 0.564880 -0.515713
O11   O     O_R   0.552210 0.000090 0.564880 -0.515415
O12   O     O_R   0.090110 0.552200 0.500010 -0.513914
O13   O     O_R   0.000090 0.447790 0.564880 -0.515964
O14   O     O_R   0.447790 0.000090 0.435120 -0.515727
O15   O     O_R   0.999910 0.447790 0.435120 -0.514911
O16   O     O_R   0.552210 0.999910 0.435120 -0.515940
O17   O     O_R   0.000090 0.552210 0.435120 -0.516837
O18   O     O_R   0.947790 0.499910 0.064880 -0.512059
O19   O     O_R   0.499910 0.052210 0.064880 -0.513352
O20   O     O_R   0.052210 0.500090 0.064880 -0.515563
O21   O     O_R   0.500090 0.947790 0.064880 -0.513064
O22   O     O_R   0.947790 0.500090 0.935120 -0.512787
O23   O     O_R   0.552200 0.909890 0.500010 -0.511506
O24   O     O_R   0.499910 0.947790 0.935120 -0.513219
O25   O     O_R   0.052210 0.499910 0.935120 -0.513919
O26   O     O_R   0.500090 0.052210 0.935120 -0.512520
O27   O     O_R   0.409850 0.499950 0.462440 -0.516409
O28   O     O_R   0.499950 0.590150 0.462440 -0.519310
O29   O     O_R   0.590150 0.500050 0.462440 -0.518794
O30   O     O_R   0.500050 0.409850 0.462440 -0.519516
O31   O     O_R   0.409850 0.500050 0.537560 -0.519249
O32   O     O_R   0.499950 0.409850 0.537560 -0.518839
O33   O     O_R   0.590150 0.499950 0.537560 -0.519420
O34   O     O_R   0.909890 0.447800 0.500010 -0.512119
O35   O     O_R   0.500050 0.590150 0.537560 -0.516360
O36   O     O_R   0.909850 0.999950 0.962440 -0.518249
O37   O     O_R   0.999950 0.090150 0.962440 -0.518916
O38   O     O_R   0.090150 0.000050 0.962440 -0.515605
O39   O     O_R   0.000050 0.909850 0.962440 -0.523186
O40   O     O_R   0.909850 0.000050 0.037560 -0.518942
O41   O     O_R   0.999950 0.909850 0.037560 -0.515769
O42   O     O_R   0.090150 0.999950 0.037560 -0.517847
O43   O     O_R   0.000050 0.090150 0.037560 -0.518231
O44   O     O_R   0.447800 0.909890 0.499990 -0.513755
O45   O     O_R   0.090110 0.447800 0.499990 -0.511489
O46   O     O_R   0.552200 0.090110 0.499990 -0.512086
O47   O     O_R   0.909890 0.552200 0.499990 -0.511599
O48   O     O_R   0.947800 0.590110 0.000010 -0.511319

loop_
_geom_bond_atom_site_label_1
_geom_bond_atom_site_label_2
_ccdc_geom_bond_type
C175  H88   S    
C101  C107  A    
C171  H83   S    
C122  H235  S    
C5    O19   A    
C126  C127  S    
C264  C283  S    
C8    C26   A    
C136  H265  S    
C18   C47   A    
C110  C135  A    
C101  C200  S    
C79   C224  A    
C41   C67   A    
C191  H130  S    
C87   H168  S    
C188  H121  S    
C112  O12   A    
C79   C194  S    
Cu10  O3    S    
C173  H80   S    
C50   C59   A    
C220  O44   A    
C201  H197  S    
Cu8   O5    S    
C225  H204  S    
C130  H249  S    
C140  H271  S    
C92   C109  A    
C212  H198  S    
C25   H68   S    
Cu3   O39   S    
C94   C111  A    
C125  H244  S    
C253  O2    A    
Cu6   O16   S    
C182  C183  S    
C36   C53   A    
C143  H277  S    
C156  H23   S    
Cu9   O2    S    
C45   C56   A    
C78   C96   A    
C80   C251  A    
C61   C115  S    
C114  H64   S    
Cu1   Cu6   S    
Cu12  O30   S    
Cu1   O1    S    
C131  H260  S    
C220  O23   A    
C212  C237  A    
Cu7   O13   S    
C272  C293  S    
C264  O3    A    
C121  H237  S    
C123  H231  S    
Cu6   O23   S    
C160  H29   S    
C39   C65   A    
C223  H202  S    
C36   C62   A    
C294  O9    A    
C37   C63   A    
C233  C250  A    
C19   H13   S    
C38   C64   A    
C150  H8    S    
Cu1   O9    S    
C117  H216  S    
C202  C203  S    
C191  C192  S    
C250  C277  A    
C48   C74   A    
Cu10  O7    S    
C246  C274  A    
C195  H136  S    
C87   C259  A    
C103  H52   S    
C109  H63   S    
Cu1   O14   S    
C181  C182  S    
C34   C61   A    
C224  H203  S    
Cu9   O26   S    
C126  H242  S    
C108  C113  A    
C215  C216  S    
C114  C157  A    
Cu10  O20   S    
C174  H91   S    
C50   C76   A    
C42   C55   A    
C226  C244  A    
C175  C176  S    
C11   C27   A    
C242  O7    A    
C287  O28   A    
C40   C55   A    
C67   C134  S    
C181  H106  S    
C186  H108  S    
C49   C60   A    
C15   C39   A    
C154  C155  S    
C146  C214  S    
C232  H210  S    
C16   C40   A    
C14   H245  S    
C194  H138  S    
C184  H115  S    
C83   C100  A    
C158  C159  S    
C78   C250  A    
Cu2   O35   S    
C232  C249  A    
C89   C261  A    
C169  H73   S    
C31   C296  S    
C32   C295  S    
C189  H118  S    
C186  H109  S    
C239  C257  A    
Cu7   O34   S    
C154  H28   S    
C144  C145  S    
C211  H174  S    
C85   C103  A    
C183  H102  S    
C216  H178  S    
C139  C140  S    
C7    O26   A    
C180  H93   S    
C256  C278  A    
C35   C181  S    
Cu3   O37   S    
C241  C272  A    
C253  O6    A    
C251  C278  A    
C65   C71   A    
C233  C268  A    
C66   C70   A    
C38   C53   A    
C177  H98   S    
C239  C268  A    
C187  H123  S    
C243  C260  A    
C42   C69   A    
C182  H104  S    
C23   H57   S    
C112  C278  S    
C129  H250  S    
C57   C187  S    
C209  H164  S    
C195  C196  S    
C214  H185  S    
C215  H183  S    
C200  C202  S    
C137  H262  S    
C142  H281  S    
C155  C156  S    
C160  H31   S    
C127  H239  S    
C190  C235  A    
C85   C257  A    
C19   C30   A    
C151  H20   S    
Cu10  O25   S    
C168  C233  A    
C219  H188  S    
C150  H6    S    
C78   H79   S    
C295  O10   A    
C257  C277  A    
C80   C97   A    
C147  H286  S    
C84   C102  A    
C273  C290  S    
C120  H226  S    
C86   C104  A    
C128  C129  S    
C148  H11   S    
C139  H273  S    
C15   C28   A    
C141  H284  S    
C271  C288  S    
C167  C169  S    
C197  H145  S    
C11   H223  S    
C7    C26   S    
Cu5   O17   S    
C267  C284  A    
Cu2   O32   S    
C252  C279  A    
C17   C45   A    
Cu5   O47   S    
C167  C286  S    
C224  C241  A    
C113  C227  A    
C39   C54   A    
C228  C246  A    
Cu9   O8    S    
C115  C116  S    
C188  H120  S    
C222  C239  A    
C184  C185  S    
C74   C154  S    
C46   C184  S    
C145  H3    S    
C174  C175  S    
C289  O32   A    
C200  H154  S    
C52   C60   A    
C147  H285  S    
C140  H270  S    
C165  H48   S    
Cu9   Cu11  S    
C4    O18   A    
Cu9   O19   S    
C49   C75   A    
Cu2   O33   S    
C237  C270  A    
C159  H33   S    
C16   H267  S    
C247  C273  A    
C155  H26   S    
C156  H22   S    
C161  H42   S    
C77   C164  S    
Cu8   Cu10  S    
C152  H18   S    
C244  C274  A    
C115  H222  S    
C76   C161  S    
C235  C252  A    
C275  O4    A    
C164  H51   S    
C131  H261  S    
C20   C44   A    
C196  H133  S    
C180  H95   S    
C132  H259  S    
C64   C76   A    
C24   C201  A    
C199  H141  S    
C18   H2    S    
C88   H179  S    
C207  H170  S    
C193  H126  S    
C111  C146  A    
C172  H81   S    
C37   C52   A    
C105  H67   S    
C201  C236  A    
C68   C191  S    
C217  C218  S    
C107  H65   S    
C13   C190  A    
C72   C148  S    
C69   C72   A    
C168  H194  S    
C35   C212  A    
C21   H35   S    
C84   C256  A    
C95   C267  A    
C87   C105  A    
C288  O33   A    
C137  H264  S    
C135  C210  S    
C54   C58   A    
C6    O22   A    
C219  H186  S    
C168  C286  A    
C217  H193  S    
C170  H71   S    
C118  H230  S    
Cu11  O6    S    
C258  C280  A    
C230  H209  S    
C205  H159  S    
C14   C29   A    
C35   C100  A    
C20   H24   S    
C48   C59   A    
C129  C130  S    
C69   C138  S    
C197  H147  S    
C122  H236  S    
C133  H255  S    
C70   C141  S    
C275  O8    A    
C12   H234  S    
C293  O39   A    
C190  H196  S    
C227  C245  A    
C62   C74   A    
C159  H32   S    
C221  H199  S    
C136  H266  S    
C136  C137  S    
C185  H111  S    
C234  C251  A    
C144  H4    S    
C18   C31   A    
C116  H219  S    
C93   C110  A    
C193  H125  S    
C249  C267  A    
C211  H175  S    
C203  H148  S    
C183  H103  S    
C216  H181  S    
C140  H272  S    
C184  H116  S    
C176  H85   S    
Cu5   O10   S    
C4    O20   A    
C9    C38   A    
C197  C198  S    
C192  H128  S    
Cu4   O41   S    
C158  H36   S    
C229  C247  A    
C149  H9    S    
C167  H75   S    
C152  C153  S    
C119  H228  S    
C206  H155  S    
C51   C60   A    
Cu12  O27   S    
C240  C258  A    
C268  C289  S    
C242  O48   A    
C204  H161  S    
C153  H14   S    
C25   C33   A    
C166  H47   S    
C9    H112  S    
C292  O38   A    
C55   C56   A    
C17   C30   A    
C160  H30   S    
C82   C99   A    
C270  C287  S    
Cu11  O21   S    
C161  C162  S    
C230  C248  A    
C173  H78   S    
C111  H61   S    
C90   C197  S    
C218  H191  S    
C12   C28   A    
C245  C276  A    
C147  H287  S    
C240  C271  A    
C164  C165  S    
C203  H150  S    
C66   C131  S    
C146  C230  A    
C199  H140  S    
C181  H107  S    
C93   C265  A    
C81   C98   A    
C192  H129  S    
C95   C114  A    
C163  H38   S    
C126  H243  S    
C166  H44   S    
C115  H221  S    
C86   C258  A    
C174  H92   S    
C128  H253  S    
C261  C283  A    
C254  C280  A    
C195  H137  S    
C262  C284  A    
C154  H27   S    
C2    C97   A    
C44   C58   A    
C208  C209  S    
Cu11  O4    S    
Cu6   O46   S    
C96   C286  A    
C151  C152  S    
C67   C73   A    
C123  H233  S    
C243  C273  A    
C100  H54   S    
C33   C294  S    
C130  H247  S    
C209  H165  S    
C194  H139  S    
C3    O17   A    
C194  C195  S    
C40   C66   A    
C138  H275  S    
C1    O1    A    
C125  H246  S    
C179  C234  A    
C99   H60   S    
C145  C147  S    
C19   C43   A    
C265  C282  A    
C57   C222  A    
Cu5   Cu7   S    
C53   C59   A    
C13   C174  S    
C57   C103  A    
C92   H211  S    
C189  H117  S    
C207  C208  S    
C186  H110  S    
C65   C128  S    
C85   H146  S    
C47   C73   A    
C164  H50   S    
C196  H132  S    
C84   H135  S    
C180  H94   S    
C264  O5    A    
C176  H87   S    
C132  H258  S    
C144  H5    S    
Cu5   O12   S    
C236  C271  A    
C83   C255  A    
C101  C226  A    
C222  H200  S    
C216  H180  S    
C238  C269  A    
C291  O43   A    
C179  H195  S    
C229  H208  S    
Cu4   O43   S    
C12   C41   A    
C158  H34   S    
C213  H171  S    
C97   H58   S    
C159  C160  S    
C248  C272  A    
C86   H157  S    
C259  C281  A    
C2    C171  S    
C287  O35   A    
C89   C107  A    
C220  C279  S    
C157  C217  S    
C117  H218  S    
C63   C121  S    
C249  C276  A    
C117  H217  S    
Cu12  O29   S    
C182  H105  S    
C90   C106  A    
C121  C122  S    
C209  H163  S    
C153  H16   S    
C166  H45   S    
C121  H238  S    
C75   C158  S    
C123  H232  S    
C142  H282  S    
C124  C207  S    
C296  O14   A    
C125  C126  S    
C6    O25   A    
C128  H252  S    
C8    C37   A    
C81   C252  A    
C131  C132  S    
C151  H19   S    
C98   H56   S    
C253  C282  S    
C9    C27   A    
C234  C269  A    
C162  C163  S    
C218  H189  S    
C219  H187  S    
C150  H7    S    
C227  H206  S    
C89   H190  S    
C91   C108  A    
C237  C255  A    
Cu8   O22   S    
C68   C104  A    
C138  H276  S    
C148  H12   S    
C178  C180  S    
C119  C120  S    
C141  H283  S    
C288  O29   A    
C225  C243  A    
C110  H62   S    
C34   C52   A    
Cu3   O36   S    
C127  H241  S    
C23   C32   A    
C208  H167  S    
C187  C188  S    
C149  C150  S    
C106  H66   S    
C153  H15   S    
C185  C186  S    
C226  H205  S    
C120  H224  S    
C290  O36   A    
C94   H214  S    
C25   C49   A    
C62   C118  S    
C92   C263  A    
C202  H151  S    
C88   C260  A    
C3    O15   A    
C291  O37   A    
C191  H131  S    
C177  C178  S    
C135  C229  A    
C134  H268  S    
C24   C177  S    
C142  C143  S    
C82   C254  A    
C83   H124  S    
C169  H74   S    
Cu4   O40   S    
C134  H269  S    
Cu2   Cu12  S    
C71   C144  S    
C155  H25   S    
C171  C172  S    
C165  C166  S    
C189  H119  S    
C24   C99   A    
C169  C170  S    
C206  H158  S    
C90   C225  A    
C95   H215  S    
C138  C139  S    
C81   H101  S    
Cu3   Cu4   S    
Cu8   O18   S    
C51   C77   A    
C143  H280  S    
C218  C219  S    
C196  H134  S    
C5    O21   A    
C205  C206  S    
C61   C75   A    
C235  C270  A    
C1    C277  S    
C46   C102  A    
Cu3   O38   S    
C46   C221  A    
C231  C280  S    
C269  C285  S    
C11   C36   A    
C207  H169  S    
C80   H90   S    
C223  C240  A    
C172  H82   S    
C162  H40   S    
C248  C266  A    
C177  H99   S    
C263  C283  A    
C116  C117  S    
C79   C105  A    
C44   C71   A    
C113  C204  S    
C13   C98   A    
C118  C119  S    
C129  H251  S    
C290  O40   A    
C185  H114  S    
C210  H176  S    
C285  O27   A    
C292  O42   A    
C132  C133  S    
C199  H142  S    
C163  H39   S    
C8    H1    S    
C296  O16   A    
C127  H240  S    
C112  O45   A    
C193  H127  S    
C274  C291  S    
C108  H69   S    
C242  C281  S    
C64   C125  S    
C162  H41   S    
C14   C42   A    
C145  H288  S    
C217  H192  S    
C170  H72   S    
C73   C151  S    
C45   C72   A    
C120  H225  S    
C231  O47   A    
C245  C262  A    
C21   C50   A    
C124  C228  A    
C210  H177  S    
C10   H212  S    
C94   C266  A    
C21   C32   A    
C214  H184  S    
C133  H254  S    
C228  H207  S    
C231  O34   A    
C213  H173  S    
Cu2   O31   S    
C148  C149  S    
C1    O46   A    
C165  H49   S    
C178  H96   S    
C214  C215  S    
Cu8   O48   S    
C134  C136  S    
C143  H279  S    
C137  H263  S    
C16   C29   A    
C116  H220  S    
C104  H55   S    
C238  C256  A    
C188  C189  S    
C82   H113  S    
C247  C265  A    
C3    C30   S    
C200  H153  S    
C22   H46   S    
C5    C28   S    
C88   C106  A    
C175  H89   S    
C6    C27   S    
C176  H86   S    
C289  O30   A    
C10   C34   A    
C15   H256  S    
C204  C205  S    
C275  C284  S    
C178  H97   S    
Cu4   O42   S    
C198  C199  S    
C91   C262  A    
C202  H152  S    
Cu7   O45   S    
C156  H21   S    
C161  H43   S    
C266  C281  A    
C211  C213  S    
C152  H17   S    
C43   C70   A    
C119  H227  S    
C171  H84   S    
C206  H156  S    
C68   C223  A    
C93   H213  S    
C2    C179  A    
Cu12  O28   S    
C204  H162  S    
Cu7   O15   S    
C172  C173  S    
C102  H53   S    
C198  H144  S    
C63   C77   A    
C7    O24   A    
C22   C33   A    
C23   C48   A    
C241  C259  A    
C255  C279  A    
Cu6   O11   S    
Cu11  O24   S    
C294  O11   A    
C4    C29   S    
C260  C282  A    
C109  C124  A    
C173  H77   S    
C167  H76   S    
C187  H122  S    
C236  C254  A    
C192  C193  S    
C203  H149  S    
C139  H274  S    
C183  H100  S    
C141  C142  S    
C47   C58   A    
Cu1   O44   S    
C10   C26   A    
C149  H10   S    
C17   H278  S    
C215  H182  S    
C163  H37   S    
C133  H257  S    
C213  H172  S    
C293  O41   A    
C208  H166  S    
C96   H59   S    
C41   C54   A    
C295  O13   A    
C276  C292  S    
C43   C56   A    
C221  C238  A    
C170  H70   S    
C118  H229  S    
C210  C211  S    
C285  O31   A    
C198  H143  S    
C244  C261  A    
C91   H201  S    
C205  H160  S    
C122  C123  S    
C246  C263  A    
C157  C232  A    
C130  H248  S    
C22   C51   A    
C20   C31   A    
