data_mof_unit_20765.cif
_audit_creation_date              2012-12-10T17:22:05-0500
_audit_creation_method            fapswitch 2.2
_symmetry_space_group_name_H-M    P1
_symmetry_Int_Tables_number       1
_space_group_crystal_system       triclinic
_cell_length_a                    10.194951
_cell_length_b                    10.769508
_cell_length_c                    15.75017
_cell_angle_alpha                 89.899121
_cell_angle_beta                  80.709322
_cell_angle_gamma                 95.084773
_cell_volume                      1699.65576174

loop_
_atom_site_label
_atom_site_type_symbol
_atom_type_description
_atom_site_fract_x
_atom_site_fract_y
_atom_site_fract_z
_atom_type_partial_charge
C1    C     C_R   0.555964 0.732675 0.491521 0.936981
C2    C     C_2   0.490647 0.932856 0.463219 -0.102143
C3    C     C_2   0.411474 0.135429 0.490163 0.300624
C4    C     C_R   0.499668 0.500312 0.661623 0.914520
C5    C     C_2   0.512194 0.066164 0.462763 -0.287287
C6    C     C_2   0.926777 0.508278 0.507319 -0.126154
C7    C     C_2   0.072058 0.487552 0.495700 -0.121594
C8    C     C_R   0.444024 0.267320 0.501709 0.818624
C9    C     C_R   0.500183 0.499330 0.338425 0.878785
C10   C     C_3   0.400812 0.591490 0.960889 0.312930
C11   C     C_3   0.638847 0.531529 0.937165 -0.382350
C12   C     C_3   0.405043 0.593991 0.059338 -0.298913
C13   C     C_3   0.638559 0.526272 0.034904 -0.411612
C14   C     C_1   0.499749 0.496482 0.249716 -0.170337
C15   C     C_3   0.495986 0.495769 0.917869 0.149702
C16   C     C_1   0.268305 0.578517 0.109071 0.070831
C17   C     C_3   0.438114 0.160360 0.111693 0.097216
C18   C     C_3   0.526412 0.059006 0.127724 -0.808083
C19   C     C_3   0.213303 0.092207 0.443128 0.093773
C20   C     C_3   0.072034 0.030351 0.467022 -0.782411
C21   C     C_1   0.117301 0.648432 0.587865 0.300075
C22   C     C_3   0.333083 0.784509 0.927551 0.086927
C23   C     C_3   0.494654 0.493329 0.083394 0.154774
C24   C     C_3   0.384459 0.917933 0.900780 -0.779767
C25   C     C_1   0.884982 0.359035 0.406263 0.304888
C26   C     C_1   0.524994 0.265709 0.912590 0.284975
C27   C     C_3   0.441214 0.361911 0.055748 0.330077
C28   C     C_3   0.444921 0.362706 0.955993 -0.305595
C29   C     C_1   0.497882 0.494357 0.174704 -0.009218
C30   C     C_1   0.497430 0.498385 0.825967 -0.018831
C31   C     C_1   0.498583 0.499702 0.750583 -0.169316
C32   C     C_2   0.588022 0.864825 0.477250 -0.377849
H1    H     H_    0.449662 0.687116 0.076116 0.187487
H2    H     H_    0.679832 0.618166 0.056075 0.175375
H3    H     H_    0.705481 0.455821 0.049816 0.226641
H4    H     H_    0.341212 0.339769 0.943412 0.085994
H5    H     H_    0.334364 0.346230 0.087066 0.045315
H6    H     H_    0.375904 0.126260 0.063016 0.131413
H7    H     H_    0.372122 0.177892 0.173202 0.133356
H8    H     H_    0.587416 0.089091 0.177672 0.258483
H9    H     H_    0.463496 0.972003 0.150193 0.200038
H10   H     H_    0.593742 0.039875 0.067318 0.262937
H11   H     H_    0.263694 0.044171 0.385912 0.126423
H12   H     H_    0.298402 0.558210 0.948517 0.055599
H13   H     H_    0.206912 0.191538 0.425806 0.146213
H14   H     H_    0.018004 0.077836 0.522871 0.261279
H15   H     H_    0.017582 0.036619 0.411745 0.207295
H16   H     H_    0.074866 0.930545 0.483931 0.256177
H17   H     H_    0.275470 0.785847 0.993873 0.141026
H18   H     H_    0.265962 0.747667 0.882501 0.153404
H19   H     H_    0.440381 0.920637 0.834061 0.269534
H20   H     H_    0.299429 0.976316 0.903567 0.200626
H21   H     H_    0.451647 0.956584 0.945027 0.256968
H22   H     H_    0.614663 0.107251 0.446410 0.172893
H23   H     H_    0.390737 0.890572 0.459870 0.215207
H24   H     H_    0.688292 0.906629 0.480099 0.160959
H25   H     H_    0.109644 0.415474 0.452875 0.158534
H26   H     H_    0.888075 0.576425 0.553098 0.164561
H27   H     H_    0.709848 0.467213 0.904500 0.182280
H28   H     H_    0.675605 0.627037 0.911900 0.219510
N1    N     N_2   0.842720 0.448890 0.465540 -0.136384
N2    N     N_2   0.157250 0.551040 0.534500 -0.141468
N3    N     N_1   0.161410 0.566422 0.147992 -0.193418
N4    N     N_1   0.084520 0.729478 0.632202 -0.235034
N5    N     N_1   0.919747 0.284304 0.356987 -0.270016
N6    N     N_1   0.587848 0.190383 0.878535 -0.213465
O1    O     O_R   0.431050 0.692470 0.506940 -0.610121
O2    O     O_3   0.281521 0.082635 0.513787 -0.588131
O3    O     O_3   0.442586 0.711869 0.923912 -0.599533
O4    O     O_R   0.651130 0.659650 0.484820 -0.615221
O5    O     O_R   0.389910 0.516410 0.633920 -0.602670
O6    O     O_R   0.609990 0.483590 0.611800 -0.610081
O7    O     O_R   0.348870 0.340350 0.515180 -0.599234
O8    O     O_R   0.568950 0.307530 0.493060 -0.635719
O9    O     O_R   0.390010 0.516410 0.388200 -0.621753
O10   O     O_R   0.610090 0.483590 0.366080 -0.603741
O11   O     O_3   0.519249 0.270234 0.082460 -0.588965
Zn1   Zn    Zn3+2 0.353060 0.521920 0.514770 0.965273
Zn2   Zn    Zn3+2 0.646940 0.478080 0.485230 0.959916

loop_
_geom_bond_atom_site_label_1
_geom_bond_atom_site_label_2
_ccdc_geom_bond_type
C24   H20   S    
C6    H26   S    
C19   C20   S    
O10   Zn2   S    
C12   C23   S    
C23   C29   S    
C6    N1    D    
N1    Zn2   S    
C13   H3    S    
O6    Zn2   S    
C2    H23   S    
C18   H10   S    
C30   C31   T    
C13   C23   S    
C2    C32   D    
C17   H7    S    
C18   H8    S    
C21   N4    T    
C11   C15   S    
C3    O2    S    
O7    Zn1   S    
C9    O10   A    
C23   C27   S    
C22   O3    S    
C22   H18   S    
C24   H19   S    
O1    Zn1   S    
C11   H27   S    
C17   O11   S    
C19   H11   S    
C10   H12   S    
C4    C31   S    
C12   C16   S    
C5    H22   S    
C25   N5    T    
C3    C8    S    
C18   H9    S    
C3    C5    D    
C24   H21   S    
C1    C32   S    
C26   N6    T    
C9    C14   S    
C7    N2    D    
C8    O8    A    
C17   C18   S    
C19   O2    S    
C25   N1    S    
C21   N2    S    
C20   H16   S    
C10   C12   S    
C22   H17   S    
C16   N3    T    
O8    Zn2   S    
C22   C24   S    
C2    C5    S    
C14   C29   T    
C11   H28   S    
C4    O6    A    
C15   C30   S    
O4    Zn2   S    
N2    Zn1   S    
C27   O11   S    
C19   H13   S    
C6    C7    S    
C26   C28   S    
C1    O4    A    
C10   C15   S    
C13   H2    S    
C11   C13   S    
C15   C28   S    
C27   H5    S    
C8    O7    A    
C1    O1    A    
C7    H25   S    
C17   H6    S    
C4    O5    A    
O9    Zn1   S    
C20   H15   S    
C10   O3    S    
C28   H4    S    
C27   C28   S    
C9    O9    A    
C12   H1    S    
C32   H24   S    
O5    Zn1   S    
C20   H14   S    
