data_mof_unit_6106.cif
_audit_creation_date              2012-12-10T17:19:54-0500
_audit_creation_method            fapswitch 2.2
_symmetry_space_group_name_H-M    P1
_symmetry_Int_Tables_number       1
_space_group_crystal_system       triclinic
_cell_length_a                    9.640703
_cell_length_b                    10.771214
_cell_length_c                    15.493026
_cell_angle_alpha                 86.405188
_cell_angle_beta                  74.003511
_cell_angle_gamma                 90.101063
_cell_volume                      1543.184855

loop_
_atom_site_label
_atom_site_type_symbol
_atom_type_description
_atom_site_fract_x
_atom_site_fract_y
_atom_site_fract_z
_atom_type_partial_charge
C1    C     C_R   0.998598 0.262625 0.502844 0.777174
C2    C     C_R   0.677396 0.522930 0.908086 0.085054
C3    C     C_R   0.776707 0.493847 0.958634 0.165981
C4    C     C_R   0.530274 0.545051 0.953398 0.065923
C5    C     C_R   0.482076 0.525270 0.048775 0.065024
C6    C     C_R   0.585613 0.499674 0.096627 -0.212713
C7    C     C_R   0.729971 0.484896 0.052169 -0.235173
C8    C     C_R   0.430236 0.587776 0.906795 -0.197727
C9    C     C_R   0.286156 0.604069 0.951560 -0.231951
C10   C     C_R   0.235517 0.576217 0.043890 0.164554
C11   C     C_R   0.332237 0.534342 0.093259 0.085987
C12   C     C_R   0.918029 0.499881 0.671985 0.770644
C13   C     C_R   0.088724 0.590507 0.087598 -0.213823
C14   C     C_R   0.035938 0.562178 0.179880 -0.213897
C15   C     C_R   0.275021 0.501614 0.185519 -0.209925
C16   C     C_R   0.066444 0.116028 0.650696 -0.100551
C17   C     C_R   0.102635 0.045008 0.719412 -0.090772
C18   C     C_R   0.104941 0.915929 0.718686 -0.142893
C19   C     C_R   0.070671 0.857092 0.649373 -0.176382
C20   C     C_R   0.035503 0.927297 0.578300 0.086145
C21   C     C_R   0.034156 0.058557 0.578758 0.080361
C22   C     C_R   0.995360 0.128203 0.508767 -0.084134
C23   C     C_R   0.998965 0.736922 0.502478 0.810972
C24   C     C_R   0.951487 0.069160 0.442810 -0.182833
C25   C     C_R   0.951788 0.941034 0.442675 -0.167291
C26   C     C_R   0.996450 0.870221 0.508319 -0.077384
C27   C     C_R   0.704132 0.660677 0.377353 -0.082040
C28   C     C_R   0.666756 0.738541 0.313843 -0.350001
C29   C     C_R   0.526198 0.742139 0.311382 -0.210937
C30   C     C_R   0.420653 0.668649 0.372426 0.683947
C31   C     C_R   0.454071 0.581348 0.438279 -0.065022
C32   C     C_R   0.603418 0.579709 0.439178 0.014621
C33   C     C_R   0.547804 0.424004 0.557827 0.601451
C34   C     C_R   0.082083 0.502481 0.327964 0.819453
C35   C     C_R   0.400314 0.424224 0.557940 0.579258
C36   C     C_R   0.872490 0.501243 0.770507 -0.057739
C37   C     C_R   0.129393 0.518544 0.229364 -0.034840
C38   C     C_R   0.922042 0.472702 0.915019 -0.217096
C39   C     C_R   0.969984 0.477506 0.821504 -0.197347
C40   C     C_R   0.727904 0.524008 0.813817 -0.214420
Cu1   Cu    Cu3+1 0.140660 0.499990 0.500010 1.029533
Cu2   Cu    Cu3+1 0.859340 0.500010 0.499990 0.995625
H1    H     H_    0.805160 0.464118 0.091524 0.149626
H2    H     H_    0.015137 0.625515 0.050530 0.140042
H3    H     H_    0.919733 0.122818 0.390042 0.146494
H4    H     H_    0.061050 0.215640 0.655689 0.180137
H5    H     H_    0.127204 0.090271 0.774042 0.154819
H6    H     H_    0.131447 0.861007 0.772717 0.138202
H7    H     H_    0.069582 0.756591 0.653216 0.140765
H8    H     H_    0.920028 0.896872 0.389877 0.140206
H9    H     H_    0.814423 0.668796 0.374694 0.208475
H10   H     H_    0.747520 0.798131 0.266966 0.174465
H11   H     H_    0.341459 0.461510 0.225143 0.143760
H12   H     H_    0.497352 0.805520 0.262261 0.180751
H13   H     H_    0.923155 0.576979 0.212599 0.155590
H14   H     H_    0.213468 0.637642 0.913301 0.143905
H15   H     H_    0.998276 0.450264 0.953299 0.148055
H16   H     H_    0.082247 0.459460 0.789316 0.189289
H17   H     H_    0.655628 0.538465 0.772381 0.168823
H18   H     H_    0.559527 0.493582 0.169009 0.147016
H19   H     H_    0.460431 0.613408 0.835685 0.146998
N1    N     N_R   0.648320 0.501210 0.499140 -0.267727
N2    N     N_R   0.352470 0.501290 0.499110 -0.265894
O1    O     O_R   0.118810 0.319640 0.500010 -0.549629
O2    O     O_R   0.881240 0.319660 0.500000 -0.527904
O3    O     O_R   0.055570 0.499980 0.629840 -0.564629
O4    O     O_R   0.818000 0.500010 0.629830 -0.535433
O5    O     O_R   0.118760 0.680340 0.500000 -0.510952
O6    O     O_R   0.881190 0.680360 0.499990 -0.612725
O7    O     O_R   0.182000 0.499990 0.370170 -0.523515
O8    O     O_R   0.944430 0.500020 0.370160 -0.621422
F1    F     F_    0.589447 0.345234 0.617296 -0.618539
F2    F     F_    0.290141 0.693761 0.362491 -0.665983
F3    F     F_    0.305343 0.346464 0.617922 -0.647883

loop_
_geom_bond_atom_site_label_1
_geom_bond_atom_site_label_2
_ccdc_geom_bond_type
C8    C9    A    
C35   F3    S    
C16   C21   A    
C34   C37   S    
Cu1   Cu2   S    
C23   O6    A    
C19   C20   A    
C4    C8    A    
C5    C6    A    
C24   H3    S    
C15   H11   S    
C28   C29   A    
C5    C11   A    
C3    C7    A    
C30   C31   A    
C29   H12   S    
C18   C19   A    
C23   C26   S    
C25   H8    S    
C15   C37   A    
C33   F1    S    
C11   C15   A    
C3    C38   A    
C33   N1    A    
Cu2   O2    S    
C1    O2    A    
C7    H1    S    
C12   C36   S    
C9    C10   A    
Cu2   N1    S    
C8    H19   S    
C14   H13   S    
C1    C22   S    
C40   H17   S    
C21   C22   A    
C27   H9    S    
Cu1   O5    S    
C12   O4    A    
C31   N2    A    
C36   C40   A    
C24   C25   A    
C16   H4    S    
C30   F2    S    
C16   C17   A    
C25   C26   A    
C39   H16   S    
C12   O3    A    
Cu2   O6    S    
C23   O5    A    
C2    C4    A    
C29   C30   A    
C6    H18   S    
C38   H15   S    
C19   H7    S    
C31   C32   A    
C17   C18   A    
C9    H14   S    
C6    C7    A    
Cu2   O4    S    
C22   C24   A    
Cu1   N2    S    
C1    O1    A    
C34   O7    A    
C27   C32   A    
C36   C39   A    
C17   H5    S    
C4    C5    A    
C10   C13   A    
C18   H6    S    
Cu1   O3    S    
C2    C3    A    
C32   N1    A    
C14   C37   A    
C28   H10   S    
C38   C39   A    
C20   C26   A    
Cu2   O8    S    
C33   C35   A    
C10   C11   A    
C2    C40   A    
C20   C21   A    
C27   C28   A    
C35   N2    A    
Cu1   O1    S    
C13   C14   A    
C34   O8    A    
C13   H2    S    
Cu1   O7    S    
