data_mof_unit_9784.cif
_audit_creation_date              2013-03-05T16:11:43-0500
_audit_creation_method            fapswitch 2.2
_symmetry_space_group_name_H-M    P1
_symmetry_Int_Tables_number       1
_space_group_crystal_system       triclinic
_cell_length_a                    10.664076
_cell_length_b                    9.86431
_cell_length_c                    10.516554
_cell_angle_alpha                 89.632406
_cell_angle_beta                  90.00372
_cell_angle_gamma                 89.184662
_cell_volume                      1106.14097944

loop_
_atom_site_label
_atom_site_type_symbol
_atom_site_description
_atom_site_fract_x
_atom_site_fract_y
_atom_site_fract_z
_atom_type_partial_charge
O1    O     O_R   0.316770 0.614620 0.499990 -0.615570
O2    O     O_R   0.683230 0.385380 0.500010 -0.615558
O3    O     O_R   0.683230 0.614620 0.500010 -0.614922
O4    O     O_R   0.316770 0.385380 0.499990 -0.614947
C1    C     C_R   0.872176 0.496352 0.497292 -0.134714
C2    C     C_R   0.127821 0.503649 0.502709 -0.134749
C3    C     C_R   0.260485 0.501044 0.501244 0.919147
C4    C     C_R   0.739514 0.498956 0.498754 0.919145
O5    O     O_R   0.499970 0.614650 0.313950 -0.634369
O6    O     O_R   0.500030 0.385350 0.686050 -0.634391
O7    O     O_R   0.500030 0.614650 0.686050 -0.619107
O8    O     O_R   0.499970 0.385350 0.313950 -0.619116
C5    C     C_R   0.500399 0.500242 0.257434 0.865429
C6    C     C_R   0.499598 0.499758 0.742567 0.865433
Zn1   Zn    Zn3+2 0.500000 0.653120 0.500000 0.939657
Zn2   Zn    Zn3+2 0.500000 0.346880 0.500000 0.939651
H1    H     H_    0.618086 0.123219 0.661504 0.123027
H2    H     H_    0.381918 0.876781 0.338493 0.123019
H3    H     H_    0.381747 0.129036 0.338597 0.129729
H4    H     H_    0.618254 0.870964 0.661402 0.129727
N1    N     N_R   0.500000 0.857200 0.500000 -0.079300
N2    N     N_R   0.500000 0.142800 0.500000 -0.079302
C7    C     C_3   0.521206 0.627064 0.040745 -0.189590
C8    C     C_3   0.478789 0.372937 0.959256 -0.189578
C9    C     C_3   0.612199 0.542573 0.956932 -0.242091
C10   C     C_3   0.387796 0.457429 0.043069 -0.242092
C11   C     C_3   0.409482 0.583193 0.959086 0.247541
C12   C     C_3   0.590514 0.416809 0.040914 0.247551
H5    H     H_    0.537644 0.730720 0.077189 0.153099
H6    H     H_    0.462351 0.269282 0.922812 0.153094
H7    H     H_    0.703532 0.577607 0.919490 0.141387
H8    H     H_    0.296464 0.422404 0.080520 0.141372
C13   C     C_3   0.499333 0.499728 0.877273 -0.020558
C14   C     C_3   0.500664 0.500273 0.122728 -0.020575
C15   C     C_R   0.565620 0.070252 0.589677 -0.075414
C16   C     C_R   0.434381 0.929748 0.410322 -0.075424
C17   C     C_R   0.434354 0.073474 0.410341 -0.064887
C18   C     C_R   0.565646 0.926526 0.589659 -0.064894
C19   C     C_R   0.065353 0.444933 0.607304 0.153599
C20   C     C_R   0.934642 0.555062 0.392695 0.153531
C21   C     C_R   0.934822 0.439478 0.603581 0.142347
C22   C     C_R   0.065172 0.560566 0.396436 0.142339
C23   C     C_3   0.307736 0.680556 0.911558 -0.916824
H9    H     H_    0.351110 0.765672 0.858810 0.254289
H10   H     H_    0.242922 0.627144 0.847416 0.241984
H11   H     H_    0.254328 0.721485 0.993703 0.237856
C24   C     C_3   0.692264 0.319445 0.088431 -0.916853
H12   H     H_    0.648900 0.234357 0.141229 0.254303
H13   H     H_    0.745628 0.278473 0.006275 0.237865
H14   H     H_    0.757120 0.372869 0.152521 0.241979
C25   C     C_3   0.136124 0.390871 0.723259 -0.887557
H15   H     H_    0.238262 0.408259 0.721363 0.237056
H16   H     H_    0.101537 0.442547 0.810178 0.229891
H17   H     H_    0.122176 0.279895 0.732537 0.249608
C26   C     C_3   0.863861 0.609079 0.276730 -0.887372
H18   H     H_    0.761745 0.591475 0.278559 0.236930
H19   H     H_    0.877632 0.720101 0.267545 0.249593
H20   H     H_    0.898577 0.557527 0.189788 0.229902
C27   C     C_3   0.859987 0.375538 0.711632 -0.874324
H21   H     H_    0.812204 0.283823 0.676721 0.248397
H22   H     H_    0.915774 0.342738 0.795123 0.238613
H23   H     H_    0.788715 0.449091 0.746808 0.216617
C28   C     C_3   0.140001 0.624599 0.288417 -0.874224
H24   H     H_    0.187838 0.716251 0.323409 0.248398
H25   H     H_    0.211226 0.551042 0.253127 0.216624
H26   H     H_    0.084197 0.657572 0.204986 0.238574

loop_
_geom_bond_atom_site_label_1
_geom_bond_atom_site_label_2
_geom_bond_distance
_ccdc_geom_bond_type
O4    Zn2   1.985232 S    
C1    C4    1.414677 S    
C19   C25   1.523514 S    
C26   H18   1.105315 S    
C28   H25   1.108576 S    
C12   C24   1.521066 S    
C10   H8    1.109506 S    
C2    C3    1.414691 S    
O1    Zn1   1.995842 S    
C7    C11   1.537399 S    
C22   C28   1.526917 S    
O2    Zn2   1.995841 S    
C8    C13   1.532839 S    
Zn1   N1    2.013108 S    
C23   H9    1.109829 S    
C25   H17   1.110528 S    
C7    C14   1.532837 S    
C6    C13   1.416649 S    
C20   C22   1.394371 A    
O5    Zn1   1.995455 S    
C28   H26   1.104779 S    
C12   C14   1.524133 S    
C27   H21   1.109178 S    
C19   C21   1.394354 A    
N1    C16   1.366844 A    
O6    Zn2   1.995453 S    
C11   C13   1.524133 S    
C9    C12   1.538401 S    
N2    C15   1.366842 A    
C23   H10   1.106890 S    
C10   C11   1.538403 S    
O7    Zn1   1.990672 S    
O4    C3    1.281762 A    
C7    H5    1.110504 S    
H1    C15   1.081641 S    
C16   C17   1.417754 A    
O7    C6    1.276411 A    
C8    C10   1.549086 S    
C24   H14   1.106896 S    
C26   H19   1.110619 S    
C2    C22   1.411320 A    
C23   H11   1.109815 S    
C8    H6    1.110504 S    
C27   H22   1.104706 S    
C25   H16   1.110008 S    
O5    C5    1.278818 A    
C25   H15   1.105203 S    
C24   H12   1.109833 S    
C11   C23   1.521063 S    
C5    C14   1.416645 S    
C7    C9    1.549082 S    
H4    C18   1.081786 S    
O8    C5    1.276412 A    
C21   C27   1.526818 S    
C8    C12   1.537401 S    
C24   H13   1.109818 S    
O3    C4    1.281755 A    
O6    C6    1.278821 A    
C26   H20   1.110101 S    
C2    C19   1.411421 A    
C1    C21   1.411277 A    
C15   C18   1.417756 A    
O3    Zn1   1.985231 S    
Zn2   N2    2.013108 S    
H3    C17   1.081788 S    
O1    C3    1.278505 A    
C1    C20   1.411399 A    
N2    C17   1.366970 A    
H2    C16   1.081639 S    
C9    H7    1.109502 S    
C10   C14   1.532329 S    
O2    C4    1.278499 A    
N1    C18   1.366970 A    
O8    Zn2   1.990673 S    
C9    C13   1.532325 S    
C28   H24   1.109229 S    
C27   H23   1.108490 S    
C20   C26   1.523504 S    
