data_mof_unit_11667.cif
_audit_creation_date              2012-10-26T19:58:20-0400
_audit_creation_method            fapswitch 2.2
_symmetry_space_group_name_H-M    P1
_symmetry_Int_Tables_number       1
_space_group_crystal_system       triclinic
_cell_length_a                    7.431866
_cell_length_b                    8.693979
_cell_length_c                    13.408822
_cell_angle_alpha                 94.044695
_cell_angle_beta                  77.43538
_cell_angle_gamma                 103.111674
_cell_volume                      823.378413416

loop_
_atom_site_label
_atom_site_type_symbol
_atom_type_description
_atom_site_fract_x
_atom_site_fract_y
_atom_site_fract_z
_atom_type_partial_charge
C1    C     C_R   0.545261 0.800188 0.503097 0.546164
C2    C     C_R   0.337614 0.495236 0.806656 -0.008390
C3    C     C_2   0.570768 0.968037 0.504658 -0.158235
C4    C     C_R   0.399661 0.498131 0.694455 0.532232
C5    C     C_2   0.429075 0.031954 0.495633 -0.157524
C6    C     C_R   0.454661 0.199814 0.497045 0.552910
C7    C     C_R   0.601562 0.511055 0.305917 0.545366
C8    C     C_R   0.879366 0.676711 0.053403 -0.128142
C9    C     C_R   0.662238 0.536716 0.195827 -0.007377
C10   C     C_R   0.152806 0.416163 0.848526 -0.135154
C11   C     C_R   0.098631 0.385448 0.952142 -0.136678
C12   C     C_R   0.417805 0.506933 0.975549 0.031376
C13   C     C_R   0.229381 0.426995 0.014874 -0.124038
C14   C     C_R   0.466420 0.553407 0.872061 0.026278
C15   C     C_R   0.559064 0.543961 0.035650 0.027161
C16   C     C_R   0.739371 0.638548 0.994760 0.048012
C17   C     C_R   0.776526 0.697603 0.896841 -0.142089
C18   C     C_R   0.641428 0.657963 0.837038 -0.124120
C19   C     C_R   0.527003 0.489680 0.135346 -0.132711
C20   C     C_R   0.840649 0.626757 0.153813 -0.142316
Cu1   Cu    Cu3+1 0.321300 0.483160 0.488710 0.947665
Cu2   Cu    Cu3+1 0.678700 0.516840 0.511290 0.944457
H1    H     H_    0.946723 0.664292 0.199728 0.133151
H2    H     H_    0.955189 0.324996 0.983736 0.129608
H3    H     H_    0.674997 0.713978 0.763901 0.139043
H4    H     H_    0.707353 0.039372 0.513201 0.133017
H5    H     H_    0.292480 0.960611 0.487111 0.132704
H6    H     H_    0.010922 0.617706 0.579331 0.236629
H7    H     H_    0.989005 0.382233 0.420728 0.238068
H8    H     H_    0.910797 0.775293 0.866253 0.107535
H9    H     H_    0.017213 0.748751 0.022397 0.117980
H10   H     H_    0.395764 0.412677 0.169144 0.116265
H11   H     H_    0.051112 0.373523 0.800539 0.139875
H12   H     H_    0.176716 0.398145 0.094213 0.104825
N1    N     N_2   0.947230 0.542220 0.528320 -0.257659
N2    N     N_2   0.052770 0.457780 0.471680 -0.256687
O1    O     O_R   0.383920 0.714220 0.492660 -0.503165
O2    O     O_R   0.685730 0.742660 0.511730 -0.503715
O3    O     O_R   0.275440 0.478800 0.636790 -0.505833
O4    O     O_R   0.577250 0.507240 0.655860 -0.502038
O5    O     O_R   0.314270 0.257340 0.488270 -0.496770
O6    O     O_R   0.616080 0.285780 0.507340 -0.500820
O7    O     O_R   0.422750 0.492760 0.344140 -0.501657
O8    O     O_R   0.724560 0.521200 0.363210 -0.505203

loop_
_geom_bond_atom_site_label_1
_geom_bond_atom_site_label_2
_ccdc_geom_bond_type
C2    C4    S    
C4    O3    A    
Cu2   N1    S    
C7    O7    A    
C14   C18   A    
C9    C20   A    
N1    N2    D    
Cu1   O3    S    
C12   C15   A    
C1    O1    A    
Cu2   O4    S    
C17   C18   A    
C13   H12   S    
C8    C16   A    
Cu1   N2    S    
C8    C20   A    
C7    O8    A    
C15   C19   A    
C17   H8    S    
C11   C13   A    
H7    N2    S    
Cu2   O6    S    
C18   H3    S    
C1    O2    A    
Cu1   O5    S    
C19   H10   S    
Cu1   Cu2   S    
C8    H9    S    
C12   C14   A    
C10   H11   S    
C5    C6    S    
C2    C14   A    
Cu2   O8    S    
C10   C11   A    
C15   C16   A    
C2    C10   A    
C11   H2    S    
Cu1   O1    S    
C12   C13   A    
C6    O6    A    
C7    C9    S    
C3    C5    D    
C5    H5    S    
C20   H1    S    
C9    C19   A    
C3    H4    S    
Cu1   O7    S    
C4    O4    A    
H6    N1    S    
C16   C17   A    
C1    C3    S    
C6    O5    A    
Cu2   O2    S    
