data_mof_unit_51998.cif
_audit_creation_date              2013-03-05T15:45:31-0500
_audit_creation_method            fapswitch 2.2
_symmetry_space_group_name_H-M    P1
_symmetry_Int_Tables_number       1
_space_group_crystal_system       triclinic
_cell_length_a                    11.018784
_cell_length_b                    11.111537
_cell_length_c                    18.763464
_cell_angle_alpha                 89.914735
_cell_angle_beta                  90.010756
_cell_angle_gamma                 59.749434
_cell_volume                      1984.48872849

loop_
_atom_site_label
_atom_site_type_symbol
_atom_site_description
_atom_site_fract_x
_atom_site_fract_y
_atom_site_fract_z
_atom_type_partial_charge
O1    O     O_R   0.507430 0.255570 0.581420 -0.512155
O2    O     O_R   0.280190 0.527390 0.578910 -0.493555
C1    C     C_R   0.238077 0.645649 0.609583 0.568402
O3    O     O_R   0.260310 0.739740 0.584580 -0.493322
O4    O     O_R   0.532250 0.695150 0.573830 -0.528977
C2    C     C_R   0.626269 0.585457 0.608859 0.571698
O5    O     O_R   0.744930 0.503430 0.576380 -0.474830
O6    O     O_R   0.699250 0.276390 0.571950 -0.520206
C3    C     C_R   0.628910 0.228335 0.603023 0.553861
O7    O     O_R   0.499020 0.256400 0.419850 -0.523704
O8    O     O_R   0.272400 0.528160 0.429140 -0.491574
C4    C     C_R   0.226215 0.647676 0.400459 0.579550
O9    O     O_R   0.251910 0.740570 0.423020 -0.532730
O10   O     O_R   0.524460 0.695920 0.424060 -0.467003
C5    C     C_R   0.640261 0.620738 0.391061 0.590041
O11   O     O_R   0.736530 0.504260 0.414810 -0.543305
O12   O     O_R   0.691460 0.277160 0.422180 -0.517584
C6    C     C_R   0.615756 0.231780 0.394486 0.561566
Cr1   Cr    Cr6+3 0.392930 0.397900 0.502230 1.002458
Cr2   Cr    Cr6+3 0.398240 0.708600 0.501260 1.019317
Cr3   Cr    Cr6+3 0.708800 0.393470 0.496460 0.999345
O13   O     O_3   0.499990 0.499990 0.499980 -0.290592
C7    C     C_3   0.515318 0.747943 0.798906 0.081319
H1    H     H_    0.453591 0.708576 0.827122 0.135266
C8    C     C_3   0.497751 0.722120 0.718546 -0.293828
H2    H     H_    0.424673 0.681558 0.714277 0.114425
H3    H     H_    0.683813 0.775911 0.671012 0.093922
C9    C     C_3   0.778809 0.674674 0.771850 0.542797
C10   C     C_3   0.689902 0.502079 0.812230 0.071305
C11   C     C_3   0.675607 0.650954 0.822387 0.070200
H4    H     H_    0.592734 0.503024 0.829920 0.097765
C12   C     C_3   0.641590 0.610903 0.685971 -0.062461
C13   C     C_3   0.744724 0.667056 0.692143 0.200026
C14   C     C_3   0.692165 0.475144 0.730287 -0.227520
H5    H     H_    0.618237 0.436896 0.719274 0.118739
H6    H     H_    0.795294 0.393381 0.711121 0.163038
C15   C     C_R   0.787110 0.162732 0.710189 -0.145793
H7    H     H_    0.868960 0.161942 0.678735 0.162244
C16   C     C_R   0.799012 0.150672 0.784817 -0.110148
C17   C     C_R   0.684194 0.166441 0.825352 0.011062
C18   C     C_R   0.558580 0.204394 0.790459 -0.124239
C19   C     C_R   0.560933 0.182319 0.718289 -0.094882
H8    H     H_    0.476126 0.175158 0.694361 0.160876
C20   C     C_R   0.666046 0.179261 0.676512 -0.001970
C21   C     C_R   0.234568 0.541470 0.726762 0.227688
C22   C     C_R   0.225709 0.553532 0.800935 -0.101519
H9    H     H_    0.258453 0.462122 0.833817 0.118067
C23   C     C_R   0.171152 0.683280 0.832774 -0.051376
C24   C     C_R   0.140179 0.800040 0.790906 -0.153619
C25   C     C_R   0.148262 0.791819 0.717119 0.188790
C26   C     C_R   0.195426 0.661331 0.684276 0.023655
C27   C     C_R   0.716885 0.529201 0.271276 -0.178301
C28   C     C_R   0.716727 0.542920 0.198414 -0.159740
C29   C     C_R   0.650302 0.675064 0.167811 -0.023127
C30   C     C_R   0.572052 0.793634 0.210604 -0.128539
C31   C     C_R   0.566128 0.780429 0.284928 0.260522
C32   C     C_R   0.646075 0.646781 0.315271 0.060812
C33   C     C_R   0.530762 0.187566 0.283476 -0.119395
H10   H     H_    0.438215 0.199069 0.309837 0.150473
C34   C     C_R   0.534561 0.180468 0.210689 -0.187307
C35   C     C_R   0.651271 0.166409 0.174165 0.046559
C36   C     C_R   0.761664 0.170294 0.211046 0.263078
C37   C     C_R   0.754658 0.180042 0.285238 -0.136943
H11   H     H_    0.834694 0.187960 0.314716 0.115478
C38   C     C_R   0.640415 0.187478 0.321225 0.007986
C39   C     C_R   0.270563 0.687638 0.279884 -0.191942
C40   C     C_R   0.246975 0.693708 0.207844 -0.177207
C41   C     C_R   0.145375 0.665788 0.182534 -0.009746
C42   C     C_R   0.074395 0.621722 0.228307 -0.117038
C43   C     C_R   0.099712 0.613352 0.301305 0.255605
C44   C     C_R   0.191018 0.656496 0.326700 0.056317
O14   O     O_R   0.089490 0.825610 0.930610 -0.528752
O15   O     O_R   0.818370 0.054540 0.929880 -0.517999
C45   C     C_R   0.701201 0.103772 0.896451 0.526309
O16   O     O_R   0.605870 0.077310 0.915530 -0.528229
O17   O     O_R   0.646440 0.806700 0.917570 -0.437175
C46   C     C_R   0.711044 0.679251 0.895385 0.598607
O18   O     O_R   0.837200 0.593290 0.915250 -0.485280
O19   O     O_R   0.065330 0.635370 0.931590 -0.478092
C47   C     C_R   0.116646 0.708559 0.905485 0.555305
O20   O     O_R   0.068300 0.828790 0.091860 -0.515879
O21   O     O_R   0.798730 0.057480 0.079370 -0.451320
C48   C     C_R   0.674477 0.109001 0.103061 0.555200
O22   O     O_R   0.584680 0.080480 0.076790 -0.545642
O23   O     O_R   0.626790 0.809640 0.067050 -0.517176
C49   C     C_R   0.694530 0.690614 0.097052 0.527996
O24   O     O_R   0.816010 0.596460 0.076500 -0.536586
O25   O     O_R   0.045680 0.638310 0.081070 -0.514949
C50   C     C_R   0.092333 0.708775 0.112143 0.543275
Cr4   Cr    Cr6+3 0.937620 0.938540 0.007640 1.032217
Cr5   Cr    Cr6+3 0.625150 0.937450 0.994520 1.038627
Cr6   Cr    Cr6+3 0.937990 0.625080 0.001190 1.023994
O26   O     O_3   0.833590 0.833690 0.001120 -0.256474
O27   O     O_3   0.438494 0.886268 0.824505 -0.566123
C51   C     C_3   0.454098 0.984949 0.785834 -0.079799
H12   H     H_    0.503258 0.953873 0.732859 0.096856
H13   H     H_    0.520374 0.008731 0.818523 0.234850
H14   H     H_    0.350054 0.080788 0.780206 0.083114
O28   O     O_3   0.926332 0.591660 0.789988 -0.524497
C52   C     C_3   0.994365 0.445311 0.790418 -0.030023
H15   H     H_    0.968440 0.399824 0.745463 0.136796
H16   H     H_    0.995662 0.403539 0.843670 0.200927
H17   H     H_    0.106810 0.405321 0.786362 0.096611
O29   O     O_3   0.870362 0.588119 0.652591 -0.589676
C53   C     C_3   0.878780 0.662957 0.593083 -0.104085
H18   H     H_    0.904159 0.743280 0.609734 0.095198
H19   H     H_    0.780806 0.712589 0.560728 0.158672
H20   H     H_    0.964685 0.589051 0.557673 0.153378
H21   H     H_    0.897377 0.124848 0.810104 0.154295
H22   H     H_    0.464772 0.227388 0.819815 0.119475
O30   O     O_3   0.307177 0.409266 0.698179 -0.576735
C54   C     C_3   0.218173 0.368495 0.664905 -0.104857
H23   H     H_    0.110085 0.453897 0.658011 0.183444
H24   H     H_    0.220877 0.281059 0.694750 0.055131
H25   H     H_    0.258774 0.325795 0.611297 0.167116
H26   H     H_    0.095034 0.902312 0.814578 0.155370
O31   O     O_3   0.090107 0.913345 0.676674 -0.567391
C55   C     C_3   0.164039 0.985798 0.686595 -0.124106
H27   H     H_    0.220209 0.965128 0.738204 0.140410
H28   H     H_    0.090216 0.099420 0.684469 0.094854
H29   H     H_    0.238101 0.962244 0.641797 0.150819
H30   H     H_    0.773810 0.425123 0.293225 0.144195
H31   H     H_    0.777557 0.450547 0.166368 0.183054
H32   H     H_    0.525852 0.896334 0.187043 0.137923
O32   O     O_3   0.499797 0.895912 0.329331 -0.544474
C56   C     C_3   0.360059 0.987037 0.307070 -0.123107
H33   H     H_    0.303697 0.061721 0.350837 0.131002
H34   H     H_    0.302019 0.931420 0.295869 0.106913
H35   H     H_    0.356324 0.049126 0.259881 0.084241
H36   H     H_    0.448835 0.178591 0.183424 0.131334
O33   O     O_3   0.868143 0.174151 0.172765 -0.568072
C57   C     C_3   0.001780 0.089690 0.203996 -0.107440
H37   H     H_    0.015147 0.990529 0.226024 0.138599
H38   H     H_    0.021646 0.148630 0.245656 0.077871
H39   H     H_    0.082903 0.061450 0.162217 0.146861
H40   H     H_    0.351663 0.706671 0.299369 0.141191
H41   H     H_    0.303000 0.725985 0.172362 0.130070
H42   H     H_    0.992845 0.603460 0.208177 0.146842
O34   O     O_3   0.025685 0.578253 0.348409 -0.558491
C58   C     C_3   0.065879 0.437093 0.338482 -0.114334
H43   H     H_    0.018536 0.405716 0.381558 0.153968
H44   H     H_    0.181935 0.367777 0.342105 0.110462
H45   H     H_    0.026335 0.421151 0.286925 0.105317
H46   H     H_    0.450709 0.817803 0.686332 0.137935
O35   O     O_3   0.744054 0.814104 0.784474 -0.593923
C59   C     C_3   0.834520 0.850000 0.749611 -0.071232
H47   H     H_    0.929020 0.762561 0.725767 0.171790
H48   H     H_    0.870260 0.897674 0.789326 0.164145
H49   H     H_    0.777482 0.921351 0.705451 0.107461
O36   O     O_3   0.802623 0.389884 0.848808 -0.604486
C60   C     C_3   0.763764 0.369756 0.918143 -0.104520
H50   H     H_    0.854614 0.277146 0.942429 0.156438
H51   H     H_    0.673690 0.351798 0.917044 0.099996
H52   H     H_    0.734872 0.458720 0.954139 0.126392

loop_
_geom_bond_atom_site_label_1
_geom_bond_atom_site_label_2
_geom_bond_distance
_ccdc_geom_bond_type
C2    C12   1.500378 S    
C30   C31   1.407013 A    
C37   C38   1.393952 A    
C56   H33   1.109826 S    
C13   O29   1.419674 S    
O15   C45   1.283198 A    
C51   H12   1.101556 S    
C58   H45   1.111391 S    
C54   H24   1.107966 S    
O35   C59   1.407379 S    
O23   Cr5   1.958996 S    
C51   H14   1.108627 S    
O4    Cr2   1.957852 S    
C21   C22   1.397094 A    
H3    C13   1.118567 S    
C6    C38   1.439832 S    
C4    O9    1.272991 A    
C53   H19   1.112217 S    
O8    Cr1   1.948374 S    
C9    O35   1.416469 S    
C10   C11   1.592497 S    
Cr6   O26   2.002414 S    
C58   H44   1.113811 S    
O15   Cr4   1.950376 S    
C42   C43   1.391359 A    
O23   C49   1.275220 A    
O4    C2    1.309949 A    
C21   C26   1.418895 A    
C33   C34   1.367567 A    
C5    O11   1.270317 A    
C25   O31   1.390998 S    
C31   C32   1.408792 A    
C14   H5    1.111709 S    
C18   C19   1.374463 A    
C60   H52   1.104392 S    
C55   H27   1.108804 S    
C54   H23   1.093867 S    
C10   O36   1.415936 S    
C29   C30   1.408115 A    
C11   C46   1.500723 S    
C27   H30   1.080776 S    
O25   Cr6   1.962621 S    
O6    C3    1.281405 A    
C7    H1    1.110607 S    
C43   C44   1.398409 A    
O22   Cr5   2.097877 S    
O9    Cr2   2.074025 S    
O16   Cr5   2.077815 S    
O20   C50   1.279044 A    
C8    C12   1.562663 S    
C60   H51   1.106734 S    
C39   C40   1.371565 A    
C43   O34   1.385061 S    
Cr3   O13   1.988850 S    
C5    C32   1.458648 S    
O27   C51   1.394993 S    
C19   C20   1.384876 A    
O29   C53   1.421916 S    
O6    Cr3   1.960196 S    
C59   H48   1.096481 S    
C15   C16   1.406270 A    
C53   H20   1.109266 S    
C22   C23   1.387890 A    
O1    Cr1   2.069458 S    
C45   O16   1.276343 A    
C40   C41   1.387536 A    
C7    C11   1.598580 S    
O10   Cr2   1.963757 S    
Cr1   O13   2.007088 S    
O1    C3    1.280204 A    
O17   C46   1.292922 A    
C35   C48   1.445885 S    
C34   H36   1.083570 S    
C16   C17   1.409682 A    
C29   C49   1.454137 S    
C1    C26   1.460792 S    
C49   O24   1.274904 A    
C41   C42   1.404959 A    
C56   H35   1.109603 S    
O18   Cr6   2.086798 S    
C8    H2    1.106209 S    
C46   O18   1.282398 A    
C10   C14   1.564639 S    
C52   H17   1.088024 S    
O12   Cr3   1.975690 S    
C37   H11   1.081456 S    
C34   C35   1.395021 A    
C55   H29   1.107576 S    
C12   C14   1.557758 S    
C39   C44   1.401629 A    
C15   H7    1.074270 S    
Cr5   O26   1.987739 S    
C59   H49   1.098161 S    
O14   Cr4   2.086752 S    
C33   C38   1.400012 A    
C48   O22   1.280100 A    
O7    Cr1   2.093781 S    
C60   H50   1.108691 S    
C36   C37   1.395606 A    
C52   H16   1.098165 S    
O12   C6    1.282392 A    
C25   C26   1.412693 A    
C31   O32   1.390456 S    
C58   H43   1.108850 S    
O19   Cr6   1.961941 S    
C39   H40   1.080500 S    
O20   Cr4   2.069282 S    
C9    O28   1.448140 S    
C57   H38   1.110740 S    
C17   C18   1.390324 A    
C4    C44   1.427065 S    
Cr2   O13   2.003071 S    
C9    C13   1.554720 S    
O21   C48   1.269283 A    
C18   H22   1.082436 S    
C28   H31   1.083120 S    
O32   C56   1.413562 S    
C8    H46   1.098678 S    
C19   H8    1.075176 S    
C1    O3    1.276637 A    
O24   Cr6   2.081941 S    
C27   C28   1.375296 A    
Cr4   O26   2.008034 S    
C59   H47   1.100236 S    
C42   H42   1.084033 S    
C22   H9    1.082275 S    
C23   C24   1.402704 A    
C3    C20   1.462493 S    
C56   H34   1.110688 S    
O30   C54   1.416015 S    
O2    Cr1   1.972168 S    
O36   C60   1.421862 S    
C36   O33   1.394707 S    
O34   C58   1.411392 S    
C51   H13   1.083560 S    
O11   Cr3   2.080752 S    
C28   C29   1.391372 A    
C2    O5    1.308782 A    
C53   H18   1.106643 S    
O21   Cr4   1.966824 S    
O28   C52   1.406462 S    
C12   C13   1.552019 S    
C23   C47   1.460283 S    
C15   C20   1.401785 A    
C9    C11   1.601068 S    
O2    C1    1.288892 A    
C33   H10   1.081644 S    
O14   C47   1.270099 A    
O5    Cr3   2.096523 S    
C21   O30   1.379859 S    
O7    C6    1.265683 A    
C57   H39   1.109231 S    
C52   H15   1.093262 S    
C17   C45   1.471522 S    
C57   H37   1.114303 S    
C14   H6    1.098613 S    
C7    C8    1.565420 S    
C35   C36   1.418826 A    
C40   H41   1.084210 S    
C55   H28   1.105578 S    
C27   C32   1.404812 A    
O17   Cr5   1.978237 S    
O19   C47   1.297395 A    
O3    Cr2   2.084794 S    
C7    O27   1.414600 S    
C16   H21   1.080867 S    
C24   H26   1.080818 S    
O25   C50   1.274370 A    
C10   H4    1.115999 S    
C24   C25   1.387557 A    
C30   H32   1.081625 S    
O10   C5    1.279546 A    
C41   C50   1.425046 S    
O31   C55   1.416902 S    
C54   H25   1.106691 S    
O33   C57   1.413547 S    
O8    C4    1.276327 A    
