data_mof_unit_53855.cif
_audit_creation_date              2012-12-10T20:41:00-0500
_audit_creation_method            fapswitch 2.2
_symmetry_space_group_name_H-M    P1
_symmetry_Int_Tables_number       1
_space_group_crystal_system       triclinic
_cell_length_a                    27.609536
_cell_length_b                    10.659899
_cell_length_c                    9.85649
_cell_angle_alpha                 90.433738
_cell_angle_beta                  89.792511
_cell_angle_gamma                 89.781124
_cell_volume                      2900.78791084

loop_
_atom_site_label
_atom_site_type_symbol
_atom_type_description
_atom_site_fract_x
_atom_site_fract_y
_atom_site_fract_z
_atom_type_partial_charge
C1    C     C_R   0.497113 0.260042 0.499482 0.888359
C2    C     C_R   0.286053 0.365313 0.415899 -0.096470
C3    C     C_R   0.254428 0.452508 0.474738 0.284150
C4    C     C_R   0.103383 0.430716 0.438120 -0.053881
C5    C     C_R   0.128872 0.336705 0.507967 -0.021792
C6    C     C_R   0.103407 0.240595 0.571543 -0.137590
C7    C     C_R   0.129213 0.526318 0.372165 -0.021524
C8    C     C_R   0.353982 0.486485 0.497603 -0.040773
C9    C     C_R   0.647008 0.493587 0.497324 -0.043654
C10   C     C_R   0.975083 0.332198 0.496419 0.033443
C11   C     C_R   0.976235 0.540722 0.390323 0.048733
C12   C     C_R   0.406170 0.500771 0.499981 0.854461
C13   C     C_R   0.950270 0.439554 0.448614 0.072992
C14   C     C_R   0.947687 0.228754 0.540369 -0.258295
C15   C     C_R   0.897339 0.233431 0.548416 0.004681
C16   C     C_R   0.872323 0.344321 0.512014 -0.066950
C17   C     C_R   0.899127 0.446690 0.460412 -0.061342
C18   C     C_R   0.874828 0.557191 0.421101 -0.013875
C19   C     C_R   0.824668 0.565203 0.435255 0.506172
C20   C     C_R   0.821457 0.357274 0.522934 0.502889
C21   C     C_R   0.721559 0.476009 0.368870 -0.101713
C22   C     C_R   0.671478 0.485638 0.372351 -0.210234
C23   C     C_R   0.498362 0.739995 0.500586 0.886382
C24   C     C_R   0.673454 0.492577 0.618790 -0.222020
C25   C     C_R   0.723749 0.483237 0.614912 -0.092178
C26   C     C_R   0.747736 0.474735 0.489873 0.319165
C27   C     C_R   0.026441 0.331816 0.499550 0.051957
C28   C     C_R   0.052120 0.430799 0.436692 0.071847
C29   C     C_R   0.027081 0.531591 0.375037 0.044220
C30   C     C_R   0.053165 0.237833 0.567393 -0.215901
C31   C     C_R   0.104212 0.618446 0.300585 -0.136169
C32   C     C_R   0.950601 0.650005 0.353438 -0.219704
C33   C     C_R   0.900890 0.657970 0.368999 -0.134369
C34   C     C_R   0.594098 0.499319 0.499618 0.875255
C35   C     C_R   0.054013 0.621126 0.301665 -0.218054
C36   C     C_R   0.493093 0.065056 0.622207 0.098342
C37   C     C_R   0.487612 0.128620 0.500186 -0.156551
C38   C     C_R   0.471814 0.061848 0.383801 -0.034880
C39   C     C_R   0.473630 0.931807 0.385726 -0.242475
C40   C     C_R   0.489569 0.870923 0.502905 -0.133176
C41   C     C_R   0.493621 0.937380 0.624043 0.080160
C42   C     C_3   0.531290 0.932362 0.732495 -0.213228
C43   C     C_3   0.530910 0.075112 0.730242 -0.483738
C44   C     C_R   0.462085 0.449693 0.070914 0.194236
C45   C     C_R   0.179407 0.343790 0.516479 0.510088
C46   C     C_R   0.539148 0.540266 0.071909 -0.110239
C47   C     C_R   0.539096 0.540626 0.927968 -0.114590
C48   C     C_R   0.462485 0.447458 0.928386 0.202017
C49   C     C_3   0.410628 0.486130 0.921033 -0.530568
C50   C     C_3   0.410100 0.490353 0.075241 -0.262441
C51   C     C_R   0.179692 0.528562 0.381187 0.507272
C52   C     C_R   0.272401 0.555888 0.546833 -0.126116
C53   C     C_R   0.322298 0.575108 0.558170 0.062500
C54   C     C_R   0.335623 0.382248 0.427347 -0.267538
H1    H     H_    0.359860 0.314406 0.380187 0.153097
H2    H     H_    0.247162 0.623402 0.590078 0.143249
H3    H     H_    0.123339 0.690629 0.245419 0.190166
H4    H     H_    0.968156 0.733316 0.316758 0.144221
H5    H     H_    0.655365 0.498492 0.716326 0.155680
H6    H     H_    0.882944 0.744238 0.340014 0.193149
H7    H     H_    0.744105 0.482737 0.708607 0.142531
H8    H     H_    0.037264 0.693881 0.242476 0.145092
H9    H     H_    0.465119 0.879165 0.294384 0.195442
H10   H     H_    0.272166 0.285854 0.359288 0.154699
H11   H     H_    0.565988 0.888793 0.698654 0.154184
H12   H     H_    0.516509 0.120885 0.824002 0.212279
H13   H     H_    0.565364 0.115482 0.691732 0.198962
H14   H     H_    0.570238 0.575996 0.126017 0.148311
H15   H     H_    0.570093 0.576963 0.873869 0.144347
H16   H     H_    0.406118 0.578821 0.871862 0.210008
H17   H     H_    0.387563 0.410430 0.878206 0.208731
H18   H     H_    0.385908 0.419585 0.122084 0.170628
H19   H     H_    0.122196 0.167796 0.626861 0.189885
H20   H     H_    0.652001 0.485871 0.277166 0.157762
H21   H     H_    0.740171 0.469312 0.272151 0.140318
H22   H     H_    0.964676 0.140806 0.566092 0.140576
H23   H     H_    0.036298 0.163499 0.623725 0.145491
N1    N     N_R   0.203463 0.440163 0.455695 -0.351098
N2    N     N_R   0.799279 0.466078 0.484607 -0.355661
N3    N     N_R   0.499670 0.499140 0.142800 -0.114291
N4    N     N_R   0.499670 0.499180 0.857150 -0.106785
O1    O     O_R   0.500010 0.316790 0.614690 -0.608927
O2    O     O_2   0.794036 0.262640 0.570252 -0.548176
O3    O     O_2   0.204930 0.619086 0.317379 -0.564287
O4    O     O_2   0.801189 0.671412 0.400039 -0.552981
O5    O     O_R   0.500000 0.316760 0.385350 -0.610640
O6    O     O_R   0.428760 0.500040 0.614660 -0.623655
O7    O     O_R   0.428750 0.500000 0.385310 -0.624775
O8    O     O_R   0.500000 0.683240 0.614650 -0.618053
O9    O     O_R   0.499990 0.683210 0.385310 -0.612966
O10   O     O_R   0.571250 0.500000 0.614690 -0.628355
O11   O     O_R   0.571240 0.499960 0.385340 -0.625454
O12   O     O_2   0.204238 0.256919 0.587209 -0.564325
Zn1   Zn    Zn3+2 0.500000 0.500020 0.653130 0.950388
Zn2   Zn    Zn3+2 0.500000 0.499980 0.346870 0.964601
C55   C     C_1   0.455768 0.121393 0.260581 0.212540
N5    N     N_1   0.442749 0.168186 0.161580 -0.227061
C56   C     C_1   0.511820 0.880339 0.859300 0.244196
N6    N     N_1   0.496437 0.839572 0.958989 -0.210207
C57   C     C_1   0.402902 0.618539 0.128848 0.308407
N7    N     N_1   0.397122 0.719219 0.170672 -0.228416
C58   C     C_1   0.873221 0.121073 0.594281 0.273785
N8    N     N_1   0.854157 0.030863 0.630921 -0.155035
C59   C     C_3   0.339954 0.694596 0.625139 -0.452210
C60   C     C_3   0.352320 0.793880 0.518887 -0.322168
C61   C     C_3   0.362687 0.920476 0.585839 -0.832593
H24   H     H_    0.329720 0.956620 0.638149 0.270059
H25   H     H_    0.392321 0.911262 0.660946 0.263725
H26   H     H_    0.373666 0.989114 0.507464 0.254383
H27   H     H_    0.384681 0.763461 0.459789 0.222807
H28   H     H_    0.321528 0.805335 0.447559 0.250119
H29   H     H_    0.311461 0.732314 0.694547 0.215432
H30   H     H_    0.372071 0.675794 0.688767 0.211578

loop_
_geom_bond_atom_site_label_1
_geom_bond_atom_site_label_2
_ccdc_geom_bond_type
C10   C27   A    
C44   C48   A    
C21   C26   A    
C40   C41   A    
O1    Zn1   S    
C41   C42   S    
C32   H4    S    
C60   H27   S    
C45   O12   S    
O9    Zn2   S    
C28   C29   A    
C42   C56   S    
C5    C6    A    
C9    C22   A    
C61   H24   S    
C53   C59   S    
C23   C40   S    
O6    Zn1   S    
C48   N4    A    
C18   C19   A    
O8    Zn1   S    
C50   H18   S    
C34   O10   A    
C47   H15   S    
C46   C47   A    
C30   H23   S    
C24   H5    S    
C16   C17   A    
C42   H11   S    
C23   O8    A    
C45   N1    A    
C20   N2    A    
C16   C20   A    
C60   H28   S    
O7    Zn2   S    
C21   C22   A    
C27   C30   A    
C36   C41   A    
C4    C7    A    
C59   C60   S    
C4    C28   A    
C2    H10   S    
C7    C31   A    
C12   O7    A    
C44   N3    A    
C24   C25   A    
C2    C54   A    
C8    C54   A    
C39   C40   A    
C59   H29   S    
C1    O1    A    
C5    C45   A    
O11   Zn2   S    
C14   H22   S    
C46   H14   S    
C37   C38   A    
C8    C12   S    
C55   N5    T    
C17   C18   A    
C23   O9    A    
C25   H7    S    
N3    Zn2   S    
C19   N2    A    
C48   C49   S    
C6    C30   A    
C11   C32   A    
C56   N6    T    
C33   H6    S    
C49   H16   S    
C10   C14   A    
C9    C34   S    
C31   C35   A    
C42   C43   S    
C22   H20   S    
C52   C53   A    
C6    H19   S    
C44   C50   S    
C1    O5    A    
C21   H21   S    
C54   H1    S    
C36   C37   A    
C12   O6    A    
C4    C5    A    
C19   O4    S    
C10   C13   A    
C8    C53   A    
C3    C52   A    
C9    C24   A    
C1    C37   S    
C39   H9    S    
C60   C61   S    
C29   C35   A    
C50   C57   S    
C26   N2    S    
C13   C17   A    
C32   C33   A    
C31   H3    S    
C2    C3    A    
C25   C26   A    
C51   N1    A    
C7    C51   A    
O10   Zn1   S    
C46   N3    A    
N4    Zn1   S    
C11   C13   A    
C38   C39   A    
C61   H25   S    
C43   H12   S    
C57   N7    T    
C35   H8    S    
C47   N4    A    
C15   C58   S    
C58   N8    T    
C18   C33   A    
C34   O11   A    
O5    Zn2   S    
C59   H30   S    
C52   H2    S    
C11   C29   A    
C43   H13   S    
C49   C50   S    
C49   H17   S    
C20   O2    S    
C38   C55   S    
C27   C28   A    
C14   C15   A    
C36   C43   S    
C3    N1    S    
C51   O3    S    
C15   C16   A    
C61   H26   S    
