data_mof_unit_27026.cif
_audit_creation_date              2012-12-11T17:11:40-0500
_audit_creation_method            fapswitch 2.2
_symmetry_space_group_name_H-M    P1
_symmetry_Int_Tables_number       1
_space_group_crystal_system       triclinic
_cell_length_a                    15.021885
_cell_length_b                    6.948552
_cell_length_c                    13.62586
_cell_angle_alpha                 90.275053
_cell_angle_beta                  100.924133
_cell_angle_gamma                 89.648021
_cell_volume                      1396.46307288

loop_
_atom_site_label
_atom_site_type_symbol
_atom_type_description
_atom_site_fract_x
_atom_site_fract_y
_atom_site_fract_z
_atom_type_partial_charge
O1    O     O_R   0.398250 0.605080 0.401520 -0.541149
O2    O     O_R   0.898250 0.394920 0.901520 -0.537197
O3    O     O_R   0.584130 0.932110 0.405450 -0.532911
O4    O     O_R   0.084130 0.067890 0.905450 -0.536249
O5    O     O_R   0.601750 0.105090 0.598480 -0.536501
O6    O     O_R   0.101750 0.894910 0.098480 -0.539629
C1    C     C_R   0.613177 0.763810 0.384918 0.740261
C2    C     C_R   0.111618 0.234953 0.883627 0.796956
O7    O     O_R   0.397870 0.934620 0.389680 -0.541093
O8    O     O_R   0.897870 0.065380 0.889680 -0.532830
O9    O     O_R   0.414160 0.107620 0.582600 -0.539838
O10   O     O_R   0.914160 0.892380 0.082600 -0.532595
C3    C     C_R   0.364021 0.765839 0.362673 0.734280
C4    C     C_R   0.864010 0.234351 0.862679 0.783652
O11   O     O_R   0.585840 0.602550 0.417400 -0.542107
O12   O     O_R   0.085840 0.397450 0.917400 -0.536927
O13   O     O_3   0.505560 0.772440 0.563310 -0.366481
O14   O     O_3   0.005560 0.227560 0.063310 -0.379344
V1    V     V_3+5 0.498970 0.046250 0.488250 1.501631
V2    V     V_3+5 0.998970 0.953750 0.988250 1.490282
O15   O     O_R   0.415870 0.437500 0.594550 -0.531378
O16   O     O_R   0.915870 0.562500 0.094550 -0.549883
C5    C     C_R   0.386210 0.271474 0.614745 0.704849
C6    C     C_R   0.884674 0.730233 0.112220 0.689601
O17   O     O_R   0.602130 0.434980 0.610320 -0.536946
O18   O     O_R   0.102130 0.565020 0.110320 -0.542309
C7    C     C_R   0.635992 0.265843 0.637266 0.752731
C8    C     C_R   0.135949 0.733970 0.137311 0.731321
V3    V     V_3+5 0.501030 0.546580 0.511750 1.509109
V4    V     V_3+5 0.001030 0.453420 0.011750 1.472964
O19   O     O_3   0.494440 0.270520 0.436690 -0.371179
O20   O     O_3   0.994440 0.729480 0.936690 -0.367608
C9    C     C_1   0.716378 0.255111 0.716835 -0.164348
C10   C     C_1   0.216327 0.744655 0.216907 -0.167157
C11   C     C_1   0.783685 0.245077 0.783050 -0.157652
C12   C     C_1   0.283642 0.755149 0.283087 -0.157996
C13   C     C_2   0.259351 0.131214 0.684593 -0.221285
C14   C     C_2   0.785016 0.885894 0.214213 -0.202156
C15   C     C_2   0.313424 0.282590 0.675520 -0.170497
C16   C     C_2   0.806257 0.729653 0.164119 -0.261907
C17   C     C_2   0.178245 0.140979 0.734303 0.010894
C18   C     C_2   0.705784 0.898726 0.265165 0.023852
C19   C     C_2   0.182953 0.235463 0.823013 -0.305611
C20   C     C_2   0.686410 0.755878 0.325695 -0.367331
H1    H     H_    0.245626 0.304026 0.858233 0.130832
H2    H     H_    0.728972 0.627973 0.335498 0.149665
H3    H     H_    0.270686 0.997179 0.647322 0.174735
H4    H     H_    0.826207 0.013951 0.215699 0.168762
C21   C     C_2   0.293691 0.477743 0.712762 0.784749
O21   O     O_2   0.355207 0.573534 0.760543 -0.548138
O22   O     O_R   0.205577 0.552628 0.691609 -0.643626
H5    H     H_    0.200890 0.682464 0.724436 0.304980
C22   C     C_2   0.746135 0.558121 0.149020 0.846251
O23   O     O_2   0.666180 0.577205 0.111034 -0.502321
O24   O     O_R   0.779713 0.374532 0.176691 -0.650679
H6    H     H_    0.843925 0.376156 0.216449 0.253633
C23   C     C_2   0.093047 0.049101 0.680449 0.783292
O25   O     O_2   0.096072 0.936984 0.611664 -0.556242
O26   O     O_R   0.008992 0.096785 0.704133 -0.668161
H7    H     H_    0.956831 0.025854 0.661138 0.290614
C24   C     C_2   0.650815 0.075884 0.246551 0.882568
O27   O     O_2   0.596482 0.093506 0.168067 -0.523495
O28   O     O_R   0.663184 0.224734 0.316914 -0.657091
H8    H     H_    0.622156 0.338650 0.294305 0.307382

loop_
_geom_bond_atom_site_label_1
_geom_bond_atom_site_label_2
_ccdc_geom_bond_type
O15   V3    S    
C14   C16   D    
O24   H6    S    
O11   V3    S    
O5    V1    S    
O8    V2    S    
C13   H3    S    
O13   V3    S    
O10   C6    A    
C14   H4    S    
C2    C19   S    
O2    V4    S    
O4    C2    A    
V1    O19   S    
O3    V1    S    
O10   V2    S    
C2    O12   A    
C1    O11   A    
C9    C11   T    
C8    C10   S    
O26   H7    S    
C13   C15   D    
O5    C7    A    
C22   O23   D    
C7    C9    S    
O17   V3    S    
V4    O20   S    
C19   H1    S    
C18   C24   S    
O9    V1    S    
C23   O25   D    
C18   C20   D    
C3    C12   S    
O14   V4    S    
O1    V3    S    
C15   C21   S    
C17   C23   S    
C20   H2    S    
C14   C18   S    
O3    C1    A    
C10   C12   T    
C22   O24   S    
O15   C5    A    
C13   C17   S    
C24   O27   D    
O2    C4    A    
O16   C6    A    
C23   O26   S    
O1    C3    A    
O17   C7    A    
O12   V4    S    
O22   H5    S    
O4    V2    S    
O6    V2    S    
O14   V2    S    
V3    O19   S    
C16   C22   S    
V2    O20   S    
O9    C5    A    
C4    C11   S    
C21   O21   D    
O7    C3    A    
C6    C16   S    
O16   V4    S    
O13   V1    S    
C1    C20   S    
O18   C8    A    
C5    C15   S    
C24   O28   S    
O6    C8    A    
C17   C19   D    
O28   H8    S    
O7    V1    S    
O8    C4    A    
C21   O22   S    
O18   V4    S    
