data_mof_unit_59986.cif
_audit_creation_date              2013-03-05T15:58:55-0500
_audit_creation_method            fapswitch 2.2
_symmetry_space_group_name_H-M    P1
_symmetry_Int_Tables_number       1
_space_group_crystal_system       triclinic
_cell_length_a                    10.670818
_cell_length_b                    12.606124
_cell_length_c                    13.199849
_cell_angle_alpha                 82.324438
_cell_angle_beta                  90.000751
_cell_angle_gamma                 102.49754
_cell_volume                      1717.24205393

loop_
_atom_site_label
_atom_site_type_symbol
_atom_site_description
_atom_site_fract_x
_atom_site_fract_y
_atom_site_fract_z
_atom_type_partial_charge
O1    O     O_R   0.468120 0.366740 0.627160 -0.561491
O2    O     O_R   0.510770 0.544830 0.662520 -0.631350
C1    C     C_R   0.482555 0.438486 0.691606 0.880282
O3    O     O_R   0.663880 0.410950 0.482330 -0.616162
O4    O     O_R   0.706530 0.589040 0.517700 -0.618136
C2    C     C_R   0.741480 0.499499 0.501982 0.874509
Zn1   Zn    Zn3+2 0.471520 0.381090 0.476390 0.964157
Zn2   Zn    Zn3+2 0.528480 0.618910 0.523610 0.984576
O5    O     O_R   0.489230 0.455170 0.337480 -0.657144
O6    O     O_R   0.531880 0.633260 0.372840 -0.588106
O7    O     O_R   0.293470 0.410960 0.482300 -0.639587
O8    O     O_R   0.336120 0.589050 0.517670 -0.617810
C3    C     C_R   0.516737 0.561625 0.308371 0.875614
C4    C     C_R   0.257776 0.498624 0.503422 0.779535
C5    C     C_3   0.897334 0.379134 0.508606 -0.375977
H1    H     H_    0.858286 0.343988 0.439046 0.210947
H2    H     H_    0.845646 0.325383 0.576364 0.225832
C6    C     C_3   0.039832 0.378828 0.513573 -0.440257
H3    H     H_    0.058594 0.326963 0.584417 0.191611
H4    H     H_    0.065317 0.339831 0.448374 0.255442
H5    H     H_    0.899867 0.541643 0.338418 0.166026
H6    H     H_    0.105445 0.518881 0.340648 0.173164
C7    C     C_3   0.946518 0.569878 0.408447 -0.355829
C8    C     C_3   0.934438 0.542893 0.602901 -0.398317
C9    C     C_3   0.877518 0.498197 0.505238 0.052936
H7    H     H_    0.912115 0.624105 0.608852 0.213337
H8    H     H_    0.884478 0.487401 0.670563 0.186427
C10   C     C_3   0.120423 0.498521 0.507676 -0.019291
C11   C     C_3   0.088068 0.562393 0.405655 -0.355311
C12   C     C_3   0.082219 0.551573 0.603148 0.264927
H9    H     H_    0.939493 0.656734 0.407829 0.223359
H10   H     H_    0.151125 0.645629 0.389593 0.199596
C13   C     C_R   0.453229 0.715353 0.055427 -0.234449
H11   H     H_    0.358960 0.716405 0.868826 0.193400
H12   H     H_    0.436523 0.794141 0.021657 0.200663
C14   C     C_R   0.515638 0.598159 0.198157 -0.171702
C15   C     C_R   0.494049 0.295570 0.841688 0.332063
C16   C     C_R   0.486993 0.263037 0.947042 -0.129267
C17   C     C_R   0.471442 0.336078 0.013428 -0.212028
C18   C     C_R   0.456832 0.442821 0.975379 0.106132
C19   C     C_R   0.436300 0.467356 0.870339 0.018772
C20   C     C_R   0.465208 0.527357 0.037369 0.106994
C21   C     C_R   0.434391 0.628225 0.997608 0.065775
C22   C     C_R   0.389220 0.641982 0.899131 -0.150488
C23   C     C_R   0.388946 0.562026 0.836709 -0.100368
C24   C     C_R   0.510294 0.516293 0.136032 -0.292978
C25   C     C_R   0.498462 0.702886 0.154963 0.303582
C26   C     C_R   0.467341 0.398479 0.801959 -0.257192
H13   H     H_    0.541199 0.443018 0.167133 0.174750
H14   H     H_    0.471004 0.306727 0.094077 0.169874
H15   H     H_    0.503121 0.183290 0.978169 0.205341
H16   H     H_    0.352691 0.576402 0.761452 0.205544
C27   C     C_R   0.314850 0.083304 0.351767 -0.113366
H17   H     H_    0.288106 0.870864 0.326037 0.141870
N1    N     N_R   0.433240 0.222190 0.444680 -0.157335
C28   C     C_R   0.652144 0.799746 0.628820 -0.067921
C29   C     C_R   0.683549 0.904563 0.657665 -0.077047
C30   C     C_R   0.625113 0.985987 0.608409 -0.114282
C31   C     C_R   0.535831 0.962371 0.530992 -0.018722
C32   C     C_R   0.507827 0.854110 0.506001 0.257126
C33   C     C_R   0.472636 0.040984 0.477937 0.008470
C34   C     C_R   0.379806 0.007804 0.404265 0.065565
C35   C     C_R   0.355549 0.899924 0.382545 -0.140415
C36   C     C_R   0.420026 0.825826 0.431224 -0.037468
C37   C     C_R   0.499167 0.151656 0.493980 -0.020351
C38   C     C_R   0.339093 0.190416 0.377119 0.072404
N2    N     N_R   0.566070 0.776970 0.554790 -0.121194
H18   H     H_    0.570980 0.184372 0.545376 0.174292
H19   H     H_    0.695821 0.735302 0.665665 0.139099
H20   H     H_    0.649986 0.065985 0.632571 0.213058
H21   H     H_    0.399589 0.746627 0.407552 0.188933
N3    N     N_R   0.147976 0.669042 0.597141 0.226552
O9    O     O_R   0.114963 0.743063 0.530343 -0.431518
O10   O     O_R   0.231766 0.702545 0.664089 -0.392732
N4    N     N_R   0.533449 0.797794 0.206865 0.197671
O11   O     O_R   0.640287 0.813948 0.255827 -0.363838
O12   O     O_R   0.478962 0.880335 0.183133 -0.413009
N5    N     N_R   0.536648 0.226329 0.777468 0.215377
O13   O     O_R   0.486586 0.121572 0.790164 -0.377502
O14   O     O_R   0.643031 0.262890 0.723584 -0.425942
C39   C     C_2   0.256598 0.265591 0.334775 0.471853
H22   H     H_    0.294585 0.350925 0.309277 0.109511
O15   O     O_2   0.141372 0.231252 0.326941 -0.583265
C40   C     C_2   0.224948 0.051747 0.268893 0.537492
H23   H     H_    0.151448 0.976572 0.280804 0.068651
O16   O     O_2   0.233679 0.109586 0.186126 -0.532201
C41   C     C_2   0.776619 0.927199 0.739252 0.470367
H24   H     H_    0.820124 0.862373 0.776181 0.066199
O17   O     O_2   0.805870 0.018065 0.766301 -0.505363
C42   C     C_2   0.115405 0.488761 0.702985 0.386298
H25   H     H_    0.175815 0.429673 0.702760 0.022935
O18   O     O_2   0.078528 0.507021 0.785316 -0.522179

loop_
_geom_bond_atom_site_label_1
_geom_bond_atom_site_label_2
_geom_bond_distance
_ccdc_geom_bond_type
C5    C6    1.522805 S    
C41   H24   1.085696 S    
H6    C11   1.114151 S    
C8    H8    1.114871 S    
Zn1   N1    2.055323 S    
N4    O11   1.301356 A    
C39   H22   1.072078 S    
C29   C30   1.401374 A    
Zn1   O7    2.018692 S    
C24   H13   1.077535 S    
C15   C16   1.393580 A    
C27   C40   1.492075 S    
C7    C11   1.534389 S    
C10   C11   1.552952 S    
C8    H7    1.112671 S    
C11   H10   1.110725 S    
O4    C2    1.304221 A    
O7    C4    1.307106 A    
N5    O14   1.301149 A    
C5    C9    1.555304 S    
C2    C9    1.455846 S    
H17   C35   1.080440 S    
C5    H1    1.114329 S    
C1    C26   1.473378 S    
C28   C29   1.394962 A    
C14   C25   1.416069 A    
C5    H2    1.113402 S    
C6    H3    1.111466 S    
C20   C24   1.388340 A    
C36   H21   1.063529 S    
O5    C3    1.313962 A    
C39   O15   1.221263 D    
C32   N2    1.356798 A    
C14   C24   1.393327 A    
C12   C42   1.526990 S    
C18   C20   1.415941 A    
C31   C32   1.415775 A    
O3    Zn1   2.008642 S    
N1    C37   1.350972 A    
C31   C33   1.425167 A    
C13   C21   1.399138 A    
H11   C22   1.084123 S    
C8    C9    1.547306 S    
C3    C14   1.466992 S    
O3    C2    1.294723 A    
C17   C18   1.413326 A    
N5    O13   1.301134 A    
C30   H20   1.076685 S    
C16   H15   1.083332 S    
C23   H16   1.073107 S    
C30   C31   1.413876 A    
C29   C41   1.478832 S    
O1    C1    1.307908 A    
C7    H9    1.112507 S    
C21   C22   1.388548 A    
C34   C35   1.396590 A    
C27   C34   1.405632 A    
C42   O18   1.222661 D    
Zn2   O8    2.008642 S    
C37   H18   1.074953 S    
C6    C10   1.558629 S    
C40   H23   1.084645 S    
C15   C26   1.420369 A    
C27   C38   1.404159 A    
N4    O12   1.301392 A    
N3    O10   1.301909 A    
C18   C19   1.407424 A    
O8    C4    1.295575 A    
H5    C7    1.113625 S    
C13   C25   1.400557 A    
C20   C21   1.415326 A    
N1    C38   1.373406 A    
C22   C23   1.383987 A    
Zn1   O5    1.932897 S    
O1    Zn1   1.973753 S    
O2    Zn2   1.932897 S    
C40   O16   1.221352 D    
N3    O9    1.301815 A    
O6    C3    1.306858 A    
O4    Zn2   2.018693 S    
C12   N3    1.486754 S    
C28   N2    1.357107 A    
C15   N5    1.434047 S    
C32   C36   1.388733 A    
C10   C12   1.595230 S    
O2    C1    1.312646 A    
C25   N4    1.437290 S    
C38   C39   1.484905 S    
C42   H25   1.085715 S    
C16   C17   1.387396 A    
C13   H12   1.084123 S    
C19   C26   1.418507 A    
C6    H4    1.107781 S    
C7    C9    1.547471 S    
C33   C34   1.425198 A    
C8    C12   1.556966 S    
C35   C36   1.369881 A    
C33   C37   1.406909 A    
C17   H14   1.078993 S    
Zn2   N2    2.042937 S    
Zn2   O6    1.973750 S    
C28   H19   1.082611 S    
C41   O17   1.221273 D    
C19   C23   1.412841 A    
C4    C10   1.466456 S    
