data_mof_unit_51594.cif
_audit_creation_date              2012-12-10T17:11:59-0500
_audit_creation_method            fapswitch 2.2
_symmetry_space_group_name_H-M    P1
_symmetry_Int_Tables_number       1
_space_group_crystal_system       triclinic
_cell_length_a                    11.657679
_cell_length_b                    13.015198
_cell_length_c                    15.873473
_cell_angle_alpha                 92.425412
_cell_angle_beta                  74.098861
_cell_angle_gamma                 100.528803
_cell_volume                      2277.20260842

loop_
_atom_site_label
_atom_site_type_symbol
_atom_type_description
_atom_site_fract_x
_atom_site_fract_y
_atom_site_fract_z
_atom_type_partial_charge
C1    C     C_R   0.523071 0.701025 0.498423 0.813506
C2    C     C_R   0.476924 0.298982 0.501596 0.813332
C3    C     C_R   0.350092 0.460713 0.086636 -0.213029
C4    C     C_R   0.642241 0.478251 0.912870 -0.214419
C5    C     C_R   0.267245 0.454429 0.037534 -0.221737
C6    C     C_R   0.724765 0.482046 0.961956 -0.222465
C7    C     C_R   0.460415 0.184949 0.506404 -0.116343
C8    C     C_R   0.539576 0.815073 0.493656 -0.116950
C9    C     C_R   0.663771 0.987515 0.457452 -0.055342
C10   C     C_R   0.336223 0.012528 0.542686 -0.055532
C11   C     C_R   0.654664 0.878603 0.461550 -0.084041
C12   C     C_R   0.345349 0.121448 0.538648 -0.083573
C13   C     C_R   0.435803 0.860067 0.520309 -0.251685
C14   C     C_R   0.564173 0.139949 0.479683 -0.251761
C15   C     C_R   0.442439 0.967869 0.515844 0.096665
C16   C     C_R   0.557542 0.032157 0.484208 0.096659
C17   C     C_R   0.942871 0.598578 0.580140 -0.315005
C18   C     C_R   0.057146 0.401437 0.419831 -0.315514
C19   C     C_R   0.823982 0.588826 0.572683 0.108352
C20   C     C_R   0.176036 0.411194 0.427291 0.108238
C21   C     C_R   0.858259 0.457069 0.465647 0.039913
C22   C     C_R   0.141736 0.542924 0.534349 0.039682
C23   C     C_R   0.426857 0.494591 0.668160 0.801442
C24   C     C_R   0.572986 0.504121 0.331832 0.802227
C25   C     C_R   0.978647 0.464105 0.470949 0.063940
C26   C     C_R   0.021354 0.535889 0.529039 0.062853
C27   C     C_R   0.383248 0.486478 0.764121 -0.055147
C28   C     C_R   0.615252 0.501255 0.235777 -0.054153
C29   C     C_R   0.221533 0.460483 0.898528 -0.190378
C30   C     C_R   0.772765 0.494110 0.101119 -0.190256
C31   C     C_R   0.259491 0.470684 0.807608 -0.184945
C32   C     C_R   0.736865 0.500170 0.192168 -0.185390
C33   C     C_R   0.468241 0.491663 0.812382 -0.243522
C34   C     C_R   0.530256 0.495972 0.187510 -0.246121
C35   C     C_R   0.432324 0.477343 0.903682 0.088796
C36   C     C_R   0.563036 0.485532 0.096015 0.088533
C37   C     C_R   0.306744 0.464081 0.946777 0.164584
C38   C     C_R   0.687149 0.487257 0.052834 0.164915
C39   C     C_R   0.517663 0.477851 0.953250 0.066381
C40   C     C_R   0.476486 0.475463 0.046369 0.066955
Cu1   Cu    Cu3+1 0.386820 0.492450 0.493500 0.954483
Cu2   Cu    Cu3+1 0.613180 0.507550 0.506500 0.954641
H1    H     H_    0.171313 0.442760 0.071097 0.141567
H2    H     H_    0.819185 0.481803 0.928299 0.142068
H3    H     H_    0.235926 0.362508 0.387803 0.127954
H4    H     H_    0.764110 0.637541 0.612146 0.128230
H5    H     H_    0.973065 0.654689 0.625398 0.155460
H6    H     H_    0.026969 0.345348 0.374550 0.154077
H7    H     H_    0.438934 0.502252 0.222902 0.153817
H8    H     H_    0.562572 0.509126 0.777183 0.151138
H9    H     H_    0.804025 0.504023 0.228273 0.156291
H10   H     H_    0.192256 0.466401 0.771518 0.158369
H11   H     H_    0.125374 0.449428 0.931204 0.129551
H12   H     H_    0.867552 0.494408 0.068368 0.129526
H13   H     H_    0.311257 0.450362 0.156221 0.141882
H14   H     H_    0.679032 0.472394 0.843148 0.145831
H15   H     H_    0.651040 0.190369 0.454678 0.164296
H16   H     H_    0.348925 0.809641 0.545241 0.164445
H17   H     H_    0.175588 0.597613 0.578986 0.119325
H18   H     H_    0.824403 0.402385 0.421009 0.118322
N1    N     N_R   0.216750 0.481110 0.483710 -0.182283
N2    N     N_R   0.783250 0.518890 0.516290 -0.182387
O1    O     O_R   0.419950 0.645670 0.495380 -0.586483
O2    O     O_R   0.580050 0.354330 0.504620 -0.586885
O3    O     O_R   0.611110 0.658410 0.506370 -0.579110
O4    O     O_R   0.388890 0.341590 0.493630 -0.579326
O5    O     O_R   0.350820 0.490050 0.621260 -0.584090
O6    O     O_R   0.649180 0.509950 0.378740 -0.583499
O7    O     O_R   0.541970 0.502800 0.632250 -0.592157
O8    O     O_R   0.458030 0.497200 0.367750 -0.592300
C41   C     C_1   0.236822 0.167125 0.570687 0.288052
N3    N     N_1   0.150232 0.203395 0.596266 -0.262945
C42   C     C_1   0.763267 0.832983 0.429776 0.288000
N4    N     N_1   0.849928 0.796770 0.404421 -0.260815
C43   C     C_1   0.782480 0.052685 0.425438 0.229633
N5    N     N_1   0.876974 0.104553 0.400010 -0.287553
C44   C     C_1   0.217518 0.947378 0.574777 0.230008
N6    N     N_1   0.123025 0.895527 0.600267 -0.286794

loop_
_geom_bond_atom_site_label_1
_geom_bond_atom_site_label_2
_ccdc_geom_bond_type
C8    C13   A    
C5    C37   A    
C1    C8    S    
Cu1   Cu2   S    
C23   O7    A    
C2    C7    S    
Cu1   N1    S    
C31   H10   S    
C19   H4    S    
C24   O8    A    
Cu1   O5    S    
C44   N6    T    
C27   C33   A    
C30   H12   S    
C17   C26   A    
C35   C37   A    
C9    C16   A    
C10   C15   A    
C19   N2    A    
C15   C16   A    
C30   C38   A    
C42   N4    T    
C23   O5    A    
C20   N1    A    
C17   C19   A    
C3    H13   S    
C7    C14   A    
Cu2   O3    S    
C1    O3    A    
C6    C38   A    
C23   C27   S    
Cu2   N2    S    
C34   C36   A    
C20   H3    S    
C5    H1    S    
C28   C34   A    
C6    H2    S    
C4    H14   S    
Cu2   O6    S    
C18   C25   A    
C1    O1    A    
C10   C44   S    
C2    O2    A    
C7    C12   A    
C27   C31   A    
C17   H5    S    
C28   C32   A    
C21   H18   S    
C4    C6    A    
C11   C42   S    
C22   H17   S    
C13   H16   S    
C3    C5    A    
C25   C26   A    
Cu2   O7    S    
C35   C39   A    
C43   N5    T    
C32   H9    S    
C4    C39   A    
C36   C40   A    
C9    C11   A    
C21   N2    A    
C10   C12   A    
C12   C41   S    
C3    C40   A    
C13   C15   A    
C14   C16   A    
Cu1   O1    S    
Cu2   O2    S    
C39   C40   A    
C14   H15   S    
C21   C25   A    
C34   H7    S    
C24   C28   S    
C2    O4    A    
C18   H6    S    
Cu1   O4    S    
C36   C38   A    
C33   H8    S    
C41   N3    T    
C29   C31   A    
C22   N1    A    
C30   C32   A    
C29   H11   S    
C8    C11   A    
C33   C35   A    
C18   C20   A    
C24   O6    A    
C22   C26   A    
C29   C37   A    
C9    C43   S    
Cu1   O8    S    
