data_mof_unit_38597.cif
_audit_creation_date              2012-12-10T19:11:29-0500
_audit_creation_method            fapswitch 2.2
_symmetry_space_group_name_H-M    P1
_symmetry_Int_Tables_number       1
_space_group_crystal_system       triclinic
_cell_length_a                    10.659162
_cell_length_b                    9.701502
_cell_length_c                    10.502268
_cell_angle_alpha                 90.565771
_cell_angle_beta                  91.800461
_cell_angle_gamma                 90.253051
_cell_volume                      1085.43705934

loop_
_atom_site_label
_atom_site_type_symbol
_atom_type_description
_atom_site_fract_x
_atom_site_fract_y
_atom_site_fract_z
_atom_type_partial_charge
C1    C     C_R   0.257190 0.499367 0.497302 0.863674
C2    C     C_3   0.508608 0.498780 0.122180 0.040934
C3    C     C_3   0.076701 0.594048 0.605163 -0.467044
C4    C     C_3   0.070523 0.350469 0.522201 -0.432987
C5    C     C_3   0.934442 0.579520 0.621766 -0.458106
C6    C     C_3   0.928207 0.349377 0.508771 -0.390485
C7    C     C_3   0.061565 0.547199 0.361199 0.870904
C8    C     C_3   0.119942 0.497947 0.494397 0.071712
C9    C     C_3   0.878372 0.500046 0.505079 0.107763
C10   C     C_3   0.920473 0.574302 0.383637 -0.449582
C11   C     C_3   0.379994 0.080945 0.543209 -0.234757
C12   C     C_3   0.379572 0.918603 0.542177 -0.234387
C13   C     C_3   0.517868 0.079980 0.367777 -0.238566
C14   C     C_3   0.518363 0.917523 0.367859 -0.224556
C15   C     C_3   0.601901 0.082583 0.581259 -0.233296
C16   C     C_3   0.601438 0.920111 0.581825 -0.239824
C17   C     C_R   0.505129 0.499468 0.257244 0.857213
C18   C     C_R   0.742453 0.500125 0.505372 0.863579
C19   C     C_R   0.503639 0.500755 0.742775 0.858335
C20   C     C_3   0.408038 0.569462 0.039601 -0.200914
C21   C     C_3   0.504307 0.368967 0.038417 -0.144596
C22   C     C_3   0.403114 0.439571 0.953781 -0.195371
C23   C     C_3   0.508108 0.502292 0.877664 0.043543
C24   C     C_3   0.513316 0.632237 0.961155 -0.143716
C25   C     C_3   0.609564 0.432013 0.959582 -0.178266
C26   C     C_3   0.614253 0.561698 0.046365 -0.181997
H1    H     H_    0.317073 0.390282 0.911497 0.121547
H2    H     H_    0.903105 0.686430 0.397283 0.149739
H3    H     H_    0.862464 0.540347 0.298722 0.144423
H4    H     H_    0.300133 0.117721 0.482548 0.137158
H5    H     H_    0.300358 0.880745 0.479576 0.179359
H6    H     H_    0.363495 0.120029 0.641195 0.145854
H7    H     H_    0.361614 0.880082 0.639393 0.140482
H8    H     H_    0.442135 0.116412 0.301390 0.147524
H9    H     H_    0.443097 0.878379 0.301111 0.157551
H10   H     H_    0.694407 0.119972 0.549353 0.141904
H11   H     H_    0.694044 0.881868 0.551135 0.143956
H12   H     H_    0.592201 0.122473 0.680096 0.145316
H13   H     H_    0.590459 0.883088 0.680783 0.140612
H14   H     H_    0.607597 0.118895 0.330031 0.145290
H15   H     H_    0.608585 0.879319 0.330711 0.140562
H16   H     H_    0.326717 0.627157 0.075214 0.127830
H17   H     H_    0.502187 0.261470 0.073585 0.123848
H18   H     H_    0.516894 0.739549 0.925588 0.125457
H19   H     H_    0.691510 0.376486 0.921736 0.119462
H20   H     H_    0.700056 0.611019 0.089126 0.115140
H21   H     H_    0.099403 0.703339 0.583671 0.201376
H22   H     H_    0.107767 0.271903 0.456247 0.204180
H23   H     H_    0.126568 0.567968 0.696526 0.167309
H24   H     H_    0.100031 0.319643 0.620545 0.172766
H25   H     H_    0.915581 0.522609 0.710753 0.174892
H26   H     H_    0.889828 0.292405 0.590604 0.162250
H27   H     H_    0.892125 0.683743 0.630800 0.176985
H28   H     H_    0.898549 0.293377 0.419631 0.204443
N1    N     N_3   0.499750 0.138610 0.497240 -0.028189
N2    N     N_3   0.499750 0.861390 0.497240 -0.031575
O1    O     O_R   0.314910 0.616040 0.499970 -0.596051
O2    O     O_R   0.314910 0.383960 0.499970 -0.642211
O3    O     O_R   0.500080 0.616020 0.313900 -0.624243
O4    O     O_R   0.500080 0.383980 0.313900 -0.630823
O5    O     O_R   0.685320 0.616040 0.499930 -0.637492
O6    O     O_R   0.685320 0.383960 0.499930 -0.637868
O7    O     O_R   0.500150 0.616060 0.686000 -0.637251
O8    O     O_R   0.500150 0.383940 0.686000 -0.630209
Zn1   Zn    Zn3+2 0.500150 0.654960 0.499940 0.912587
Zn2   Zn    Zn3+2 0.500150 0.345040 0.499940 0.895425
O9    O     O_3   0.124694 0.669939 0.322431 -0.664513
C27   C     C_3   0.072937 0.730371 0.210089 0.086415
H29   H     H_    0.974993 0.765060 0.221655 0.130045
H30   H     H_    0.074455 0.659031 0.127305 0.145218
C28   C     C_3   0.149666 0.857975 0.179855 -0.888369
H31   H     H_    0.249285 0.830208 0.167068 0.248945
H32   H     H_    0.112136 0.905744 0.090959 0.208736
H33   H     H_    0.144729 0.934295 0.259095 0.253603
O10   O     O_3   0.063431 0.438644 0.267736 -0.672910
C29   C     C_3   0.178361 0.419207 0.207022 0.123829
H34   H     H_    0.258659 0.472879 0.254508 0.156390
H35   H     H_    0.168091 0.457378 0.108211 0.141947
C30   C     C_3   0.205545 0.265621 0.196902 -0.882399
H36   H     H_    0.121460 0.209417 0.158276 0.259403
H37   H     H_    0.283918 0.247494 0.132185 0.212733
H38   H     H_    0.232487 0.223894 0.291302 0.242401

loop_
_geom_bond_atom_site_label_1
_geom_bond_atom_site_label_2
_ccdc_geom_bond_type
C7    C10   S    
C14   N2    S    
O7    Zn1   S    
C1    C8    S    
C29   C30   S    
C4    C8    S    
C6    C9    S    
C3    H23   S    
C7    C8    S    
C5    H27   S    
C24   C26   S    
N2    Zn1   S    
C13   H14   S    
C21   H17   S    
O2    Zn2   S    
C20   C24   S    
C11   H4    S    
C19   O7    A    
C27   H29   S    
C23   C24   S    
C9    C10   S    
C16   H11   S    
O4    Zn2   S    
C21   C22   S    
C2    C17   S    
C6    H28   S    
O6    Zn2   S    
C2    C20   S    
O9    C27   S    
C29   H34   S    
C4    C6    S    
C3    C8    S    
O1    Zn1   S    
C14   H9    S    
C28   H32   S    
C18   O6    A    
C7    O10   S    
C17   O4    A    
C25   C26   S    
C4    H24   S    
O8    Zn2   S    
C19   C23   S    
O10   C29   S    
C16   N2    S    
C15   H12   S    
C5    C9    S    
C1    O1    A    
C30   H38   S    
C19   O8    A    
C2    C21   S    
C2    C26   S    
C12   N2    S    
C17   O3    A    
C14   H15   S    
C20   C22   S    
C11   H6    S    
C22   H1    S    
C12   H5    S    
C24   H18   S    
C25   H19   S    
C15   H10   S    
N1    Zn2   S    
C11   N1    S    
C30   H37   S    
C4    H22   S    
C10   H2    S    
C21   C25   S    
C29   H35   S    
C3    C5    S    
C28   H33   S    
C20   H16   S    
C11   C12   S    
C18   O5    A    
C28   H31   S    
C1    O2    A    
O3    Zn1   S    
C10   H3    S    
C27   C28   S    
C3    H21   S    
C23   C25   S    
C26   H20   S    
C16   H13   S    
C7    O9    S    
C30   H36   S    
O5    Zn1   S    
C9    C18   S    
C13   H8    S    
C27   H30   S    
C22   C23   S    
C5    H25   S    
C6    H26   S    
C12   H7    S    
C13   C14   S    
C15   C16   S    
C15   N1    S    
C13   N1    S    
