data_mof_unit_62081.cif
_audit_creation_date              2012-12-10T20:34:28-0500
_audit_creation_method            fapswitch 2.2
_symmetry_space_group_name_H-M    P1
_symmetry_Int_Tables_number       1
_space_group_crystal_system       triclinic
_cell_length_a                    28.23194
_cell_length_b                    28.23194
_cell_length_c                    32.901823
_cell_angle_alpha                 90.000033
_cell_angle_beta                  90.000174
_cell_angle_gamma                 89.999915
_cell_volume                      26224.149158

loop_
_atom_site_label
_atom_site_type_symbol
_atom_type_description
_atom_site_fract_x
_atom_site_fract_y
_atom_site_fract_z
_atom_type_partial_charge
C1    C     C_R   0.198837 0.301162 0.250000 0.162571
C2    C     C_R   0.801162 0.301163 0.250000 0.162575
C3    C     C_R   0.688967 0.173805 0.785527 -0.242705
C4    C     C_R   0.826216 0.688987 0.214479 -0.242706
C5    C     C_R   0.173786 0.311015 0.785521 -0.242705
C6    C     C_R   0.688985 0.173785 0.214479 -0.242705
C7    C     C_R   0.310997 0.826232 0.785515 -0.242705
C8    C     C_R   0.173803 0.688970 0.785526 -0.242707
C9    C     C_R   0.826196 0.311031 0.214474 -0.242704
C10   C     C_R   0.311024 0.173796 0.785524 -0.242704
C11   C     C_R   0.688983 0.826212 0.214477 -0.242712
C12   C     C_R   0.826217 0.311012 0.785520 -0.242706
C13   C     C_R   0.301162 0.198837 0.750000 0.162577
C14   C     C_R   0.173801 0.688969 0.214475 -0.242704
C15   C     C_R   0.688970 0.826198 0.785526 -0.242703
C16   C     C_R   0.311063 0.173836 0.214464 -0.242706
C17   C     C_R   0.673800 0.811028 0.714474 -0.242705
C18   C     C_R   0.326167 0.188939 0.285537 -0.242716
C19   C     C_R   0.811012 0.326216 0.714480 -0.242704
C20   C     C_R   0.188966 0.673803 0.285528 -0.242703
C21   C     C_R   0.326203 0.188975 0.714476 -0.242704
C22   C     C_R   0.673790 0.811018 0.285521 -0.242705
C23   C     C_R   0.188968 0.673804 0.714474 -0.242704
C24   C     C_R   0.698838 0.801164 0.249999 0.162578
C25   C     C_R   0.811030 0.326198 0.285526 -0.242706
C26   C     C_R   0.673785 0.188986 0.285521 -0.242706
C27   C     C_R   0.326231 0.810998 0.714484 -0.242706
C28   C     C_R   0.811013 0.673785 0.285520 -0.242705
C29   C     C_R   0.188985 0.326214 0.714479 -0.242705
C30   C     C_R   0.326049 0.811175 0.285572 -0.242692
C31   C     C_R   0.673805 0.188967 0.714473 -0.242705
C32   C     C_R   0.188939 0.326166 0.285536 -0.242702
C33   C     C_R   0.811016 0.673787 0.714478 -0.242704
C34   C     C_R   0.138105 0.345602 0.213938 -0.050640
C35   C     C_R   0.801163 0.301163 0.750000 0.162578
C36   C     C_R   0.861939 0.654440 0.786047 -0.050666
C37   C     C_R   0.345707 0.861783 0.213902 -0.050575
C38   C     C_R   0.654425 0.138078 0.786053 -0.050655
C39   C     C_R   0.861943 0.654444 0.213953 -0.050665
C40   C     C_R   0.138059 0.345558 0.786047 -0.050666
C41   C     C_R   0.654443 0.138058 0.213953 -0.050667
C42   C     C_R   0.345541 0.861959 0.786041 -0.050678
C43   C     C_R   0.138076 0.654427 0.786053 -0.050655
C44   C     C_R   0.861924 0.345574 0.213948 -0.050653
C45   C     C_R   0.345567 0.138069 0.786050 -0.050665
C46   C     C_R   0.198834 0.698838 0.250001 0.162575
C47   C     C_R   0.654440 0.861939 0.213952 -0.050664
C48   C     C_R   0.861944 0.345555 0.786046 -0.050668
C49   C     C_R   0.138074 0.654426 0.213948 -0.050662
C50   C     C_R   0.654428 0.861925 0.786052 -0.050655
C51   C     C_R   0.345604 0.138108 0.213938 -0.050633
C52   C     C_R   0.638073 0.845571 0.713948 -0.050661
C53   C     C_R   0.361895 0.154397 0.286063 -0.050641
C54   C     C_R   0.845555 0.361943 0.713954 -0.050667
C55   C     C_R   0.154425 0.638075 0.286053 -0.050659
C56   C     C_R   0.361931 0.154433 0.713950 -0.050659
C57   C     C_R   0.698836 0.801161 0.750000 0.162575
C58   C     C_R   0.638063 0.845561 0.286048 -0.050660
C59   C     C_R   0.154426 0.638076 0.713948 -0.050657
C60   C     C_R   0.845573 0.361925 0.286052 -0.050657
C61   C     C_R   0.638059 0.154443 0.286047 -0.050663
C62   C     C_R   0.361958 0.845541 0.713959 -0.050676
C63   C     C_R   0.845556 0.638058 0.286046 -0.050666
C64   C     C_R   0.154442 0.361941 0.713953 -0.050666
C65   C     C_R   0.361781 0.845712 0.286097 -0.050571
C66   C     C_R   0.638078 0.154424 0.713947 -0.050655
C67   C     C_R   0.154397 0.361894 0.286062 -0.050641
C68   C     C_R   0.301163 0.198839 0.250000 0.162572
C69   C     C_R   0.845559 0.638060 0.713952 -0.050668
C70   C     C_2   0.111656 0.351663 0.175143 0.388597
C71   C     C_2   0.888432 0.648423 0.824826 0.388521
C72   C     C_2   0.351874 0.888124 0.175067 0.388772
C73   C     C_2   0.648390 0.111602 0.824838 0.388550
C74   C     C_2   0.888439 0.648429 0.175176 0.388516
C75   C     C_2   0.111565 0.351574 0.824825 0.388522
C76   C     C_2   0.648427 0.111563 0.175175 0.388520
C77   C     C_2   0.351541 0.888470 0.824813 0.388493
C78   C     C_2   0.111598 0.648395 0.824837 0.388544
C79   C     C_R   0.128249 0.371750 0.250000 -0.066625
C80   C     C_2   0.888402 0.351606 0.175164 0.388542
C81   C     C_2   0.351593 0.111584 0.824832 0.388543
C82   C     C_2   0.648420 0.888431 0.175173 0.388529
C83   C     C_2   0.888441 0.351569 0.824823 0.388518
C84   C     C_2   0.111596 0.648393 0.175164 0.388556
C85   C     C_2   0.648397 0.888405 0.824835 0.388541
C86   C     C_2   0.351667 0.111661 0.175142 0.388580
C87   C     C_2   0.611593 0.851601 0.675164 0.388550
C88   C     C_2   0.388343 0.148336 0.324858 0.388598
C89   C     C_2   0.851569 0.388440 0.675176 0.388517
C90   C     C_R   0.871751 0.628249 0.750000 -0.066604
C91   C     C_2   0.148393 0.611596 0.324837 0.388551
C92   C     C_2   0.388415 0.148407 0.675168 0.388532
C93   C     C_2   0.611572 0.851579 0.324827 0.388519
C94   C     C_2   0.148393 0.611598 0.675163 0.388547
C95   C     C_2   0.851605 0.388403 0.324836 0.388547
C96   C     C_2   0.611564 0.148427 0.324825 0.388512
C97   C     C_2   0.388469 0.851541 0.675187 0.388491
C98   C     C_2   0.851571 0.611562 0.324824 0.388517
C99   C     C_2   0.148426 0.388435 0.675175 0.388519
C100  C     C_2   0.388122 0.851883 0.324931 0.388782
C101  C     C_R   0.371748 0.871749 0.249999 -0.066684
C102  C     C_2   0.611601 0.148390 0.675162 0.388551
C103  C     C_2   0.148335 0.388344 0.324857 0.388600
C104  C     C_2   0.851577 0.611568 0.675174 0.388526
C105  C     C_R   0.801162 0.698836 0.750000 0.162578
C106  C     C_R   0.628249 0.128249 0.750000 -0.066613
C107  C     C_R   0.871751 0.628249 0.250000 -0.066604
C108  C     C_R   0.128249 0.371751 0.750000 -0.066604
C109  C     C_R   0.628249 0.128249 0.250000 -0.066606
C110  C     C_R   0.371751 0.871751 0.750000 -0.066595
C111  C     C_R   0.128249 0.628249 0.750000 -0.066615
C112  C     C_R   0.871750 0.371751 0.250000 -0.066612
C113  C     C_R   0.371751 0.128249 0.750000 -0.066611
C114  C     C_R   0.628249 0.871751 0.250000 -0.066598
C115  C     C_R   0.871751 0.371751 0.750000 -0.066604
C116  C     C_R   0.301157 0.801163 0.250002 0.162554
C117  C     C_R   0.128248 0.628249 0.250000 -0.066608
C118  C     C_R   0.628249 0.871750 0.750000 -0.066612
C119  C     C_R   0.371751 0.128250 0.250001 -0.066620
C120  C     C_1   0.234901 0.265099 0.250001 -0.043174
C121  C     C_1   0.765099 0.734900 0.750000 -0.043179
C122  C     C_1   0.265094 0.765100 0.250002 -0.043159
C123  C     C_1   0.734901 0.234901 0.750000 -0.043178
C124  C     C_1   0.765100 0.734901 0.249999 -0.043180
C125  C     C_1   0.234901 0.265099 0.750000 -0.043180
C126  C     C_1   0.734900 0.234901 0.250000 -0.043180
C127  C     C_R   0.698837 0.198837 0.750000 0.162575
C128  C     C_1   0.265099 0.765100 0.750000 -0.043182
C129  C     C_1   0.234901 0.734902 0.750000 -0.043179
C130  C     C_1   0.765098 0.265100 0.250000 -0.043177
C131  C     C_1   0.265099 0.234901 0.750000 -0.043179
C132  C     C_1   0.734902 0.765100 0.249999 -0.043177
C133  C     C_1   0.765099 0.265099 0.750000 -0.043180
C134  C     C_1   0.234897 0.734902 0.250002 -0.043175
C135  C     C_1   0.734900 0.765098 0.750000 -0.043179
C136  C     C_1   0.265100 0.234902 0.250001 -0.043172
C137  C     C_1   0.500000 1.000000 0.399232 -0.123173
C138  C     C_R   0.801164 0.698837 0.249999 0.162577
C139  C     C_1   0.500000 1.000000 0.600768 -0.123216
C140  C     C_1   1.000000 0.500000 0.399232 -0.123206
C141  C     C_1   1.000000 0.500000 0.600768 -0.123220
C142  C     C_1   0.000000 0.500000 0.899232 -0.123219
C143  C     C_1   1.000000 0.500000 0.100768 -0.123205
C144  C     C_1   0.500000 0.000000 0.899232 -0.123218
C145  C     C_1   0.500000 1.000000 0.100768 -0.123168
C146  C     C_1   0.500000 1.000000 0.436802 0.009896
C147  C     C_1   0.500000 1.000000 0.563198 0.009888
C148  C     C_1   0.000000 0.500000 0.436802 0.009889
C149  C     C_R   0.198837 0.301163 0.750000 0.162577
C150  C     C_1   0.000000 0.500000 0.563198 0.009887
C151  C     C_1   0.000000 0.500000 0.936801 0.009887
C152  C     C_1   1.000000 0.500000 0.063198 0.009890
C153  C     C_1   0.500000 0.000000 0.936801 0.009888
C154  C     C_1   0.500000 1.000000 0.063198 0.009898
C155  C     C_1   0.500000 1.000000 0.481215 0.018443
C156  C     C_1   0.500000 1.000000 0.518785 0.018442
C157  C     C_1   0.000000 0.500000 0.481215 0.018440
C158  C     C_1   1.000000 0.500000 0.518785 0.018439
C159  C     C_1   0.000000 0.500000 0.981215 0.018440
C160  C     C_R   0.698836 0.198837 0.250000 0.162577
C161  C     C_1   1.000000 0.500000 0.018785 0.018440
C162  C     C_1   0.500000 1.000000 0.981215 0.018442
C163  C     C_1   0.500000 1.000000 0.018785 0.018443
C164  C     C_R   0.500000 1.000000 0.145945 0.873267
C165  C     C_R   0.500000 0.000000 0.854055 0.873253
C166  C     C_R   1.000000 0.500000 0.145945 0.873257
C167  C     C_R   0.000000 0.500000 0.854055 0.873253
C168  C     C_R   0.000000 0.500000 0.645945 0.873253
C169  C     C_R   0.000000 0.500000 0.354055 0.873257
C170  C     C_R   0.500000 0.000000 0.645945 0.873254
C171  C     C_R   0.301163 0.801164 0.750000 0.162579
C172  C     C_R   0.500000 0.000000 0.354055 0.873265
C173  C     C_R   0.408703 0.908704 0.249999 0.984980
C174  C     C_R   0.591296 0.091296 0.750000 0.985361
C175  C     C_R   0.908704 0.591296 0.250000 0.985420
C176  C     C_R   0.091296 0.408704 0.750000 0.985417
C177  C     C_R   0.591296 0.091296 0.250000 0.985419
C178  C     C_R   0.408704 0.908704 0.750000 0.985463
C179  C     C_R   0.091296 0.408704 0.250000 0.985287
C180  C     C_R   0.908704 0.591296 0.750000 0.985414
C181  C     C_R   0.408704 0.091296 0.750000 0.985395
C182  C     C_R   0.198837 0.698838 0.750000 0.162576
C183  C     C_R   0.591296 0.908704 0.250000 0.985384
C184  C     C_R   0.908704 0.408704 0.750000 0.985426
C185  C     C_R   0.091296 0.591296 0.250000 0.985371
C186  C     C_R   0.591296 0.908704 0.750000 0.985379
C187  C     C_R   0.408704 0.091296 0.250000 0.985260
C188  C     C_R   0.091296 0.591296 0.750000 0.985373
C189  C     C_R   0.908704 0.408704 0.250000 0.985368
C190  C     C_R   0.173833 0.311060 0.214464 -0.242704
C191  C     C_R   0.826212 0.688983 0.785522 -0.242703
C192  C     C_R   0.311167 0.826054 0.214430 -0.242701
H1    H     H_    0.181711 0.291040 0.187143 0.130274
H2    H     H_    0.818341 0.290988 0.187160 0.130271
H3    H     H_    0.290976 0.181645 0.812837 0.130270
H4    H     H_    0.709037 0.818367 0.187167 0.130270
H5    H     H_    0.818376 0.290954 0.812829 0.130270
H6    H     H_    0.181655 0.709013 0.187161 0.130274
H7    H     H_    0.709014 0.818344 0.812840 0.130270
H8    H     H_    0.291043 0.181715 0.187142 0.130275
H9    H     H_    0.681654 0.790983 0.687161 0.130270
H10   H     H_    0.318288 0.208959 0.312858 0.130273
H11   H     H_    0.790954 0.318376 0.687170 0.130269
H12   H     H_    0.818368 0.709038 0.812832 0.130268
H13   H     H_    0.209009 0.681658 0.312842 0.130274
H14   H     H_    0.318353 0.209024 0.687164 0.130269
H15   H     H_    0.681635 0.790964 0.312832 0.130271
H16   H     H_    0.209011 0.681659 0.687160 0.130270
H17   H     H_    0.790986 0.318343 0.312840 0.130270
H18   H     H_    0.681627 0.209043 0.312830 0.130269
H19   H     H_    0.318402 0.790929 0.687179 0.130269
H20   H     H_    0.790956 0.681626 0.312829 0.130271
H21   H     H_    0.209041 0.318371 0.687169 0.130269
H22   H     H_    0.318088 0.791240 0.312923 0.130283
H23   H     H_    0.291230 0.818093 0.187081 0.130279
H24   H     H_    0.681662 0.209009 0.687158 0.130270
H25   H     H_    0.208959 0.318289 0.312858 0.130274
H26   H     H_    0.790961 0.681631 0.687168 0.130268
H27   H     H_    0.125765 0.336421 0.147368 0.069980
H28   H     H_    0.874373 0.663729 0.852594 0.070014
H29   H     H_    0.336789 0.873890 0.147276 0.069898
H30   H     H_    0.663673 0.125680 0.852609 0.070000
H31   H     H_    0.874384 0.663740 0.147408 0.070018
H32   H     H_    0.125622 0.336266 0.852593 0.070013
H33   H     H_    0.663737 0.125619 0.147407 0.070013
H34   H     H_    0.709009 0.181662 0.812842 0.130270
H35   H     H_    0.336207 0.874433 0.852578 0.070030
H36   H     H_    0.125672 0.663683 0.852607 0.070002
H37   H     H_    0.874325 0.336323 0.147393 0.070007
H38   H     H_    0.336299 0.125652 0.852601 0.070005
H39   H     H_    0.663726 0.874371 0.147404 0.070008
H40   H     H_    0.874387 0.336257 0.852591 0.070016
H41   H     H_    0.125673 0.663677 0.147393 0.069999
H42   H     H_    0.663681 0.874330 0.852606 0.070004
H43   H     H_    0.336429 0.125773 0.147366 0.069999
H44   H     H_    0.625665 0.836312 0.647395 0.070001
H45   H     H_    0.818375 0.709045 0.187169 0.130270
H46   H     H_    0.374237 0.163585 0.352632 0.069974
H47   H     H_    0.836257 0.374385 0.647409 0.070016
H48   H     H_    0.163678 0.625672 0.352608 0.070007
H49   H     H_    0.374347 0.163702 0.647399 0.070009
H50   H     H_    0.625632 0.836273 0.352595 0.070033
H51   H     H_    0.163677 0.625675 0.647393 0.070002
H52   H     H_    0.836320 0.374328 0.352607 0.070000
H53   H     H_    0.625619 0.163739 0.352592 0.070022
H54   H     H_    0.374431 0.836208 0.647421 0.070030
H55   H     H_    0.836260 0.625617 0.352591 0.070018
H56   H     H_    0.181628 0.290958 0.812831 0.130270
H57   H     H_    0.163735 0.374378 0.647407 0.070017
H58   H     H_    0.373872 0.836829 0.352729 0.069884
H59   H     H_    0.625679 0.163672 0.647391 0.070000
H60   H     H_    0.163572 0.374231 0.352633 0.069977
H61   H     H_    0.836271 0.625627 0.647406 0.070011
H62   H     H_    0.709042 0.181627 0.187169 0.130269
H63   H     H_    0.290928 0.818403 0.812821 0.130268
H64   H     H_    0.181658 0.709013 0.812840 0.130270
O1    O     O_3   0.500000 0.000000 0.250000 -0.498853
O2    O     O_R   0.500000 0.039260 0.833890 -0.609571
O3    O     O_R   0.960740 0.500000 0.166110 -0.609588
O4    O     O_R   0.039260 0.500000 0.833890 -0.609576
O5    O     O_R   0.000000 0.539260 0.666110 -0.609577
O6    O     O_R   0.000000 0.460740 0.333890 -0.609561
O7    O     O_R   0.539260 0.000000 0.666110 -0.609567
O8    O     O_R   0.460740 0.000000 0.333890 -0.609504
O9    O     O_R   0.000000 0.460740 0.666110 -0.609588
O10   O     O_R   0.000000 0.539260 0.333890 -0.609585
O11   O     O_R   0.460740 0.000000 0.666110 -0.609594
O12   O     O_3   0.500000 0.000000 0.750000 -0.498849
O13   O     O_R   0.539260 0.000000 0.333890 -0.609600
O14   O     O_R   0.444730 0.905560 0.228080 -0.622768
O15   O     O_R   0.555270 0.094440 0.771920 -0.622803
O16   O     O_R   0.905560 0.555270 0.228080 -0.622804
O17   O     O_R   0.094440 0.444730 0.771920 -0.622808
O18   O     O_R   0.555270 0.094440 0.228080 -0.622809
O19   O     O_R   0.444730 0.905560 0.771920 -0.622807
O20   O     O_R   0.094440 0.444730 0.228080 -0.622799
O21   O     O_R   0.905560 0.555270 0.771920 -0.622802
O22   O     O_R   0.444730 0.094440 0.771920 -0.622808
O23   O     O_3   0.000000 0.500000 0.250000 -0.498850
O24   O     O_R   0.555270 0.905560 0.228080 -0.622830
O25   O     O_R   0.905560 0.444730 0.771920 -0.622803
O26   O     O_R   0.094440 0.555270 0.228080 -0.622813
O27   O     O_R   0.555270 0.905560 0.771920 -0.622804
O28   O     O_R   0.444730 0.094440 0.228080 -0.622794
O29   O     O_R   0.094440 0.555270 0.771920 -0.622796
O30   O     O_R   0.905560 0.444730 0.228080 -0.622802
O31   O     O_R   0.944730 0.405560 0.728080 -0.622804
O32   O     O_R   0.055270 0.594440 0.271920 -0.622799
O33   O     O_R   0.405560 0.055270 0.728080 -0.622797
O34   O     O_3   0.000000 0.500000 0.750000 -0.498849
O35   O     O_R   0.594440 0.944730 0.271920 -0.622788
O36   O     O_R   0.055270 0.594440 0.728080 -0.622806
O37   O     O_R   0.944730 0.405560 0.271920 -0.622810
O38   O     O_R   0.594440 0.944730 0.728080 -0.622802
O39   O     O_R   0.405560 0.055270 0.271920 -0.622822
O40   O     O_R   0.944730 0.594440 0.271920 -0.622804
O41   O     O_R   0.055270 0.405560 0.728080 -0.622800
O42   O     O_R   0.405560 0.944730 0.271920 -0.622847
O43   O     O_R   0.594440 0.055270 0.728080 -0.622804
O44   O     O_R   0.055270 0.405560 0.271920 -0.622812
O45   O     O_R   0.500000 0.039260 0.166110 -0.609581
O46   O     O_R   0.944730 0.594440 0.728080 -0.622809
O47   O     O_R   0.594440 0.055270 0.271920 -0.622790
O48   O     O_R   0.405560 0.944730 0.728080 -0.622807
O49   O     O_2   0.073538 0.371975 0.173580 -0.565958
O50   O     O_2   0.926529 0.628070 0.826382 -0.565980
O51   O     O_2   0.372088 0.926293 0.173487 -0.565941
O52   O     O_2   0.628053 0.073498 0.826397 -0.565968
O53   O     O_2   0.926534 0.628074 0.173621 -0.565976
O54   O     O_2   0.073469 0.371927 0.826381 -0.565963
O55   O     O_2   0.628073 0.073468 0.173620 -0.565966
O56   O     O_R   0.500000 0.960740 0.833890 -0.609592
O57   O     O_2   0.371910 0.926557 0.826366 -0.565976
O58   O     O_2   0.073497 0.628053 0.826396 -0.565961
O59   O     O_2   0.926507 0.371941 0.173606 -0.565991
O60   O     O_2   0.371938 0.073483 0.826389 -0.565948
O61   O     O_2   0.628068 0.926527 0.173617 -0.565959
O62   O     O_2   0.926535 0.371925 0.826379 -0.565966
O63   O     O_2   0.073493 0.628055 0.173606 -0.565956
O64   O     O_2   0.628061 0.926510 0.826392 -0.565974
O65   O     O_2   0.371976 0.073541 0.173579 -0.566058
O66   O     O_2   0.573492 0.871944 0.673606 -0.565947
O67   O     O_R   0.039260 0.500000 0.166110 -0.609558
O68   O     O_2   0.426457 0.128017 0.326423 -0.565943
O69   O     O_2   0.871924 0.426534 0.673621 -0.565968
O70   O     O_2   0.128054 0.573493 0.326395 -0.565989
O71   O     O_2   0.426515 0.128062 0.673611 -0.565977
O72   O     O_2   0.573477 0.871933 0.326384 -0.566061
O73   O     O_2   0.128056 0.573494 0.673605 -0.565959
O74   O     O_2   0.871944 0.426507 0.326394 -0.565956
O75   O     O_2   0.573470 0.128072 0.326381 -0.566002
O76   O     O_2   0.426557 0.871909 0.673634 -0.565982
O77   O     O_2   0.871925 0.573466 0.326379 -0.565977
O78   O     O_R   0.960740 0.500000 0.833890 -0.609588
O79   O     O_2   0.128072 0.426530 0.673619 -0.565977
O80   O     O_2   0.426308 0.872065 0.326503 -0.565898
O81   O     O_2   0.573497 0.128053 0.673603 -0.565966
O82   O     O_2   0.128029 0.426464 0.326418 -0.565957
O83   O     O_2   0.871929 0.573471 0.673618 -0.565964
O84   O     O_R   0.500000 0.960740 0.166110 -0.609516
Zn1   Zn    Zn3+2 0.443870 0.000000 0.281560 1.093479
Zn2   Zn    Zn3+2 0.056130 0.500000 0.218440 1.093566
Zn3   Zn    Zn3+2 0.500000 0.056130 0.781560 1.093584
Zn4   Zn    Zn3+2 0.500000 0.943870 0.218440 1.093525
Zn5   Zn    Zn3+2 0.056130 0.500000 0.781560 1.093592
Zn6   Zn    Zn3+2 0.943870 0.500000 0.218440 1.093577
Zn7   Zn    Zn3+2 0.500000 0.943870 0.781560 1.093589
Zn8   Zn    Zn3+2 0.500000 0.056130 0.218440 1.093543
Zn9   Zn    Zn3+2 0.556130 0.000000 0.718440 1.093585
Zn10  Zn    Zn3+2 0.000000 0.556130 0.281560 1.093579
Zn11  Zn    Zn3+2 0.000000 0.443870 0.718440 1.093595
Zn12  Zn    Zn3+2 0.556130 0.000000 0.281560 1.093567
Zn13  Zn    Zn3+2 0.443870 0.000000 0.718440 1.093594
Zn14  Zn    Zn3+2 0.000000 0.443870 0.281560 1.093561
Zn15  Zn    Zn3+2 0.000000 0.556130 0.718440 1.093586
Zn16  Zn    Zn3+2 0.943870 0.500000 0.781560 1.093594

loop_
_geom_bond_atom_site_label_1
_geom_bond_atom_site_label_2
_ccdc_geom_bond_type
O32   Zn10  S    
C82   H39   S    
O16   Zn6   S    
C157  C158  T    
C36   C191  A    
C118  C186  S    
C169  O10   A    
C63   C98   S    
C93   H50   S    
C83   H40   S    
C110  C178  S    
C114  C183  S    
C180  O46   A    
C177  O47   A    
C5    C149  A    
C166  O67   A    
C178  O48   A    
C39   C74   S    
C112  C189  S    
C75   O54   D    
C141  C168  S    
O34   Zn16  S    
C4    H45   S    
C159  C161  T    
C26   C160  A    
C25   C60   A    
C185  O26   A    
C36   C71   S    
C33   C69   A    
C1    C190  A    
O1    Zn4   S    
C116  C192  A    
C29   C64   A    
C78   H36   S    
C17   C52   A    
C188  O36   A    
C177  O18   A    
C189  O37   A    
C176  O41   A    
C137  C146  T    
C67   C79   A    
O34   Zn11  S    
C84   O63   D    
O21   Zn16  S    
C74   H31   S    
C8    H64   S    
C71   H28   S    
C1    C120  S    
C142  C151  T    
C172  O8    A    
C143  C166  S    
C46   C134  S    
C76   O55   D    
C29   H21   S    
C19   H11   S    
C13   C21   A    
O42   Zn1   S    
C121  C135  T    
C17   H9    S    
O24   Zn4   S    
C125  C149  S    
C44   C112  A    
O1    Zn8   S    
O78   Zn16  S    
C79   C179  S    
C96   H53   S    
O15   Zn3   S    
C55   C117  A    
O67   Zn2   S    
O12   Zn3   S    
C170  O11   A    
C185  O32   A    
C45   C81   S    
C22   C58   A    
C6    C160  A    
O23   Zn10  S    
C144  C165  S    
C183  O35   A    
C19   C35   A    
C95   O74   D    
O43   Zn9   S    
C86   O65   D    
O19   Zn7   S    
C186  O27   A    
C29   C149  A    
C60   C95   S    
C155  C156  T    
C126  C130  T    
C57   C135  S    
C41   C76   S    
C178  O19   A    
C47   C114  A    
C98   O77   D    
C140  C169  S    
C78   O58   D    
C89   O69   D    
C105  C191  A    
O12   Zn7   S    
C101  C173  S    
C16   C51   A    
C65   C101  A    
C99   H57   S    
C128  C129  T    
O29   Zn5   S    
C115  C184  S    
C61   C96   S    
C67   C103  S    
C23   C59   A    
C111  C188  S    
C49   C84   S    
C7    C42   A    
C18   C68   A    
C124  C132  T    
O8    Zn1   S    
C122  C134  T    
C64   C99   S    
C113  C181  S    
C51   C119  A    
C2    C25   A    
C152  C161  S    
C50   C85   S    
C94   O73   D    
C41   C109  A    
C175  O40   A    
C43   C111  A    
C20   H13   S    
C71   O50   D    
C141  C150  T    
C64   C108  A    
O1    Zn1   S    
O7    Zn9   S    
C90   C180  S    
C102  H59   S    
C34   C190  A    
O28   Zn8   S    
C104  H61   S    
C151  C159  S    
C21   H14   S    
C94   H51   S    
C28   C63   A    
C27   C62   A    
C45   C113  A    
C34   C79   A    
C62   C97   S    
C92   H49   S    
C125  C131  T    
C81   O60   D    
C123  C127  S    
O26   Zn2   S    
C88   H46   S    
C10   C45   A    
C26   H18   S    
O22   Zn3   S    
C12   C35   A    
C3    H34   S    
O12   Zn13  S    
C32   C67   A    
C145  C154  T    
C19   C54   A    
C75   H32   S    
C184  O31   A    
O12   Zn9   S    
C37   C72   S    
O39   Zn1   S    
C5    H56   S    
C167  O78   A    
C187  O39   A    
O4    Zn5   S    
C36   C90   A    
C34   C70   S    
C76   H33   S    
C50   C118  A    
C70   H27   S    
C48   C83   S    
C42   C110  A    
O14   Zn4   S    
C74   O53   D    
C37   C101  A    
O1    Zn12  S    
C72   H29   S    
C148  C157  S    
C119  C187  S    
C30   C65   A    
C37   C192  A    
C128  C171  S    
C58   C114  A    
C2    C9    A    
C175  O16   A    
C20   C46   A    
C129  C182  S    
C7    C171  A    
C11   C47   A    
C8    C43   A    
C12   C48   A    
C168  O9    A    
C35   C133  S    
C14   C46   A    
C30   C116  A    
C43   C78   S    
C116  C122  S    
C123  C133  T    
C124  C138  S    
C26   C61   A    
C181  O22   A    
O10   Zn10  S    
C89   H47   S    
C137  C172  S    
C55   C91   S    
C18   C53   A    
C146  C155  S    
C99   O79   D    
C184  O25   A    
C91   H48   S    
C56   C113  A    
C59   C94   S    
C31   C127  A    
O9    Zn11  S    
C192  H23   S    
C95   H52   S    
C40   C108  A    
C100  O80   D    
C176  O17   A    
C181  O33   A    
C51   C86   S    
O37   Zn14  S    
O13   Zn12  S    
C85   H42   S    
C44   C80   S    
C33   C105  A    
C11   H4    S    
C97   H54   S    
C9    H2    S    
C33   H26   S    
C87   H44   S    
C120  C136  T    
C70   O49   D    
C30   H22   S    
C92   O71   D    
C24   C132  S    
O25   Zn16  S    
C54   C115  A    
O34   Zn15  S    
C106  C174  S    
C28   C138  A    
C18   H10   S    
C147  C156  S    
C23   C182  A    
C143  C152  T    
C77   H35   S    
C81   H38   S    
C22   C24   A    
C191  H12   S    
C93   O72   D    
C103  O82   D    
C162  C163  T    
C8    C182  A    
C150  C158  S    
C7    H63   S    
O84   Zn4   S    
C65   C100  S    
O40   Zn10  S    
C180  O21   A    
C21   C56   A    
C187  O28   A    
C126  C160  S    
C28   H20   S    
C83   O62   D    
C40   C75   S    
C153  C162  S    
C164  O45   A    
C117  C185  S    
C107  C175  S    
C179  O20   A    
C108  C176  S    
O38   Zn9   S    
C169  O6    A    
C2    C130  S    
C22   H15   S    
O36   Zn15  S    
O33   Zn13  S    
C186  O38   A    
C4    C138  A    
C109  C177  S    
O23   Zn14  S    
C96   O75   D    
C5    C40   A    
C59   C111  A    
C58   C93   S    
C87   O66   D    
C17   C57   A    
C52   C118  A    
C31   C66   A    
O46   Zn15  S    
C23   H16   S    
C66   C102  S    
C80   H37   S    
O30   Zn6   S    
C61   C109  A    
C140  C148  T    
C183  O24   A    
C102  O81   D    
O35   Zn12  S    
C174  O43   A    
C39   C107  A    
O48   Zn13  S    
C14   H6    S    
C139  C147  T    
C73   H30   S    
C164  O84   A    
O3    Zn6   S    
C103  H60   S    
O6    Zn14  S    
C179  O44   A    
C80   O59   D    
C100  H58   S    
C173  O14   A    
C3    C127  A    
C15   C50   A    
C14   C49   A    
C11   C24   A    
C165  O2    A    
C6    H62   S    
C139  C170  S    
C47   C82   S    
C144  C153  T    
O45   Zn8   S    
C104  O83   D    
C142  C167  S    
O44   Zn14  S    
O56   Zn7   S    
O5    Zn15  S    
C3    C38   A    
O23   Zn2   S    
O20   Zn2   S    
C12   H5    S    
O27   Zn7   S    
C16   C68   A    
C168  O5    A    
C88   O68   D    
C32   H25   S    
C72   O51   D    
C189  O30   A    
C173  O42   A    
C15   C57   A    
C66   C106  A    
C20   C55   A    
C82   O61   D    
C13   C131  S    
C49   C117  A    
C154  C163  S    
C68   C136  S    
C54   C89   S    
C31   H24   S    
C165  O56   A    
C6    C41   A    
C1    C32   A    
C170  O7    A    
C38   C106  A    
C60   C112  A    
C15   H7    S    
C62   C110  A    
C4    C39   A    
O47   Zn12  S    
C27   H19   S    
O23   Zn6   S    
C105  C121  S    
O2    Zn3   S    
C25   H17   S    
C42   C77   S    
C48   C115  A    
C190  H1    S    
C63   C107  A    
C69   C90   A    
C27   C171  A    
C69   C104  S    
C9    C44   A    
C52   C87   S    
C172  O13   A    
C10   C13   A    
C16   H8    S    
C53   C119  A    
C174  O15   A    
C145  C164  S    
C77   O57   D    
C86   H43   S    
O11   Zn13  S    
O18   Zn8   S    
C166  O3    A    
C84   H41   S    
O34   Zn5   S    
C98   H55   S    
C10   H3    S    
C85   O64   D    
C73   O52   D    
O41   Zn11  S    
O31   Zn11  S    
C53   C88   S    
C97   O76   D    
O17   Zn5   S    
C56   C92   S    
C188  O29   A    
C167  O4    A    
C91   O70   D    
C38   C73   S    
