data_mof_unit_10689.cif
_audit_creation_date              2012-12-10T17:19:57-0500
_audit_creation_method            fapswitch 2.2
_symmetry_space_group_name_H-M    P1
_symmetry_Int_Tables_number       1
_space_group_crystal_system       triclinic
_cell_length_a                    9.577988
_cell_length_b                    10.826678
_cell_length_c                    15.374769
_cell_angle_alpha                 88.172764
_cell_angle_beta                  74.67479
_cell_angle_gamma                 91.286425
_cell_volume                      1536.06664582

loop_
_atom_site_label
_atom_site_type_symbol
_atom_type_description
_atom_site_fract_x
_atom_site_fract_y
_atom_site_fract_z
_atom_type_partial_charge
C1    C     C_R   0.993015 0.262438 0.510857 0.798935
C2    C     C_R   0.224759 0.490942 0.036963 0.137375
C3    C     C_R   0.322812 0.522549 0.087595 0.091146
C4    C     C_R   0.918724 0.502663 0.672236 0.778965
C5    C     C_R   0.078802 0.467343 0.079269 -0.240473
C6    C     C_R   0.024573 0.468162 0.173142 0.100810
C7    C     C_R   0.269262 0.523554 0.182222 -0.295009
C8    C     C_R   0.160580 0.128593 0.618091 -0.163994
C9    C     C_R   0.258506 0.067400 0.655348 -0.159142
C10   C     C_R   0.271864 0.940682 0.647817 -0.157436
C11   C     C_R   0.186023 0.874340 0.604075 -0.169952
C12   C     C_R   0.671497 0.536559 0.903993 0.091207
C13   C     C_R   0.089478 0.935022 0.562153 0.103203
C14   C     C_R   0.079200 0.065296 0.567926 0.086339
C15   C     C_R   0.977960 0.127592 0.530790 -0.170036
C16   C     C_R   0.999346 0.737301 0.506089 0.794159
C17   C     C_R   0.864491 0.057125 0.510925 0.087352
C18   C     C_R   0.882740 0.932183 0.497854 -0.249611
C19   C     C_R   0.996247 0.870589 0.519412 -0.144231
C20   C     C_R   0.700219 0.661597 0.378637 -0.182620
C21   C     C_R   0.654739 0.743367 0.321208 -0.222866
C22   C     C_R   0.510353 0.746180 0.323003 -0.226480
C23   C     C_R   0.768356 0.587196 0.949703 0.168678
C24   C     C_R   0.410898 0.666121 0.381366 -0.154565
C25   C     C_R   0.452434 0.580372 0.440812 0.215488
C26   C     C_R   0.602394 0.579272 0.440161 0.205771
C27   C     C_R   0.547133 0.427721 0.558890 -0.067752
C28   C     C_R   0.080561 0.497766 0.327013 0.792448
C29   C     C_R   0.399385 0.427742 0.558805 -0.083670
C30   C     C_R   0.874032 0.520426 0.769910 -0.046206
C31   C     C_R   0.122322 0.496563 0.226503 -0.088886
C32   C     C_R   0.916127 0.604635 0.905101 -0.217371
C33   C     C_R   0.968529 0.572530 0.815321 -0.206233
C34   C     C_R   0.520994 0.525595 0.947897 0.070864
C35   C     C_R   0.728551 0.498259 0.815549 -0.246084
C36   C     C_3   0.712255 0.101639 0.519589 -0.363108
C37   C     C_3   0.680099 0.124268 0.427872 -0.347023
C38   C     C_3   0.517036 0.118830 0.437552 -0.815671
C39   C     C_3   0.863365 0.435829 0.207736 -0.405357
C40   C     C_3   0.830592 0.298553 0.197346 -0.350984
C41   C     C_3   0.668244 0.274150 0.212176 -0.853885
C42   C     C_R   0.471563 0.548015 0.041717 0.071234
C43   C     C_R   0.571652 0.598293 0.085222 -0.239596
C44   C     C_R   0.716351 0.620873 0.038941 -0.248663
C45   C     C_R   0.417964 0.497188 0.900023 -0.226960
C46   C     C_R   0.272563 0.481747 0.943830 -0.237250
Cu1   Cu    Cu3+1 0.140660 0.499990 0.500010 0.915993
Cu2   Cu    Cu3+1 0.859340 0.500010 0.499990 0.914521
H1    H     H_    0.788660 0.663414 0.073722 0.141899
H2    H     H_    0.732325 0.805427 0.275228 0.147069
H3    H     H_    0.342168 0.541382 0.223286 0.163482
H4    H     H_    0.474893 0.810568 0.278477 0.150919
H5    H     H_    0.303208 0.676562 0.376894 0.199418
H6    H     H_    0.322494 0.369677 0.607775 0.123530
H7    H     H_    0.197231 0.459735 0.904471 0.146519
H8    H     H_    0.990584 0.645215 0.939185 0.142291
H9    H     H_    0.081495 0.591451 0.780891 0.149984
H10   H     H_    0.661742 0.450269 0.780230 0.139249
H11   H     H_    0.540102 0.625993 0.154148 0.157985
H12   H     H_    0.005692 0.445278 0.038348 0.147321
H13   H     H_    0.445459 0.490591 0.827710 0.140286
H14   H     H_    0.470214 0.026327 0.464865 0.266945
H15   H     H_    0.462640 0.190658 0.483273 0.263922
H16   H     H_    0.495271 0.134334 0.370847 0.240992
H17   H     H_    0.725160 0.216658 0.399430 0.245597
H18   H     H_    0.731147 0.053314 0.379864 0.214620
H19   H     H_    0.634838 0.029233 0.559311 0.191669
H20   H     H_    0.687832 0.183378 0.561557 0.195272
H21   H     H_    0.607270 0.309219 0.278065 0.261486
H22   H     H_    0.630601 0.321279 0.157613 0.265341
H23   H     H_    0.142436 0.224042 0.634231 0.138512
H24   H     H_    0.645555 0.173270 0.211187 0.241542
H25   H     H_    0.886651 0.268806 0.128753 0.224673
H26   H     H_    0.870178 0.242086 0.246975 0.213445
H27   H     H_    0.811597 0.459382 0.277252 0.231384
H28   H     H_    0.805911 0.492201 0.167646 0.202649
H29   H     H_    0.320620 0.117890 0.692855 0.125961
H30   H     H_    0.345035 0.892684 0.679161 0.136916
H31   H     H_    0.193323 0.775500 0.608486 0.170963
H32   H     H_    0.800964 0.881325 0.475112 0.178542
H33   H     H_    0.579863 0.369505 0.607916 0.120214
H34   H     H_    0.813240 0.667555 0.371823 0.200621
N1    N     N_R   0.648320 0.501210 0.499140 -0.196607
N2    N     N_R   0.352470 0.501290 0.499110 -0.197171
O1    O     O_R   0.118810 0.319640 0.500010 -0.571126
O2    O     O_R   0.881240 0.319660 0.500000 -0.582140
O3    O     O_R   0.055570 0.499980 0.629840 -0.596889
O4    O     O_R   0.818000 0.500010 0.629830 -0.579853
O5    O     O_R   0.118760 0.680340 0.500000 -0.613043
O6    O     O_R   0.881190 0.680360 0.499990 -0.591560
O7    O     O_R   0.182000 0.499990 0.370170 -0.586750
O8    O     O_R   0.944430 0.500020 0.370160 -0.609449

loop_
_geom_bond_atom_site_label_1
_geom_bond_atom_site_label_2
_ccdc_geom_bond_type
C44   H1    S    
C3    C42   A    
C16   O6    A    
C26   N1    A    
C20   H34   S    
C27   C29   A    
C34   C42   A    
C10   H30   S    
C36   H19   S    
C4    O3    A    
C45   C46   A    
C2    C46   A    
C12   C23   A    
C30   C35   A    
C35   H10   S    
Cu1   O1    S    
C41   H21   S    
C36   C37   S    
C3    C7    A    
C5    C6    A    
C29   H6    S    
C40   H25   S    
C18   C19   A    
C8    C9    A    
C37   H17   S    
C46   H7    S    
C25   N2    A    
C33   H9    S    
Cu2   O4    S    
C1    C15   S    
C17   C36   S    
C39   H27   S    
C9    C10   A    
C5    H12   S    
C43   H11   S    
C6    C31   A    
C16   O5    A    
Cu2   O6    S    
C21   C22   A    
Cu1   O5    S    
C21   H2    S    
C38   H16   S    
C1    O1    A    
C7    C31   A    
C13   C19   A    
C27   H33   S    
C24   C25   A    
C29   N2    A    
C39   C40   S    
C24   H5    S    
Cu1   N2    S    
C23   C44   A    
Cu1   O3    S    
C43   C44   A    
C37   C38   S    
Cu1   Cu2   S    
C37   H18   S    
C17   C18   A    
C28   O8    A    
C34   C45   A    
C9    H29   S    
C39   H28   S    
C12   C35   A    
C11   H31   S    
C41   H24   S    
C40   C41   S    
Cu2   O2    S    
C2    C5    A    
C42   C43   A    
C12   C34   A    
C22   H4    S    
C38   H15   S    
C1    O2    A    
C15   C17   A    
C8    H23   S    
C8    C14   A    
C30   C33   A    
C6    C39   S    
Cu1   O7    S    
C28   C31   S    
C36   H20   S    
C4    O4    A    
Cu2   N1    S    
C23   C32   A    
C27   N1    A    
C2    C3    A    
C25   C26   A    
C7    H3    S    
C32   C33   A    
C11   C13   A    
C20   C26   A    
C16   C19   S    
C45   H13   S    
C40   H26   S    
C28   O7    A    
C22   C24   A    
C10   C11   A    
C20   C21   A    
C18   H32   S    
Cu2   O8    S    
C14   C15   A    
C13   C14   A    
C32   H8    S    
C4    C30   S    
C41   H22   S    
C38   H14   S    
