data_mof_unit_59372.cif
_audit_creation_date              2012-12-10T17:28:32-0500
_audit_creation_method            fapswitch 2.2
_symmetry_space_group_name_H-M    P1
_symmetry_Int_Tables_number       1
_space_group_crystal_system       triclinic
_cell_length_a                    10.518231
_cell_length_b                    12.074386
_cell_length_c                    12.960347
_cell_angle_alpha                 92.616362
_cell_angle_beta                  89.2443
_cell_angle_gamma                 86.051473
_cell_volume                      1640.14030505

loop_
_atom_site_label
_atom_site_type_symbol
_atom_type_description
_atom_site_fract_x
_atom_site_fract_y
_atom_site_fract_z
_atom_type_partial_charge
C1    C     C_R   0.489223 0.521030 0.700488 0.929572
C2    C     C_R   0.499467 0.564753 0.130505 0.143471
C3    C     C_R   0.526030 0.451230 0.974083 -0.057569
C4    C     C_R   0.476169 0.549719 0.026213 -0.054208
C5    C     C_R   0.390061 0.951147 0.396280 0.447773
C6    C     C_R   0.608479 0.048898 0.604520 0.453999
C7    C     C_R   0.396562 0.836937 0.411932 -0.040146
C8    C     C_R   0.602661 0.163030 0.588611 -0.087434
C9    C     C_R   0.550865 0.857733 0.542650 0.353658
C10   C     C_R   0.449172 0.142364 0.457196 0.345568
C11   C     C_R   0.540297 0.976265 0.537871 -0.135134
C12   C     C_R   0.511401 0.479091 0.299595 0.951673
C13   C     C_R   0.458956 0.023829 0.462406 -0.135482
C14   C     C_R   0.740595 0.496767 0.484552 0.940950
C15   C     C_R   0.259575 0.503057 0.515657 0.923875
C16   C     C_R   0.914782 0.283237 0.483229 0.433113
C17   C     C_R   0.085182 0.716314 0.521175 0.441025
C18   C     C_R   0.969974 0.198039 0.543081 0.206911
C19   C     C_R   0.032095 0.800995 0.461653 0.322323
C20   C     C_R   0.071751 0.221211 0.609386 0.254270
C21   C     C_R   0.931343 0.778814 0.393892 0.197461
C22   C     C_R   0.115706 0.328908 0.614696 0.411508
C23   C     C_R   0.530111 0.469798 0.187777 -0.219693
C24   C     C_R   0.886439 0.671221 0.387703 0.424159
C25   C     C_R   0.064017 0.410620 0.550071 -0.112146
C26   C     C_R   0.936811 0.588809 0.452419 -0.105575
C27   C     C_R   0.951585 0.393579 0.498095 -0.135348
C28   C     C_R   0.048368 0.605676 0.505581 -0.242081
C29   C     C_R   0.121742 0.510467 0.536963 -0.054128
C30   C     C_R   0.878806 0.488736 0.464784 0.021577
C31   C     C_R   0.471772 0.530887 0.812417 -0.218177
C32   C     C_R   0.408017 0.632125 0.972039 0.181891
C33   C     C_R   0.595240 0.369257 0.028097 0.176137
C34   C     C_R   0.421908 0.630658 0.864745 0.115753
C35   C     C_R   0.582223 0.370904 0.135513 0.140168
C36   C     C_R   0.502142 0.435986 0.869896 0.147097
H1    H     H_    0.657388 0.218168 0.635661 0.159487
H2    H     H_    0.072486 0.940333 0.404233 0.364954
H3    H     H_    0.201173 0.308225 0.743948 0.398986
H4    H     H_    0.801033 0.693989 0.258642 0.400455
H5    H     H_    0.341554 0.781738 0.365187 0.151091
H6    H     H_    0.874027 0.933130 0.376106 0.378065
H7    H     H_    0.130724 0.067330 0.627332 0.396856
H8    H     H_    0.281842 0.927576 0.276221 0.352181
H9    H     H_    0.714309 0.072491 0.725990 0.354459
H10   H     H_    0.817990 0.179707 0.400685 0.385329
H11   H     H_    0.174578 0.686033 0.647224 0.342174
H12   H     H_    0.930200 0.061119 0.605828 0.385018
I1    I     I_    0.547114 0.729841 0.180006 -0.207595
I2    I     I_    0.455008 0.270613 0.820982 -0.202406
I3    I     I_    0.648262 0.223849 0.210258 -0.121240
I4    I     I_    0.362870 0.780716 0.791363 -0.111510
I5    I     I_    0.255496 0.735105 0.046839 -0.203645
I6    I     I_    0.747696 0.266900 0.952441 -0.199299
I7    I     I_    0.311471 0.221548 0.357708 -0.140465
I8    I     I_    0.690780 0.778912 0.640526 -0.150161
N1    N     N_R   0.523130 0.207800 0.519340 -0.148102
N2    N     N_R   0.476870 0.792200 0.480660 -0.144012
O1    O     O_R   0.506170 0.421700 0.658830 -0.591360
O2    O     O_3   0.134896 0.140113 0.665081 -0.717553
O3    O     O_3   0.321454 0.989564 0.313674 -0.707038
O4    O     O_3   0.674911 0.010560 0.688273 -0.701151
O5    O     O_3   0.829717 0.260380 0.406136 -0.701480
O6    O     O_3   0.168702 0.745672 0.597100 -0.664260
O7    O     O_3   0.918559 0.095765 0.538512 -0.772279
O8    O     O_3   0.083589 0.903010 0.470265 -0.707651
O9    O     O_3   0.204753 0.358589 0.686039 -0.734049
O10   O     O_3   0.797874 0.642402 0.315612 -0.725951
O11   O     O_R   0.493830 0.578300 0.341170 -0.594953
O12   O     O_R   0.491330 0.609310 0.646410 -0.591746
O13   O     O_R   0.508670 0.390690 0.353590 -0.585157
O14   O     O_R   0.690650 0.406190 0.506220 -0.600719
O15   O     O_R   0.309350 0.593810 0.493780 -0.617815
O16   O     O_R   0.675800 0.593810 0.493800 -0.585234
O17   O     O_R   0.324200 0.406190 0.506200 -0.571110
O18   O     O_3   0.869828 0.860582 0.337971 -0.726708
Zn1   Zn    Zn3+2 0.509910 0.374730 0.508290 1.045480
Zn2   Zn    Zn3+2 0.490090 0.625270 0.491710 1.043309

loop_
_geom_bond_atom_site_label_1
_geom_bond_atom_site_label_2
_ccdc_geom_bond_type
C15   O17   A    
C12   O11   A    
O12   Zn2   S    
H6    O18   S    
O1    Zn1   S    
C18   O7    S    
C21   O18   S    
C14   O16   A    
C28   C29   A    
C19   C21   A    
C24   C26   A    
C1    O1    A    
C17   O6    S    
C3    C33   A    
H9    O4    S    
C1    C31   S    
C19   O8    S    
C9    N2    A    
C17   C19   A    
H2    O8    S    
C22   C25   A    
O15   Zn2   S    
C16   O5    S    
H12   O7    S    
C20   O2    S    
C7    N2    A    
C5    C13   A    
C16   C27   A    
C27   C30   A    
O11   Zn2   S    
H3    O9    S    
C14   C30   S    
C26   C28   A    
C15   C29   S    
C25   C29   A    
H4    O10   S    
N1    Zn1   S    
C10   N1    A    
C6    C11   A    
C5    C7    A    
C24   O10   S    
C6    C8    A    
C32   C34   A    
C2    C4    A    
O14   Zn1   S    
C2    I1    S    
C8    N1    A    
O17   Zn1   S    
C12   C23   S    
C31   C34   A    
C5    O3    S    
C9    I8    S    
C10   I7    S    
C9    C11   A    
C4    C32   A    
H7    O2    S    
C15   O15   A    
C12   O13   A    
C20   C22   A    
C26   C30   A    
C23   C35   A    
C35   I3    S    
C8    H1    S    
C3    C4    A    
C32   I5    S    
O13   Zn1   S    
C36   I2    S    
C33   I6    S    
C17   C28   A    
C14   O14   A    
C10   C13   A    
H11   O6    S    
H8    O3    S    
C25   C27   A    
C34   I4    S    
C1    O12   A    
H10   O5    S    
C6    O4    S    
C11   C13   A    
C3    C36   A    
C33   C35   A    
C18   C20   A    
C7    H5    S    
C22   O9    S    
N2    Zn2   S    
C16   C18   A    
O16   Zn2   S    
C21   C24   A    
C2    C23   A    
C31   C36   A    
