data_mof_unit_6476.cif
_audit_creation_date              2012-12-11T16:09:33-0500
_audit_creation_method            fapswitch 2.2
_symmetry_space_group_name_H-M    P1
_symmetry_Int_Tables_number       1
_space_group_crystal_system       triclinic
_cell_length_a                    6.973626
_cell_length_b                    21.344359
_cell_length_c                    23.655567
_cell_angle_alpha                 90.058177
_cell_angle_beta                  91.095625
_cell_angle_gamma                 89.53627
_cell_volume                      3520.31347821

loop_
_atom_site_label
_atom_site_type_symbol
_atom_type_description
_atom_site_fract_x
_atom_site_fract_y
_atom_site_fract_z
_atom_type_partial_charge
O1    O     O_R   0.494270 0.443530 0.442350 -0.538815
O2    O     O_R   0.824060 0.436290 0.557250 -0.543828
O3    O     O_R   0.994370 0.556470 0.557650 -0.535095
C1    C     C_R   0.657535 0.421223 0.576668 0.721905
O4    O     O_R   0.823990 0.436120 0.442760 -0.534402
O5    O     O_R   0.994300 0.556300 0.442340 -0.531207
C2    C     C_R   0.654575 0.421009 0.423436 0.729788
O6    O     O_R   0.494350 0.443700 0.557660 -0.533864
O7    O     O_3   0.660800 0.539430 0.500000 -0.362447
V1    V     V_3+5 0.935650 0.492690 0.500000 1.508903
O8    O     O_R   0.324020 0.563710 0.442750 -0.533375
C3    C     C_R   0.153582 0.578736 0.423467 0.729565
O9    O     O_R   0.324090 0.563880 0.557240 -0.532355
C4    C     C_R   0.156265 0.578927 0.576626 0.721286
V2    V     V_3+5 0.435660 0.507310 0.500000 1.524301
O10   O     O_3   0.160640 0.460570 0.500000 -0.373283
C5    C     C_3   0.037917 0.720384 0.794459 -0.051865
C6    C     C_3   0.229101 0.701975 0.766095 -0.222270
H1    H     H_    0.326918 0.663383 0.779806 0.142949
C7    C     C_1   0.149288 0.624552 0.622082 -0.119370
C8    C     C_1   0.070347 0.874485 0.877292 -0.128563
C9    C     C_3   0.938967 0.726217 0.735816 -0.032133
C10   C     C_3   0.128480 0.708434 0.707275 0.098725
C11   C     C_3   0.990632 0.796818 0.733466 -0.223288
C12   C     C_3   0.091252 0.790367 0.792287 0.099496
C13   C     C_3   0.181817 0.778414 0.705110 -0.057427
C14   C     C_3   0.280765 0.772577 0.763749 -0.030870
C15   C     C_1   0.141952 0.662407 0.660388 0.090211
C16   C     C_1   0.077743 0.836499 0.839092 0.086016
H2    H     H_    0.892811 0.835406 0.719750 0.142189
C17   C     C_3   0.297273 0.793486 0.240447 -0.187869
C18   C     C_3   0.936509 0.799096 0.246054 -0.368198
C19   C     C_3   0.926559 0.745365 0.290428 -0.148074
H3    H     H_    0.279978 0.778518 0.332722 0.227805
H4    H     H_    0.796856 0.803476 0.222932 0.155546
H5    H     H_    0.954669 0.845072 0.267410 0.222028
H6    H     H_    0.804461 0.715208 0.277558 0.182001
C20   C     C_1   0.139957 0.623586 0.377594 -0.087792
C21   C     C_3   0.105295 0.787947 0.204450 0.167752
C22   C     C_3   0.288978 0.750334 0.293415 -0.443957
C23   C     C_3   0.115244 0.704563 0.289374 0.101491
C24   C     C_3   0.122155 0.668034 0.230381 -0.157531
C25   C     C_3   0.091907 0.718454 0.179049 -0.185234
C26   C     C_1   0.128140 0.660292 0.338462 0.064360
C27   C     C_1   0.091871 0.836040 0.158364 0.052526
C28   C     C_1   0.079650 0.874607 0.120726 -0.112625
H7    H     H_    0.417849 0.776518 0.214564 0.149349
H8    H     H_    0.426754 0.724209 0.298426 0.164956
C29   C     C_3   0.444069 0.251295 0.698086 -0.154775
C30   C     C_3   0.800576 0.244872 0.712940 -0.207958
C31   C     C_3   0.758618 0.193852 0.757934 -0.333342
H9    H     H_    0.477048 0.217487 0.663788 0.169957
H10   H     H_    0.928889 0.270361 0.727673 0.206436
H11   H     H_    0.732947 0.147717 0.737463 0.207338
H12   H     H_    0.889376 0.186100 0.784477 0.174949
C32   C     C_1   0.563905 0.124469 0.877705 -0.110006
C33   C     C_3   0.628263 0.292140 0.708312 0.032379
C34   C     C_3   0.398762 0.212580 0.752913 -0.249820
C35   C     C_3   0.580877 0.211338 0.794112 0.144019
C36   C     C_3   0.606662 0.280183 0.819023 -0.136273
C37   C     C_3   0.610099 0.327701 0.766715 -0.264330
C38   C     C_1   0.566419 0.163335 0.840154 0.063318
C39   C     C_1   0.649318 0.338057 0.660684 -0.023671
C40   C     C_1   0.654803 0.375725 0.622223 -0.133270
H13   H     H_    0.468477 0.351400 0.763992 0.165304
H14   H     H_    0.279047 0.236401 0.774884 0.118554
C41   C     C_3   0.458050 0.306332 0.253309 -0.359857
C42   C     C_3   0.808953 0.287069 0.260251 -0.362009
C43   C     C_3   0.786091 0.245084 0.206130 -0.164041
H15   H     H_    0.500315 0.350803 0.232745 0.224171
H16   H     H_    0.932095 0.269562 0.285973 0.239104
H17   H     H_    0.847840 0.336023 0.249731 0.185861
H18   H     H_    0.910522 0.212369 0.205710 0.139287
C44   C     C_1   0.575043 0.123503 0.121484 -0.050055
C45   C     C_3   0.622821 0.287151 0.295557 0.128387
C46   C     C_3   0.419978 0.253695 0.208623 -0.175637
C47   C     C_3   0.594839 0.206054 0.208926 -0.021711
C48   C     C_3   0.594180 0.168421 0.267586 -0.184239
C49   C     C_3   0.589204 0.218491 0.320085 -0.156438
C50   C     C_1   0.583539 0.160848 0.160239 0.010897
C51   C     C_1   0.634924 0.335660 0.341240 0.029254
C52   C     C_1   0.643855 0.374659 0.378639 -0.111798
H19   H     H_    0.323484 0.318215 0.275456 0.173384
H20   H     H_    0.290188 0.228631 0.222232 0.130519
O11   O     O_R   0.724990 0.055630 0.941600 -0.535337
O12   O     O_R   0.395220 0.063160 0.056480 -0.532706
O13   O     O_R   0.225040 0.942970 0.056870 -0.533036
C53   C     C_R   0.564592 0.078254 0.075822 0.737750
O14   O     O_R   0.395270 0.063000 0.941990 -0.537357
O15   O     O_R   0.225080 0.942800 0.941570 -0.538057
C54   C     C_R   0.561760 0.078159 0.922625 0.719629
O16   O     O_R   0.724940 0.055790 0.056910 -0.533458
O17   O     O_3   0.558580 0.959880 0.999250 -0.369192
V3    V     V_3+5 0.283680 0.006590 0.999220 1.526645
O18   O     O_R   0.895380 0.935350 0.941950 -0.535363
C55   C     C_R   0.063251 0.920261 0.922627 0.708382
O19   O     O_R   0.895330 0.935520 0.056440 -0.539134
C56   C     C_R   0.065765 0.920569 0.075775 0.729293
V4    V     V_3+5 0.783690 0.991900 0.999180 1.517199
O20   O     O_3   0.058660 0.038680 0.999200 -0.362917
C57   C     C_2   0.877315 0.770673 0.348444 0.754648
O21   O     O_2   0.739272 0.749712 0.373102 -0.552652
O22   O     O_R   0.986443 0.818203 0.373538 -0.646354
H21   H     H_    0.937789 0.830824 0.412054 0.328536
C58   C     C_2   0.238389 0.706107 0.132295 0.683867
O23   O     O_2   0.351812 0.746125 0.117691 -0.540812
O24   O     O_R   0.238458 0.647856 0.105030 -0.649771
H22   H     H_    0.339799 0.644586 0.074981 0.332425
C59   C     C_2   0.898135 0.712922 0.147190 0.341150
H23   H     H_    0.890318 0.720157 0.101705 0.104653
O25   O     O_2   0.747969 0.704022 0.171442 -0.543066
C60   C     C_2   0.318698 0.634780 0.227934 0.393965
H24   H     H_    0.446487 0.661511 0.219822 0.129238
O26   O     O_2   0.337408 0.578420 0.235848 -0.499092
C61   C     C_2   0.973132 0.615531 0.225497 0.553523
H25   H     H_    0.965489 0.588120 0.186824 0.102760
O27   O     O_2   0.863877 0.602833 0.263492 -0.527643
C62   C     C_2   0.323655 0.147870 0.738845 0.447802
H26   H     H_    0.195780 0.131258 0.759299 0.056908
O28   O     O_2   0.406670 0.113140 0.706180 -0.508770
C63   C     C_2   0.956351 0.685924 0.843468 0.461102
H27   H     H_    0.925017 0.636419 0.839461 0.030249
O29   O     O_2   0.924703 0.713024 0.887790 -0.489017
C64   C     C_2   0.849791 0.214422 0.657036 0.432817
H28   H     H_    0.779101 0.229055 0.617926 0.075971
O30   O     O_2   0.972925 0.173532 0.655079 -0.496014
C65   C     C_2   0.749199 0.382092 0.773784 0.746965
O31   O     O_2   0.686739 0.435759 0.775999 -0.556402
O32   O     O_R   0.946757 0.371424 0.777995 -0.651844
H29   H     H_    0.022143 0.411536 0.782966 0.314360
C66   C     C_2   0.437770 0.296905 0.856745 0.328481
H30   H     H_    0.330223 0.331210 0.843613 0.097384
O33   O     O_2   0.417574 0.271063 0.902308 -0.492583
C67   C     C_2   0.275570 0.289000 0.674578 0.763091
O34   O     O_2   0.205842 0.331806 0.701737 -0.565573
O35   O     O_R   0.210608 0.277819 0.619227 -0.637342
H31   H     H_    0.103998 0.307704 0.606943 0.293590
C68   C     C_2   0.471656 0.799427 0.779975 0.375899
H32   H     H_    0.545033 0.829827 0.750925 0.032933
O36   O     O_2   0.543719 0.788078 0.826275 -0.504569
C69   C     C_2   0.784618 0.286867 0.857633 0.509682
H33   H     H_    0.816734 0.332273 0.876092 0.062564
O37   O     O_2   0.887145 0.242539 0.871160 -0.525540
C70   C     C_2   0.362178 0.279492 0.150653 0.810216
O38   O     O_2   0.297074 0.244000 0.114627 -0.542485
O39   O     O_R   0.374094 0.343509 0.138705 -0.628961
H34   H     H_    0.328504 0.354077 0.098866 0.329561
C71   C     C_2   0.804178 0.281481 0.151168 0.821583
O40   O     O_2   0.794771 0.338729 0.150315 -0.528724
O41   O     O_R   0.834878 0.248654 0.100929 -0.641941
H35   H     H_    0.845250 0.277349 0.067018 0.327573
C72   C     C_2   0.397690 0.219138 0.352135 0.782833
O42   O     O_2   0.244800 0.224407 0.326558 -0.547047
O43   O     O_R   0.396146 0.214490 0.411269 -0.649154
H36   H     H_    0.261815 0.215802 0.426917 0.343436
C73   C     C_2   0.738913 0.200432 0.365742 0.505563
H37   H     H_    0.734408 0.153759 0.383926 0.099088
O44   O     O_2   0.860862 0.236607 0.383453 -0.515426
C74   C     C_2   0.420937 0.124895 0.269343 0.456603
H38   H     H_    0.318393 0.122748 0.234340 0.055932
O45   O     O_2   0.399469 0.089927 0.309609 -0.499188
C75   C     C_2   0.263432 0.812879 0.656112 0.470600
H39   H     H_    0.294670 0.862390 0.660117 0.033363
O46   O     O_2   0.295246 0.785776 0.611803 -0.484082
C76   C     C_2   0.769850 0.123361 0.268740 0.760712
O47   O     O_2   0.754423 0.069578 0.251016 -0.528594
O48   O     O_R   0.949894 0.143318 0.287612 -0.653873
H40   H     H_    0.044228 0.107237 0.290555 0.340906
C77   C     C_2   0.748101 0.699339 0.719601 0.382111
H41   H     H_    0.674827 0.668903 0.748644 0.037329
O49   O     O_2   0.675962 0.710694 0.673313 -0.503180
C78   C     C_2   0.355560 0.859065 0.258429 0.455998
H42   H     H_    0.493303 0.865312 0.279769 0.069825
O50   O     O_2   0.253549 0.904937 0.249773 -0.501731

loop_
_geom_bond_atom_site_label_1
_geom_bond_atom_site_label_2
_ccdc_geom_bond_type
C29   C67   S    
C41   H19   S    
O17   V3    S    
C23   C24   S    
C43   C47   S    
O18   C55   A    
C1    O6    A    
C46   H20   S    
C60   O26   D    
O19   C56   A    
O11   C54   A    
C47   C48   S    
C42   C45   S    
C58   O24   S    
C13   C14   S    
C76   O47   D    
H3    C22   S    
C18   H5    S    
C73   H37   S    
C11   C13   S    
C75   H39   S    
C69   O37   D    
C25   C58   S    
O12   C53   A    
C18   C21   S    
C17   C78   S    
V2    O10   S    
O13   V3    S    
C34   C62   S    
C29   C33   S    
C17   C22   S    
C6    H1    S    
C77   H41   S    
C10   C13   S    
O14   V3    S    
C24   C60   S    
C62   H26   S    
O12   V3    S    
C35   C38   S    
C49   C73   S    
O8    V2    S    
C34   H14   S    
C32   C54   S    
C53   O16   A    
C42   C43   S    
C61   O27   D    
O24   H22   S    
C74   O45   D    
C43   H18   S    
O1    V2    S    
O14   C54   A    
O7    V1    S    
O17   V4    S    
C31   H12   S    
C21   C27   S    
O13   C56   A    
C28   C56   S    
C35   C36   S    
C76   O48   S    
C17   H7    S    
O9    C4    A    
C3    C20   S    
C77   O49   D    
C36   C66   S    
C60   H24   S    
O19   V4    S    
C78   O50   D    
O15   V3    S    
C75   O46   D    
C12   C16   S    
C14   C68   S    
C6    C14   S    
C6    C10   S    
C30   H10   S    
C57   O21   D    
C4    C7    S    
C30   C64   S    
C46   C47   S    
C70   O39   S    
O48   H40   S    
O4    C2    A    
C48   C49   S    
C45   C51   S    
C67   O35   S    
C7    C15   T    
C30   C31   S    
C34   C35   S    
C27   C28   T    
C8    C16   T    
C13   C75   S    
C51   C52   T    
C29   C34   S    
C36   C37   S    
O2    C1    A    
C65   O32   S    
C20   C26   T    
O11   V4    S    
C36   C69   S    
C48   C74   S    
C74   H38   S    
V3    O20   S    
C42   H17   S    
C29   H9    S    
C5    C6    S    
C63   H27   S    
C37   C65   S    
C10   C15   S    
C11   C12   S    
C33   C37   S    
O43   H36   S    
C32   C38   T    
O3    C4    A    
C68   O36   D    
C46   C70   S    
C5    C63   S    
C22   C23   S    
C72   O43   S    
O6    V2    S    
O9    V2    S    
C23   C26   S    
C9    C11   S    
C11   H2    S    
C31   C35   S    
C24   C25   S    
C65   O31   D    
O2    V1    S    
C78   H42   S    
C64   O30   D    
O39   H34   S    
C47   C50   S    
C22   H8    S    
C48   C76   S    
O1    C2    A    
C30   C33   S    
C18   H4    S    
C33   C39   S    
C71   O41   S    
O35   H31   S    
C66   O33   D    
O5    V1    S    
C21   C25   S    
O8    C3    A    
O15   C55   A    
C67   O34   D    
C8    C55   S    
C12   C14   S    
C58   O23   D    
C1    C40   S    
C5    C9    S    
O41   H35   S    
V4    O20   S    
C70   O38   D    
C41   H15   S    
C5    C12   S    
C18   C19   S    
C31   H11   S    
C19   C57   S    
C59   O25   D    
O32   H29   S    
C19   C23   S    
O4    V1    S    
O3    V1    S    
V1    O10   S    
C59   H23   S    
O5    C3    A    
C42   H16   S    
C73   O44   D    
C17   C21   S    
C19   H6    S    
O18   V4    S    
C71   O40   D    
O7    V2    S    
C66   H30   S    
C62   O28   D    
C63   O29   D    
C9    C77   S    
C68   H32   S    
C39   C40   T    
C37   H13   S    
C24   C61   S    
C2    C52   S    
C41   C45   S    
C72   O42   D    
C57   O22   S    
O22   H21   S    
C43   C71   S    
C9    C10   S    
C49   C72   S    
C44   C50   T    
C41   C46   S    
C25   C59   S    
C44   C53   S    
C69   H33   S    
C45   C49   S    
C61   H25   S    
O16   V4    S    
C64   H28   S    
