data_mof_unit_21471.cif
_audit_creation_date              2012-12-10T17:43:36-0500
_audit_creation_method            fapswitch 2.2
_symmetry_space_group_name_H-M    P1
_symmetry_Int_Tables_number       1
_space_group_crystal_system       triclinic
_cell_length_a                    15.016972
_cell_length_b                    10.687531
_cell_length_c                    9.933851
_cell_angle_alpha                 89.588763
_cell_angle_beta                  89.65603
_cell_angle_gamma                 94.095052
_cell_volume                      1590.18171147

loop_
_atom_site_label
_atom_site_type_symbol
_atom_type_description
_atom_site_fract_x
_atom_site_fract_y
_atom_site_fract_z
_atom_type_partial_charge
C1    C     C_R   0.506426 0.260387 0.501261 0.983039
C2    C     C_R   0.908917 0.524289 0.378942 0.084515
C3    C     C_R   0.952933 0.463411 0.741958 -0.149618
C4    C     C_R   0.045254 0.465513 0.741039 -0.256614
C5    C     C_R   0.092426 0.487393 0.620592 0.154072
C6    C     C_R   0.047351 0.507133 0.498549 0.067590
C7    C     C_R   0.095037 0.527040 0.375729 0.063759
C8    C     C_R   0.048773 0.547976 0.254257 0.163765
C9    C     C_R   0.955634 0.545897 0.258058 -0.220796
C10   C     C_R   0.184261 0.488282 0.620550 -0.292693
C11   C     C_R   0.231332 0.504098 0.499871 -0.060450
C12   C     C_R   0.326901 0.500704 0.500193 0.913653
C13   C     C_R   0.187461 0.523153 0.378463 -0.206132
C14   C     C_R   0.536771 0.108993 0.754816 0.505321
C15   C     C_R   0.508859 0.048905 0.874871 0.473871
C16   C     C_R   0.456327 0.936315 0.870787 0.445572
C17   C     C_R   0.440749 0.877012 0.748006 -0.346304
C18   C     C_R   0.473665 0.933621 0.626708 -0.110752
C19   C     C_R   0.508205 0.058448 0.628816 -0.153384
C20   C     C_R   0.509821 0.126106 0.504876 -0.167748
C21   C     C_R   0.494456 0.063897 0.382807 -0.217504
C22   C     C_R   0.478334 0.936433 0.381322 0.627213
C23   C     C_R   0.489202 0.737929 0.500241 0.879716
C24   C     C_R   0.474334 0.869741 0.502700 -0.182104
C25   C     C_R   0.370215 0.337971 0.135070 0.533486
C26   C     C_R   0.304687 0.270344 0.061293 0.571641
C27   C     C_R   0.305713 0.274537 0.921954 -0.144284
C28   C     C_R   0.374642 0.345070 0.856986 -0.284046
C29   C     C_R   0.437528 0.423194 0.927449 0.114426
C30   C     C_R   0.436781 0.421719 0.071996 -0.056511
C31   C     C_R   0.560253 0.575078 0.068276 0.184732
C32   C     C_R   0.560590 0.571392 0.925522 -0.004727
C33   C     C_R   0.673331 0.499698 0.500038 0.919796
C34   C     C_R   0.816651 0.521319 0.380443 -0.322363
C35   C     C_R   0.769548 0.499711 0.501008 -0.200050
C36   C     C_R   0.814667 0.479681 0.621943 0.584295
C37   C     C_R   0.907146 0.482910 0.621978 -0.006635
C38   C     C_R   0.954523 0.505225 0.499793 -0.023143
H1    H     H_    0.781639 0.536284 0.287438 0.184897
H2    H     H_    0.400512 0.788850 0.748164 0.223251
H3    H     H_    0.377884 0.335056 0.750895 0.240720
H4    H     H_    0.610285 0.627251 0.867821 0.143868
H5    H     H_    0.917682 0.446010 0.836481 0.198686
H6    H     H_    0.079902 0.448522 0.834006 0.141710
H7    H     H_    0.218866 0.474697 0.714472 0.164712
H8    H     H_    0.226251 0.535008 0.286786 0.170282
H9    H     H_    0.919185 0.561267 0.166131 0.149553
H10   H     H_    0.493843 0.113618 0.287395 0.251344
N1    N     N_R   0.499150 0.498800 0.142780 -0.099338
N2    N     N_R   0.499120 0.498720 0.857170 -0.098807
O1    O     O_R   0.500000 0.316780 0.614690 -0.592880
O2    O     O_R   0.499990 0.316750 0.385360 -0.555764
O3    O     O_R   0.367850 0.499980 0.614680 -0.678769
O4    O     O_R   0.367840 0.499960 0.385350 -0.558534
O5    O     O_R   0.500010 0.683250 0.614640 -0.640774
O6    O     O_R   0.500000 0.683220 0.385310 -0.584390
O7    O     O_R   0.632160 0.500040 0.614650 -0.528478
O8    O     O_R   0.632150 0.500020 0.385320 -0.671392
Zn1   Zn    Zn3+2 0.500010 0.500020 0.653130 1.004677
Zn2   Zn    Zn3+2 0.499990 0.499980 0.346870 1.026743
F1    F     F_    0.597435 0.209142 0.762790 -0.579990
F2    F     F_    0.531735 0.101024 0.995029 -0.615790
F3    F     F_    0.421658 0.882974 0.985530 -0.606962
F4    F     F_    0.464881 0.879019 0.261188 -0.602857
C39   C     C_3   0.631895 0.660739 0.133605 -0.427088
C40   C     C_3   0.635091 0.796506 0.080409 -0.337808
C41   C     C_3   0.693848 0.884740 0.168263 -0.771128
H11   H     H_    0.666621 0.886005 0.272447 0.257124
H12   H     H_    0.763010 0.854236 0.170999 0.241945
H13   H     H_    0.695637 0.981415 0.126117 0.285451
H14   H     H_    0.662401 0.802133 0.976264 0.202658
H15   H     H_    0.566989 0.829318 0.078708 0.335545
H16   H     H_    0.621571 0.664478 0.242201 0.274449
H17   H     H_    0.697676 0.622694 0.114625 0.182832
F5    F     F_    0.366146 0.311539 0.266483 -0.613657
F6    F     F_    0.241086 0.196227 0.127364 -0.634197
C42   C     C_3   0.234249 0.201970 0.842040 -0.357867
C43   C     C_3   0.257525 0.066348 0.821785 -0.280281
C44   C     C_3   0.182501 0.989143 0.751218 -0.855259
H18   H     H_    0.120453 0.985706 0.812997 0.263855
H19   H     H_    0.169493 0.030551 0.650964 0.273850
H20   H     H_    0.202107 0.891819 0.736992 0.254821
H21   H     H_    0.318774 0.066591 0.758713 0.208954
H22   H     H_    0.270187 0.021712 0.920622 0.284756
H23   H     H_    0.168812 0.204239 0.894701 0.236633
H24   H     H_    0.226812 0.246861 0.741833 0.194548
F7    F     F_    0.769217 0.455556 0.739325 -0.639380
C45   C     C_3   0.095287 0.570091 0.118946 -0.456382
C46   C     C_3   0.142350 0.702260 0.105527 -0.322073
C47   C     C_3   0.076050 0.803693 0.093684 -0.780150
H25   H     H_    0.031826 0.785617 0.005658 0.244847
H26   H     H_    0.034726 0.806448 0.186547 0.263628
H27   H     H_    0.113080 0.896635 0.079608 0.271363
H28   H     H_    0.186802 0.723695 0.192477 0.242846
H29   H     H_    0.184748 0.705683 0.013254 0.226673
H30   H     H_    0.143860 0.497972 0.102400 0.178095
H31   H     H_    0.046544 0.556899 0.035619 0.200075

loop_
_geom_bond_atom_site_label_1
_geom_bond_atom_site_label_2
_ccdc_geom_bond_type
C45   H30   S    
C33   O8    A    
O5    Zn1   S    
C19   C20   A    
O3    Zn1   S    
C7    C8    A    
O4    Zn2   S    
C42   C43   S    
C3    H5    S    
C26   C27   A    
C37   C38   A    
N1    Zn2   S    
C18   C24   A    
N2    Zn1   S    
C36   C37   A    
C18   C19   A    
C5    C6    A    
O7    Zn1   S    
O8    Zn2   S    
C15   C16   A    
C28   H3    S    
C39   H16   S    
C34   C35   A    
C46   H28   S    
O2    Zn2   S    
C43   H21   S    
C40   H15   S    
C31   C32   A    
C8    C9    A    
C26   F6    S    
C23   C24   S    
C6    C38   A    
C16   F3    S    
C45   H31   S    
C21   H10   S    
C2    C34   A    
C40   C41   S    
C42   H23   S    
C21   C22   A    
C31   N1    A    
C29   N2    A    
C36   F7    S    
C34   H1    S    
C23   O6    A    
C44   H19   S    
C43   C44   S    
C16   C17   A    
C4    H6    S    
C25   C26   A    
C14   F1    S    
C39   H17   S    
C41   H11   S    
C25   F5    S    
C35   C36   A    
C46   H29   S    
C29   C30   A    
C2    C38   A    
C47   H26   S    
C40   H14   S    
C10   H7    S    
C17   C18   A    
C20   C21   A    
C1    O1    A    
C32   N2    A    
C30   N1    A    
C42   H24   S    
C9    H9    S    
C22   C24   A    
O1    Zn1   S    
C3    C4    A    
C47   H27   S    
C41   H12   S    
C25   C30   A    
C31   C39   S    
C28   C29   A    
C1    C20   S    
C33   O7    A    
C14   C19   A    
C12   O3    A    
C4    C5    A    
C27   C42   S    
C44   H20   S    
C11   C12   S    
C23   O5    A    
C6    C7    A    
C41   H13   S    
C5    C10   A    
C11   C13   A    
C47   H25   S    
C13   H8    S    
C33   C35   S    
C15   F2    S    
C1    O2    A    
C10   C11   A    
C22   F4    S    
C44   H18   S    
C43   H22   S    
C7    C13   A    
O6    Zn2   S    
C45   C46   S    
C3    C37   A    
C39   C40   S    
C27   C28   A    
C32   H4    S    
C14   C15   A    
C8    C45   S    
C46   C47   S    
C2    C9    A    
C17   H2    S    
C12   O4    A    
