data_mof_unit_64934.cif
_audit_creation_date              2012-12-10T18:29:18-0500
_audit_creation_method            fapswitch 2.2
_symmetry_space_group_name_H-M    P1
_symmetry_Int_Tables_number       1
_space_group_crystal_system       triclinic
_cell_length_a                    28.25232
_cell_length_b                    26.668691
_cell_length_c                    18.155524
_cell_angle_alpha                 90.942883
_cell_angle_beta                  89.635519
_cell_angle_gamma                 89.883006
_cell_volume                      13677.1624908

loop_
_atom_site_label
_atom_site_type_symbol
_atom_type_description
_atom_site_fract_x
_atom_site_fract_y
_atom_site_fract_z
_atom_type_partial_charge
C1    C     C_R   0.066812 0.434202 0.499358 0.812136
C2    C     C_R   0.933188 0.565798 0.500642 0.812138
C3    C     C_R   0.931665 0.435780 0.499834 0.823297
C4    C     C_R   0.068335 0.564220 0.500166 0.823299
C5    C     C_R   0.566812 0.934202 0.499358 0.812138
C6    C     C_R   0.433188 0.065798 0.500642 0.812138
C7    C     C_R   0.431665 0.935780 0.499834 0.823298
C8    C     C_R   0.568335 0.064220 0.500166 0.823298
C9    C     C_R   0.000066 0.500095 0.158545 -0.325154
C10   C     C_R   0.999934 0.499905 0.841455 -0.325154
C11   C     C_R   0.500066 0.000095 0.158545 -0.325153
C12   C     C_R   0.499934 0.999905 0.841455 -0.325154
C13   C     C_R   0.010143 0.544121 0.200199 0.327194
C14   C     C_R   0.989856 0.455879 0.799801 0.327194
C15   C     C_R   0.990077 0.456006 0.198137 0.333779
C16   C     C_R   0.009923 0.543994 0.801863 0.333779
C17   C     C_R   0.510143 0.044121 0.200199 0.327193
C18   C     C_R   0.489856 0.955878 0.799801 0.327194
C19   C     C_R   0.490077 0.956006 0.198136 0.333779
C20   C     C_R   0.509923 0.043994 0.801863 0.333779
C21   C     C_R   0.009458 0.543342 0.278016 0.505464
C22   C     C_R   0.990542 0.456658 0.721984 0.505466
C23   C     C_R   0.990711 0.456689 0.275954 0.473415
C24   C     C_R   0.009289 0.543311 0.724046 0.473415
C25   C     C_R   0.509458 0.043342 0.278016 0.505466
C26   C     C_R   0.490542 0.956658 0.721984 0.505463
C27   C     C_R   0.490711 0.956689 0.275954 0.473416
C28   C     C_R   0.509289 0.043311 0.724046 0.473415
C29   C     C_R   0.869387 0.385246 0.566735 0.387424
C30   C     C_R   0.130613 0.614754 0.433265 0.387423
C31   C     C_R   0.127892 0.618780 0.567782 0.384554
C32   C     C_R   0.872108 0.381220 0.432218 0.384555
C33   C     C_R   0.106845 0.358087 0.445202 0.359733
C34   C     C_R   0.893157 0.641915 0.554794 0.359730
C35   C     C_R   0.856908 0.599253 0.449214 0.367936
C36   C     C_R   0.143090 0.400744 0.550790 0.367936
C37   C     C_R   0.369387 0.885246 0.566735 0.387423
C38   C     C_R   0.630613 0.114753 0.433265 0.387423
C39   C     C_R   0.627892 0.118780 0.567782 0.384554
C40   C     C_R   0.372108 0.881220 0.432219 0.384554
C41   C     C_R   0.606843 0.858085 0.445205 0.359731
C42   C     C_R   0.393156 0.141913 0.554796 0.359731
C43   C     C_R   0.356909 0.099254 0.449212 0.367935
C44   C     C_R   0.643091 0.900746 0.550787 0.367937
C45   C     C_R   0.836258 0.346594 0.566149 -0.130213
C46   C     C_R   0.163741 0.653407 0.433851 -0.130214
C47   C     C_R   0.161062 0.657358 0.566686 -0.127323
C48   C     C_R   0.838938 0.342641 0.433314 -0.127323
C49   C     C_R   0.141562 0.321071 0.447948 -0.142416
C50   C     C_R   0.858440 0.678930 0.552049 -0.142417
C51   C     C_R   0.822536 0.636935 0.447575 -0.121947
C52   C     C_R   0.177462 0.363062 0.552429 -0.121948
C53   C     C_R   0.336258 0.846594 0.566149 -0.130214
C54   C     C_R   0.663742 0.153406 0.433851 -0.130213
C55   C     C_R   0.661062 0.157359 0.566686 -0.127323
C56   C     C_R   0.338938 0.842641 0.433314 -0.127323
C57   C     C_R   0.641560 0.821069 0.447951 -0.142416
C58   C     C_R   0.358438 0.178929 0.552051 -0.142418
C59   C     C_R   0.322536 0.136936 0.447573 -0.121947
C60   C     C_R   0.677464 0.863064 0.552426 -0.121946
C61   C     C_R   0.820823 0.324930 0.499859 -0.129842
C62   C     C_R   0.179177 0.675069 0.500141 -0.129842
C63   C     C_R   0.177265 0.323264 0.500967 -0.124389
C64   C     C_R   0.822735 0.676735 0.499033 -0.124389
C65   C     C_R   0.320823 0.824930 0.499859 -0.129842
C66   C     C_R   0.679177 0.175069 0.500140 -0.129842
C67   C     C_R   0.677265 0.823264 0.500967 -0.124390
C68   C     C_R   0.322734 0.176735 0.499034 -0.124389
C69   C     C_R   0.999984 0.499894 0.924540 0.412112
C70   C     C_R   0.000016 0.500106 0.075460 0.412112
C71   C     C_R   0.499984 0.999894 0.924540 0.412112
C72   C     C_R   0.500016 0.000106 0.075460 0.412112
C73   C     C_R   0.890259 0.401209 0.499501 -0.284050
C74   C     C_R   0.109741 0.598791 0.500499 -0.284049
C75   C     C_R   0.106308 0.397827 0.497857 -0.238120
C76   C     C_R   0.893692 0.602173 0.502143 -0.238115
C77   C     C_R   0.390259 0.901209 0.499501 -0.284049
C78   C     C_R   0.609741 0.098791 0.500499 -0.284049
C79   C     C_R   0.606307 0.897827 0.497857 -0.238117
C80   C     C_R   0.393692 0.102173 0.502143 -0.238116
C81   C     C_R   0.215799 0.714375 0.500038 0.466577
C82   C     C_R   0.784201 0.285625 0.499962 0.466577
C83   C     C_R   0.785034 0.715104 0.499093 0.464737
C84   C     C_R   0.214965 0.284896 0.500907 0.464738
C85   C     C_R   0.715799 0.214375 0.500038 0.466577
C86   C     C_R   0.284201 0.785625 0.499962 0.466576
C87   C     C_R   0.285034 0.215103 0.499094 0.464738
C88   C     C_R   0.714965 0.784896 0.500907 0.464737
Cu1   Cu    Cu3+1 0.000000 0.500000 0.573360 0.972684
Cu2   Cu    Cu3+1 0.000000 0.500000 0.426640 0.972684
Cu3   Cu    Cu3+1 0.500000 1.000000 0.573360 0.972685
Cu4   Cu    Cu3+1 0.500000 0.000000 0.426640 0.972684
H1    H     H_    0.821581 0.334593 0.618219 0.200928
H2    H     H_    0.178419 0.665407 0.381781 0.200928
H3    H     H_    0.173599 0.672482 0.618740 0.201870
H4    H     H_    0.826401 0.327518 0.381260 0.201870
H5    H     H_    0.140735 0.290849 0.407380 0.198640
H6    H     H_    0.859268 0.709155 0.592614 0.198639
H7    H     H_    0.794850 0.634160 0.406717 0.196470
H8    H     H_    0.205146 0.365835 0.593290 0.196470
H9    H     H_    0.321581 0.834593 0.618219 0.200929
H10   H     H_    0.678419 0.165407 0.381781 0.200928
H11   H     H_    0.673599 0.172483 0.618740 0.201870
H12   H     H_    0.326401 0.827518 0.381260 0.201870
H13   H     H_    0.640732 0.790846 0.407386 0.198640
H14   H     H_    0.359266 0.209152 0.592618 0.198639
H15   H     H_    0.294851 0.134162 0.406714 0.196470
H16   H     H_    0.705149 0.865838 0.593284 0.196470
N1    N     N_R   1.000000 0.500000 0.316380 -0.356805
N2    N     N_R   1.000000 0.500000 0.683620 -0.356804
N3    N     N_R   0.500000 0.000000 0.316380 -0.356804
N4    N     N_R   0.500000 0.000000 0.683620 -0.356804
N5    N     N_R   0.961538 0.484175 0.036899 -0.186761
N6    N     N_R   0.038462 0.515824 0.963101 -0.186761
N7    N     N_R   0.038482 0.515917 0.036779 -0.190805
N8    N     N_R   0.961518 0.484082 0.963221 -0.190805
N9    N     N_R   0.461538 0.984175 0.036899 -0.186760
N10   N     N_R   0.538462 0.015825 0.963101 -0.186761
N11   N     N_R   0.538482 0.015918 0.036779 -0.190804
N12   N     N_R   0.461518 0.984082 0.963221 -0.190804
N13   N     N_R   0.768069 0.265576 0.435704 -0.215515
N14   N     N_R   0.231931 0.734424 0.564296 -0.215515
N15   N     N_R   0.234575 0.730625 0.435742 -0.215957
N16   N     N_R   0.765425 0.269375 0.564258 -0.215957
N17   N     N_R   0.250438 0.287216 0.550856 -0.220133
N18   N     N_R   0.749557 0.712778 0.449152 -0.220133
N19   N     N_R   0.784742 0.752984 0.549993 -0.219587
N20   N     N_R   0.215261 0.247019 0.450001 -0.219588
N21   N     N_R   0.268069 0.765576 0.435704 -0.215515
N22   N     N_R   0.731931 0.234424 0.564295 -0.215515
N23   N     N_R   0.734575 0.230625 0.435742 -0.215957
N24   N     N_R   0.265425 0.769375 0.564258 -0.215957
N25   N     N_R   0.750442 0.787221 0.550849 -0.220133
N26   N     N_R   0.249561 0.212783 0.449145 -0.220133
N27   N     N_R   0.284738 0.252980 0.550001 -0.219588
N28   N     N_R   0.715257 0.747015 0.450008 -0.219587
O1    O     O_R   0.049930 0.450080 0.561970 -0.591634
O2    O     O_R   0.950070 0.549920 0.438030 -0.591635
O3    O     O_R   0.950070 0.549920 0.561970 -0.609021
O4    O     O_R   0.049930 0.450080 0.438030 -0.609020
O5    O     O_R   0.950070 0.450080 0.438030 -0.564703
O6    O     O_R   0.049930 0.549920 0.561970 -0.564703
O7    O     O_R   0.049930 0.549920 0.438030 -0.555288
O8    O     O_R   0.950070 0.450080 0.561970 -0.555287
O9    O     O_R   0.549930 0.950080 0.561970 -0.591635
O10   O     O_R   0.450070 0.049920 0.438030 -0.591635
O11   O     O_R   0.450070 0.049920 0.561970 -0.609019
O12   O     O_R   0.549930 0.950080 0.438030 -0.609021
O13   O     O_R   0.450070 0.950080 0.438030 -0.564703
O14   O     O_R   0.549930 0.049920 0.561970 -0.564703
O15   O     O_R   0.549930 0.049920 0.438030 -0.555287
O16   O     O_R   0.450070 0.950080 0.561970 -0.555288
O17   O     O_3   0.018387 0.588295 0.313285 -0.605630
H17   H     H_    0.997606 0.590730 0.356727 0.364029
O18   O     O_3   0.981613 0.411705 0.686715 -0.605630
H18   H     H_    0.002394 0.409270 0.643273 0.364030
O19   O     O_3   0.982362 0.411547 0.308955 -0.596049
H19   H     H_    0.000362 0.410925 0.354859 0.377917
O20   O     O_3   0.017638 0.588453 0.691045 -0.596051
H20   H     H_    0.999639 0.589075 0.645141 0.377914
O21   O     O_3   0.518387 0.088295 0.313285 -0.605631
H21   H     H_    0.497606 0.090730 0.356727 0.364030
O22   O     O_3   0.481613 0.911705 0.686715 -0.605631
H22   H     H_    0.502394 0.909270 0.643273 0.364030
O23   O     O_3   0.482362 0.911547 0.308955 -0.596051
H23   H     H_    0.500361 0.910925 0.354859 0.377914
O24   O     O_3   0.517637 0.088453 0.691045 -0.596050
H24   H     H_    0.499638 0.089075 0.645141 0.377916
O25   O     O_3   0.019024 0.589814 0.167904 -0.620747
H25   H     H_    0.008153 0.589204 0.116272 0.344788
O26   O     O_3   0.980975 0.410186 0.832096 -0.620747
H26   H     H_    0.991847 0.410796 0.883728 0.344789
O27   O     O_3   0.981362 0.410320 0.163674 -0.616031
H27   H     H_    0.992459 0.410959 0.111970 0.343174
O28   O     O_3   0.018638 0.589680 0.836326 -0.616032
H28   H     H_    0.007541 0.589041 0.888030 0.343174
O29   O     O_3   0.519024 0.089814 0.167904 -0.620746
H29   H     H_    0.508152 0.089204 0.116273 0.344788
O30   O     O_3   0.480976 0.910186 0.832096 -0.620747
H30   H     H_    0.491848 0.910796 0.883727 0.344788
O31   O     O_3   0.481362 0.910320 0.163674 -0.616032
H31   H     H_    0.492459 0.910959 0.111970 0.343174
O32   O     O_3   0.518638 0.089680 0.836326 -0.616032
H32   H     H_    0.507541 0.089041 0.888030 0.343174
O33   O     O_3   0.879507 0.407036 0.634033 -0.642264
H33   H     H_    0.878441 0.443855 0.627639 0.332769
O34   O     O_3   0.120492 0.592965 0.365967 -0.642264
H34   H     H_    0.121559 0.556145 0.372361 0.332769
O35   O     O_3   0.114835 0.601240 0.635745 -0.630833
H35   H     H_    0.117799 0.564216 0.633244 0.341919
O36   O     O_3   0.885165 0.398759 0.364254 -0.630832
H36   H     H_    0.882201 0.435784 0.366756 0.341921
O37   O     O_3   0.073052 0.353680 0.391576 -0.686678
H37   H     H_    0.078871 0.381876 0.357823 0.334807
O38   O     O_3   0.926952 0.646324 0.608416 -0.686677
H38   H     H_    0.921134 0.618130 0.642173 0.334806
O39   O     O_3   0.852354 0.559895 0.399442 -0.695692
H39   H     H_    0.867121 0.529615 0.420234 0.315228
O40   O     O_3   0.147643 0.440101 0.600565 -0.695690
H40   H     H_    0.132879 0.470382 0.579773 0.315230
O41   O     O_3   0.379508 0.907036 0.634033 -0.642265
H41   H     H_    0.378441 0.943855 0.627639 0.332769
O42   O     O_3   0.620493 0.092964 0.365967 -0.642264
H42   H     H_    0.621559 0.056144 0.372361 0.332769
O43   O     O_3   0.614835 0.101241 0.635746 -0.630832
H43   H     H_    0.617799 0.064216 0.633245 0.341920
O44   O     O_3   0.385165 0.898759 0.364254 -0.630832
H44   H     H_    0.382201 0.935784 0.366756 0.341920
O45   O     O_3   0.573049 0.853676 0.391583 -0.686676
H45   H     H_    0.578866 0.881871 0.357827 0.334806
O46   O     O_3   0.426950 0.146322 0.608419 -0.686677
H46   H     H_    0.421132 0.118127 0.642175 0.334806
O47   O     O_3   0.352356 0.059897 0.399439 -0.695691
H47   H     H_    0.367121 0.029616 0.420231 0.315229
O48   O     O_3   0.647645 0.940104 0.600559 -0.695692
H48   H     H_    0.632879 0.970384 0.579767 0.315228

loop_
_geom_bond_atom_site_label_1
_geom_bond_atom_site_label_2
_ccdc_geom_bond_type
C34   O38   S    
C84   N20   A    
C57   H13   S    
O26   H26   S    
C33   O37   S    
C69   N8    A    
C42   C80   A    
O23   H23   S    
C49   C63   A    
Cu4   O12   S    
C44   O48   S    
C50   C64   A    
O25   H25   S    
C62   C81   S    
O22   H22   S    
C3    O5    A    
C36   O40   S    
O48   H48   S    
C45   H1    S    
C42   C58   A    
C4    O7    A    
Cu3   O11   S    
O21   H21   S    
O33   H33   S    
C24   O20   S    
C2    C76   S    
C65   C86   S    
O43   H43   S    
C28   N4    A    
C11   C19   A    
C67   C88   S    
O19   H19   S    
C71   N12   A    
C46   C62   A    
C2    O3    A    
N13   N23   A    
C88   N25   A    
C61   C82   S    
O20   H20   S    
C4    O6    A    
Cu3   O16   S    
C30   C74   A    
C29   C73   A    
C33   C49   A    
Cu1   O6    S    
C55   H11   S    
C26   O22   S    
O41   H41   S    
C82   N16   A    
C69   N6    A    
C9    C13   A    
N10   N11   A    
C28   O24   S    
C7    O13   A    
C33   C75   A    
C39   C55   A    
O46   H46   S    
C60   C67   A    
C53   H9    S    
C22   N2    A    
C18   C26   A    
C72   N9    A    
C5    C79   S    
C53   C65   A    
C82   N13   A    
C4    C74   S    
Cu2   O7    S    
C36   C52   A    
C43   C59   A    
C7    C77   S    
N5    N8    A    
C37   C53   A    
N17   N27   A    
C15   C23   A    
C40   O44   S    
N18   N28   A    
O40   H40   S    
C16   C24   A    
C5    O12   A    
C31   C47   A    
N15   N21   A    
C41   C57   A    
C8    C78   S    
C32   C48   A    
C87   N26   A    
C19   O31   S    
O39   H39   S    
C7    O16   A    
C57   C67   A    
N14   N24   A    
C19   C27   A    
Cu2   O2    S    
C54   H10   S    
N6    N7    A    
C22   O18   S    
C70   N5    A    
C51   H7    S    
C23   N1    A    
C66   C85   S    
C35   C76   A    
C50   H6    S    
C5    O9    A    
C15   O27   S    
Cu4   O10   S    
O44   H44   S    
C1    C75   S    
C39   C78   A    
C87   N27   A    
C8    O15   A    
C24   N2    A    
C9    C70   S    
C88   N28   A    
C10   C14   A    
N9    N12   A    
C25   O21   S    
O24   H24   S    
C11   C72   S    
C31   C74   A    
C38   C78   A    
C40   C56   A    
C43   C80   A    
O31   H31   S    
C37   C77   A    
Cu1   N2    S    
C52   H8    S    
C59   H15   S    
O36   H36   S    
C32   O36   S    
C29   C45   A    
C58   H14   S    
C2    O2    A    
Cu3   N4    S    
C8    O14   A    
O32   H32   S    
C64   C83   S    
C37   O41   S    
C36   C75   A    
N20   N26   A    
C59   C68   A    
C6    C80   S    
O28   H28   S    
C38   C54   A    
O47   H47   S    
C12   C20   A    
Cu4   O15   S    
O45   H45   S    
C51   C64   A    
N16   N22   A    
C86   N21   A    
C56   H12   S    
C1    O4    A    
C27   O23   S    
C20   O32   S    
C16   O28   S    
C58   C68   A    
C12   C71   S    
C81   N15   A    
C18   O30   S    
O37   H37   S    
Cu1   O1    S    
C38   O42   S    
C35   C51   A    
C70   N7    A    
Cu4   O13   S    
C83   N18   A    
C43   O47   S    
C26   N4    A    
Cu3   O9    S    
C55   C66   A    
C1    O1    A    
C35   O39   S    
Cu1   O3    S    
C17   O29   S    
C84   N17   A    
C11   C17   A    
C47   H3    S    
C48   H4    S    
C71   N10   A    
C30   C46   A    
C44   C79   A    
C3    O8    A    
N19   N25   A    
C83   N19   A    
C14   O26   S    
C52   C63   A    
C60   H16   S    
C27   N3    A    
C41   C79   A    
Cu3   O14   S    
Cu2   O4    S    
Cu4   N3    S    
C54   C66   A    
O30   H30   S    
Cu1   O8    S    
C20   C28   A    
C31   O35   S    
Cu2   N1    S    
C85   N22   A    
C81   N14   A    
C42   O46   S    
C17   C25   A    
C30   O34   S    
C14   C22   A    
C9    C15   A    
C41   O45   S    
O34   H34   S    
C10   C16   A    
C13   C21   A    
C47   C62   A    
C6    O11   A    
C86   N24   A    
C48   C61   A    
C44   C60   A    
C45   C61   A    
C6    O10   A    
C23   O19   S    
C72   N11   A    
C13   O25   S    
C29   O33   S    
C46   H2    S    
O35   H35   S    
C3    C73   S    
C34   C50   A    
Cu2   O5    S    
C25   N3    A    
O27   H27   S    
O38   H38   S    
C10   C69   S    
O29   H29   S    
C12   C18   A    
O18   H18   S    
C68   C87   S    
C21   O17   S    
C40   C77   A    
O42   H42   S    
Cu1   Cu2   S    
C39   O43   S    
C63   C84   S    
C32   C73   A    
C85   N23   A    
Cu3   Cu4   S    
C56   C65   A    
C34   C76   A    
C21   N1    A    
O17   H17   S    
C49   H5    S    
