data_mof_unit_68038.cif
_audit_creation_date              2012-12-11T14:37:43-0500
_audit_creation_method            fapswitch 2.2
_symmetry_space_group_name_H-M    P1
_symmetry_Int_Tables_number       1
_space_group_crystal_system       triclinic
_cell_length_a                    14.721339
_cell_length_b                    15.793048
_cell_length_c                    7.009327
_cell_angle_alpha                 90.932231
_cell_angle_beta                  80.892428
_cell_angle_gamma                 90.232424
_cell_volume                      1608.87243958

loop_
_atom_site_label
_atom_site_type_symbol
_atom_type_description
_atom_site_fract_x
_atom_site_fract_y
_atom_site_fract_z
_atom_type_partial_charge
O1    O     O_R   0.337080 0.165770 0.524980 -0.531374
O2    O     O_R   0.662920 0.834230 0.475020 -0.540446
O3    O     O_R   0.662920 0.665770 0.475020 -0.535750
O4    O     O_R   0.337080 0.334230 0.524980 -0.542049
O5    O     O_R   0.348340 0.341430 0.191390 -0.542319
O6    O     O_R   0.651660 0.658570 0.808610 -0.542668
O7    O     O_R   0.651660 0.841430 0.808610 -0.543149
O8    O     O_R   0.348340 0.158570 0.191390 -0.547974
O9    O     O_R   0.165780 0.339950 0.082750 -0.541057
O10   O     O_R   0.834220 0.660050 0.917250 -0.539071
O11   O     O_R   0.834220 0.839950 0.917250 -0.538342
O12   O     O_R   0.165780 0.160050 0.082750 -0.539275
C1    C     C_R   0.369369 0.364173 0.356839 0.607104
C2    C     C_R   0.630379 0.635718 0.643109 0.611123
C3    C     C_R   0.630107 0.863842 0.645073 0.658357
C4    C     C_R   0.369409 0.135626 0.355175 0.603797
O13   O     O_3   0.191540 0.250000 0.407620 -0.368260
O14   O     O_3   0.808460 0.750000 0.592380 -0.367447
V1    V     V_3+5 0.262540 0.250000 0.108780 1.398558
V2    V     V_3+5 0.737460 0.750000 0.891220 1.414825
O15   O     O_R   0.154530 0.164290 0.756910 -0.531921
O16   O     O_R   0.845470 0.835710 0.243090 -0.539404
O17   O     O_R   0.845470 0.664290 0.243090 -0.538048
O18   O     O_R   0.154530 0.335710 0.756910 -0.547680
C5    C     C_R   0.131713 0.134344 0.930105 0.714299
C6    C     C_R   0.866609 0.867356 0.070028 0.710231
C7    C     C_R   0.867230 0.633170 0.067651 0.700311
C8    C     C_R   0.134828 0.368096 0.931750 0.722071
V3    V     V_3+5 0.240320 0.250000 0.616280 1.382717
V4    V     V_3+5 0.759680 0.750000 0.383720 1.395142
O19   O     O_3   0.311330 0.250000 0.867310 -0.377532
O20   O     O_3   0.688670 0.750000 0.132690 -0.379149
C9    C     C_3   0.028385 0.478012 0.169514 -0.251996
C10   C     C_3   0.978339 0.526224 0.828722 -0.256528
C11   C     C_3   0.937351 0.002683 0.872419 -0.292071
C12   C     C_3   0.061379 0.998703 0.118789 -0.282168
C13   C     C_3   0.037441 0.567879 0.083269 0.285404
C14   C     C_3   0.968945 0.436257 0.915767 0.305662
C15   C     C_3   0.956940 0.075239 0.011534 0.274647
C16   C     C_3   0.041737 0.926859 0.976537 0.263267
H1    H     H_    0.047456 0.458152 0.308879 0.137253
H2    H     H_    0.957867 0.544243 0.689093 0.146389
H3    H     H_    0.885030 0.000329 0.775009 0.160371
H4    H     H_    0.112988 0.995800 0.216618 0.149268
C17   C     C_3   0.938796 0.563468 0.033720 -0.215510
C18   C     C_3   0.066850 0.440153 0.965887 -0.202049
C19   C     C_3   0.061445 0.063975 0.955276 -0.168034
C20   C     C_3   0.937076 0.937982 0.039431 -0.205270
C21   C     C_3   0.930592 0.473109 0.115969 0.295859
C22   C     C_3   0.076493 0.530344 0.883450 0.281258
C23   C     C_3   0.042655 0.991615 0.816357 0.333112
C24   C     C_3   0.956230 0.012140 0.175761 0.308695
C25   C     C_2   0.626710 0.420013 0.313839 0.224344
C26   C     C_2   0.425016 0.529563 0.614599 0.175728
C27   C     C_2   0.418926 0.971253 0.649510 0.208772
C28   C     C_2   0.547554 0.977641 0.164155 0.253302
C29   C     C_2   0.556535 0.434768 0.460615 0.182154
C30   C     C_2   0.493118 0.511732 0.465764 0.157094
C31   C     C_2   0.462474 0.941069 0.479217 0.126020
C32   C     C_2   0.528133 0.996411 0.354181 0.129282
N1    N     N_2   0.403721 0.484771 0.788546 -0.534596
H5    H     H_    0.343311 0.451076 0.794215 0.262268
C33   C     C_3   0.401236 0.540320 0.953886 -0.569568
H6    H     H_    0.380972 0.504103 0.088089 0.216982
H7    H     H_    0.351216 0.592469 0.950151 0.175483
H8    H     H_    0.470567 0.568086 0.954176 0.246811
N2    N     N_2   0.644267 0.466223 0.140777 -0.557360
H9    H     H_    0.712671 0.480625 0.100385 0.271446
C34   C     C_3   0.605306 0.426867 0.985694 -0.489779
H10   H     H_    0.619148 0.467323 0.856354 0.220478
H11   H     H_    0.529873 0.419276 0.027582 0.240727
H12   H     H_    0.636186 0.363412 0.950483 0.188323
N3    N     N_2   0.607516 0.026669 0.030184 -0.513718
H13   H     H_    0.672913 0.031768 0.062952 0.260013
C35   C     C_3   0.570035 0.106514 0.981667 -0.553640
H14   H     H_    0.620931 0.138559 0.872923 0.180894
H15   H     H_    0.555767 0.149005 0.110535 0.215067
H16   H     H_    0.505895 0.095788 0.919833 0.207705
N4    N     N_2   0.358080 0.921450 0.779899 -0.502676
H17   H     H_    0.375518 0.858600 0.788522 0.279064
C36   C     C_3   0.324569 0.963355 0.961502 -0.573720
H18   H     H_    0.268133 0.925311 0.042410 0.203267
H19   H     H_    0.297174 0.027035 0.937669 0.203901
H20   H     H_    0.380898 0.970488 0.048102 0.194306
N5    N     N_2   0.507368 0.571968 0.312042 -0.525969
H21   H     H_    0.574640 0.588878 0.268446 0.313236
C37   C     C_3   0.448678 0.645942 0.323289 -0.592157
H22   H     H_    0.468592 0.684479 0.192213 0.204786
H23   H     H_    0.456954 0.684892 0.452728 0.218758
H24   H     H_    0.375597 0.626955 0.330418 0.195955
N6    N     N_2   0.541302 0.372984 0.611149 -0.530146
H25   H     H_    0.473986 0.359818 0.663617 0.306275
C38   C     C_3   0.596075 0.296321 0.593511 -0.621385
H26   H     H_    0.573020 0.255623 0.719324 0.200849
H27   H     H_    0.669386 0.312116 0.593461 0.200519
H28   H     H_    0.587413 0.260496 0.459765 0.211258
N7    N     N_2   0.565897 0.070601 0.431022 -0.531012
H29   H     H_    0.522185 0.102077 0.538040 0.245594
C39   C     C_3   0.656302 0.059567 0.481852 -0.596524
H30   H     H_    0.650978 0.030640 0.625859 0.205391
H31   H     H_    0.690491 0.122131 0.486996 0.202917
H32   H     H_    0.698797 0.017842 0.374991 0.184620
N8    N     N_2   0.448737 0.855486 0.420951 -0.532849
H33   H     H_    0.504831 0.828644 0.334819 0.264657
C40   C     C_3   0.362813 0.837802 0.352075 -0.590394
H34   H     H_    0.376046 0.808928 0.204772 0.188556
H35   H     H_    0.323035 0.896081 0.342539 0.195560
H36   H     H_    0.321157 0.793310 0.451335 0.217586
N9    N     N_2   0.071520 0.639578 0.182752 -0.514737
H37   H     H_    0.035232 0.694871 0.179280 0.258785
C41   C     C_3   0.170089 0.650035 0.162836 -0.606187
H38   H     H_    0.186883 0.690992 0.282719 0.203888
H39   H     H_    0.196924 0.681001 0.024491 0.216112
H40   H     H_    0.204261 0.587834 0.168578 0.198359
N10   N     N_2   0.934945 0.363036 0.822285 -0.529040
H41   H     H_    0.977426 0.345047 0.697163 0.253706
C42   C     C_3   0.838978 0.365458 0.802264 -0.592521
H42   H     H_    0.796002 0.366902 0.946298 0.245033
H43   H     H_    0.820916 0.307002 0.726513 0.188936
H44   H     H_    0.824160 0.421720 0.719243 0.203373
N11   N     N_2   0.912821 0.157177 0.018326 -0.531288
H45   H     H_    0.941774 0.195840 0.908039 0.273088
C43   C     C_3   0.813696 0.154850 0.040322 -0.597844
H46   H     H_    0.785558 0.219811 0.063506 0.213418
H47   H     H_    0.785697 0.117101 0.167597 0.216223
H48   H     H_    0.791442 0.127453 0.908357 0.192384
N12   N     N_2   0.092663 0.848244 0.954517 -0.531849
H49   H     H_    0.103829 0.823657 0.083917 0.251518
C44   C     C_3   0.064084 0.786230 0.821561 -0.502401
H50   H     H_    0.118459 0.737670 0.785360 0.223100
H51   H     H_    0.052957 0.815660 0.684936 0.197413
H52   H     H_    0.999685 0.754725 0.887624 0.183048
N13   N     N_2   0.853504 0.439276 0.245523 -0.538222
H53   H     H_    0.829311 0.480116 0.358174 0.249565
C45   C     C_3   0.867536 0.354202 0.307920 -0.572525
H54   H     H_    0.801622 0.327930 0.380759 0.190882
H55   H     H_    0.918638 0.354412 0.407995 0.196713
H56   H     H_    0.893523 0.312352 0.183450 0.256141
N14   N     N_2   0.158464 0.561509 0.764157 -0.524405
H57   H     H_    0.216804 0.551717 0.824172 0.254499
C46   C     C_3   0.169558 0.535777 0.563880 -0.582917
H58   H     H_    0.234844 0.562127 0.486927 0.186959
H59   H     H_    0.111679 0.560569 0.498281 0.244580
H60   H     H_    0.172171 0.465849 0.548379 0.202677
N15   N     N_2   0.085119 0.983688 0.616701 -0.518116
H61   H     H_    0.050637 0.943586 0.535416 0.266714
C47   C     C_3   0.183324 0.972205 0.583345 -0.487934
H62   H     H_    0.200301 0.905824 0.612790 0.230578
H63   H     H_    0.217099 0.015720 0.675124 0.218431
H64   H     H_    0.210480 0.987680 0.431717 0.154991
N16   N     N_2   0.914035 0.028464 0.373690 -0.523313
H65   H     H_    0.845751 0.012249 0.402019 0.238593
C48   C     C_3   0.934753 0.110953 0.450743 -0.506618
H66   H     H_    0.904226 0.117069 0.604491 0.181684
H67   H     H_    0.904190 0.162316 0.376433 0.213928
H68   H     H_    0.010294 0.120446 0.437094 0.236963

loop_
_geom_bond_atom_site_label_1
_geom_bond_atom_site_label_2
_ccdc_geom_bond_type
O10   C7    A    
C45   H56   S    
C37   H22   S    
C33   H7    S    
C38   H26   S    
C14   N10   S    
C27   C31   D    
O3    V4    S    
O13   V3    S    
N3    H13   S    
C41   H38   S    
C10   H2    S    
V1    O19   S    
N15   H61   S    
C45   H54   S    
C14   C21   S    
N5    H21   S    
C40   H35   S    
C8    C18   S    
C47   H63   S    
C42   H43   S    
V2    O20   S    
C43   H47   S    
O6    C2    A    
C23   N15   S    
C9    C21   S    
N10   H41   S    
C12   C19   S    
N1    C33   S    
O4    C1    A    
C34   H11   S    
O18   V3    S    
O15   C5    A    
N9    C41   S    
N15   C47   S    
O9    V1    S    
C47   H62   S    
O10   V2    S    
N10   C42   S    
N16   H65   S    
O14   V4    S    
O17   C7    A    
C48   H67   S    
C11   H3    S    
C5    C19   S    
C13   N9    S    
O4    V3    S    
C12   C24   S    
C6    C20   S    
C44   H52   S    
C7    C17   S    
O7    C3    A    
C15   C24   S    
C33   H8    S    
C31   C32   S    
C38   H27   S    
C45   H55   S    
C9    C18   S    
N3    C35   S    
C34   H10   S    
C11   C20   S    
C36   H19   S    
N7    H29   S    
N5    C37   S    
C40   H36   S    
O11   V2    S    
C10   C22   S    
O8    V1    S    
C14   C18   S    
N2    H9    S    
O17   V4    S    
C43   H46   S    
C47   H64   S    
C41   H39   S    
C32   N7    S    
N7    C39   S    
C46   H60   S    
N6    H25   S    
C10   C17   S    
C25   C29   D    
C22   N14   S    
C43   H48   S    
C19   C23   S    
O11   C6    A    
C16   N12   S    
O15   V3    S    
C36   H18   S    
N4    H17   S    
N2    C34   S    
C34   H12   S    
C11   C15   S    
C35   H14   S    
N12   C44   S    
N6    C38   S    
C27   N4    S    
C39   H30   S    
C12   C16   S    
O1    V3    S    
C17   C21   S    
N8    C40   S    
O1    C4    A    
C48   H68   S    
O2    C3    A    
C35   H15   S    
N11   H45   S    
O3    C2    A    
C29   N6    S    
C39   H31   S    
C38   H28   S    
C37   H23   S    
C11   C23   S    
N13   H53   S    
C42   H44   S    
C13   C17   S    
N12   H49   S    
C30   N5    S    
C36   H20   S    
C15   C19   S    
C44   H50   S    
C26   C30   D    
C16   C20   S    
C21   N13   S    
C28   N3    S    
O16   V4    S    
C10   C14   S    
O5    C1    A    
O18   C8    A    
N14   H57   S    
O5    V1    S    
C26   N1    S    
C16   C23   S    
O6    V2    S    
C40   H34   S    
C18   C22   S    
N4    C36   S    
C15   N11   S    
O12   C5    A    
O2    V4    S    
C31   N8    S    
C46   H59   S    
C9    H1    S    
V3    O19   S    
C42   H42   S    
V4    O20   S    
C13   C22   S    
N14   C46   S    
C29   C30   S    
C24   N16   S    
O12   V1    S    
O13   V1    S    
C41   H40   S    
O14   V2    S    
N16   C48   S    
N1    H5    S    
C25   N2    S    
C35   H16   S    
C9    C13   S    
N11   C43   S    
C12   H4    S    
C33   H6    S    
C28   C32   D    
C20   C24   S    
C39   H32   S    
O8    C4    A    
O7    V2    S    
O16   C6    A    
C37   H24   S    
N9    H37   S    
N8    H33   S    
N13   C45   S    
C48   H66   S    
C46   H58   S    
O9    C8    A    
C44   H51   S    
