data_mof_unit_26135.cif
_audit_creation_date              2013-03-05T16:48:41-0500
_audit_creation_method            fapswitch 2.2
_symmetry_space_group_name_H-M    P1
_symmetry_Int_Tables_number       1
_space_group_crystal_system       triclinic
_cell_length_a                    27.815033
_cell_length_b                    8.909608
_cell_length_c                    8.086804
_cell_angle_alpha                 89.993152
_cell_angle_beta                  90.718081
_cell_angle_gamma                 89.949507
_cell_volume                      2003.92199525

loop_
_atom_site_label
_atom_site_type_symbol
_atom_site_description
_atom_site_fract_x
_atom_site_fract_y
_atom_site_fract_z
_atom_type_partial_charge
O1    O     O_R   0.500000 0.285350 0.636850 -0.616170
O2    O     O_R   0.500000 0.714650 0.363150 -0.616173
O3    O     O_R   0.500000 0.714650 0.636850 -0.620224
O4    O     O_R   0.500000 0.285350 0.363150 -0.620224
C1    C     C_R   0.500004 0.217962 0.500007 0.920383
C2    C     C_R   0.499996 0.782038 0.499993 0.920382
O5    O     O_R   0.428760 0.500000 0.636860 -0.562840
O6    O     O_R   0.571240 0.500000 0.363140 -0.562851
O7    O     O_R   0.571240 0.500000 0.636860 -0.563557
O8    O     O_R   0.428760 0.500000 0.363140 -0.563549
C3    C     C_R   0.405649 0.500606 0.498820 0.955722
C4    C     C_R   0.594351 0.499391 0.501180 0.955765
Zn1   Zn    Zn3+2 0.500000 0.500000 0.682780 1.103941
Zn2   Zn    Zn3+2 0.500000 0.500000 0.317220 1.103939
C5    C     C_R   0.177755 0.389061 0.421159 0.604333
C6    C     C_R   0.822241 0.610913 0.578873 0.604354
C7    C     C_R   0.177651 0.636097 0.535369 0.602227
C8    C     C_R   0.822345 0.363898 0.464606 0.602244
O9    O     O_2   0.203733 0.269695 0.371934 -0.431808
O10   O     O_2   0.796262 0.730261 0.628144 -0.431794
O11   O     O_2   0.203610 0.754448 0.589278 -0.435276
O12   O     O_2   0.796385 0.245567 0.410647 -0.435266
N1    N     N_R   0.201255 0.511943 0.481036 -0.348635
N2    N     N_R   0.798742 0.488043 0.518964 -0.348651
C9    C     C_R   0.276736 0.495165 0.637490 -0.152899
C10   C     C_R   0.723264 0.505056 0.362535 -0.152907
C11   C     C_R   0.278004 0.523019 0.339446 -0.150704
C12   C     C_R   0.721993 0.476735 0.660522 -0.150716
C13   C     C_R   0.326694 0.491664 0.642681 0.593090
C14   C     C_R   0.673306 0.508563 0.357346 0.593112
C15   C     C_R   0.327886 0.519642 0.342945 0.593429
C16   C     C_R   0.672111 0.480108 0.657023 0.593443
C17   C     C_R   0.252504 0.510625 0.486176 0.090667
C18   C     C_R   0.747494 0.489363 0.513821 0.090689
C19   C     C_R   0.101681 0.510583 0.479464 -0.155774
C20   C     C_R   0.898315 0.489397 0.520547 -0.155770
C21   C     C_R   0.127246 0.386156 0.414910 -0.114533
C22   C     C_R   0.872750 0.613820 0.585115 -0.114544
C23   C     C_R   0.127080 0.639399 0.535813 -0.117992
C24   C     C_R   0.872916 0.360588 0.464182 -0.118000
C25   C     C_R   0.101390 0.264444 0.346257 0.478654
C26   C     C_R   0.898607 0.735529 0.653773 0.478645
C27   C     C_R   0.100973 0.766310 0.588700 0.471679
C28   C     C_R   0.899022 0.233675 0.411297 0.471675
C29   C     C_R   0.352873 0.503688 0.495017 -0.372795
C30   C     C_R   0.647126 0.496302 0.504982 -0.372743
H1    H     H_    0.258975 0.535210 0.222504 0.198838
H2    H     H_    0.741022 0.464362 0.777439 0.198826
H3    H     H_    0.256692 0.485077 0.750935 0.198385
H4    H     H_    0.743309 0.515327 0.249115 0.198380
C31   C     C_R   0.974772 0.369525 0.447998 0.022437
C32   C     C_R   0.025224 0.630453 0.552015 0.022438
C33   C     C_R   0.974521 0.622702 0.568532 0.023310
C34   C     C_R   0.025475 0.377273 0.431488 0.023310
C35   C     C_R   0.949327 0.493972 0.512083 0.089684
C36   C     C_R   0.050669 0.506006 0.487932 0.089682
C37   C     C_R   0.948764 0.238735 0.406745 -0.259012
C38   C     C_R   0.051231 0.761246 0.593262 -0.259018
C39   C     C_R   0.948308 0.737943 0.645920 -0.254264
C40   C     C_R   0.051689 0.262030 0.354107 -0.254265
H5    H     H_    0.966104 0.135412 0.372829 0.177988
H6    H     H_    0.033890 0.864568 0.627179 0.177988
H7    H     H_    0.965467 0.831356 0.706778 0.180236
H8    H     H_    0.034530 0.168613 0.293253 0.180235
C41   C     C_1   0.500001 0.065226 0.500010 -0.137212
C42   C     C_1   0.499999 0.934774 0.499990 -0.137214
N3    N     N_1   0.500000 0.500000 0.073640 0.026003
N4    N     N_1   0.500000 0.500000 0.926360 0.026004
F1    F     F_    0.351333 0.532853 0.197391 -0.574842
F2    F     F_    0.648661 0.466643 0.802543 -0.574925
F3    F     F_    0.349062 0.475480 0.791826 -0.574777
F4    F     F_    0.650937 0.524998 0.208236 -0.574854
Cl1   Cl    Cl    0.127920 0.112279 0.240331 -0.442397
Cl2   Cl    Cl    0.872077 0.887696 0.759696 -0.442396
Cl3   Cl    Cl    0.127211 0.938689 0.650029 -0.445269
Cl4   Cl    Cl    0.872783 0.061296 0.349977 -0.445275

loop_
_geom_bond_atom_site_label_1
_geom_bond_atom_site_label_2
_geom_bond_distance
_ccdc_geom_bond_type
C38   H6    1.076049 S    
O5    Zn1   2.011459 S    
O3    C2    1.259039 A    
C33   C39   1.409881 A    
C34   C40   1.409881 A    
C11   C17   1.394443 A    
O5    C3    1.281172 A    
C7    N1    1.361529 A    
O1    C1    1.259068 A    
C19   C21   1.419581 A    
C22   C26   1.411703 A    
C10   H4    1.083235 S    
C9    C13   1.390011 A    
C7    C23   1.406976 A    
C28   Cl4   1.769304 S    
C8    C24   1.406973 A    
C5    C21   1.405443 A    
C20   C24   1.420368 A    
O7    Zn1   2.020605 S    
C27   C38   1.385301 A    
C5    O9    1.348180 S    
C10   C18   1.396301 A    
N1    C17   1.425618 S    
Zn2   N3    1.969784 S    
C31   C37   1.409973 A    
O3    Zn1   1.948138 S    
C6    O10   1.348180 S    
C5    N1    1.361557 A    
C12   C18   1.394422 A    
C6    N2    1.361547 A    
O4    Zn2   1.948139 S    
O2    C2    1.259068 A    
C33   C35   1.417206 A    
C27   Cl3   1.769306 S    
C34   C36   1.417209 A    
C26   Cl2   1.769368 S    
C11   C15   1.387681 A    
N3    N4    1.191024 T    
C12   C16   1.387686 A    
C4    C30   1.468109 S    
O8    Zn2   2.020608 S    
C16   F2    1.357943 S    
N2    C18   1.425591 S    
C13   C29   1.410521 A    
C19   C23   1.420367 A    
C15   F1    1.357957 S    
C2    C42   1.360822 S    
C28   C37   1.385302 A    
O6    C4    1.281165 A    
C32   C38   1.409972 A    
C1    C41   1.360822 S    
C10   C14   1.390015 A    
C8    N2    1.361517 A    
C3    C29   1.468130 S    
O1    Zn1   1.948226 S    
C32   C33   1.420011 A    
C11   H1    1.083342 S    
C12   H2    1.083327 S    
O6    Zn2   2.011456 S    
C19   C36   1.422024 A    
C8    O12   1.347905 S    
C16   C30   1.412057 A    
C14   C30   1.410502 A    
C25   C40   1.384881 A    
O4    C1    1.259039 A    
C26   C39   1.384879 A    
C14   F4    1.357775 S    
C37   H5    1.076047 S    
C39   H7    1.075914 S    
C40   H8    1.075913 S    
C31   C34   1.420013 A    
C20   C22   1.419586 A    
C20   C35   1.422024 A    
C31   C35   1.416622 A    
C21   C25   1.411704 A    
O2    Zn2   1.948225 S    
O7    C4    1.278600 A    
C9    H3    1.083247 S    
O8    C3    1.278604 A    
C25   Cl1   1.769368 S    
C24   C28   1.412523 A    
C23   C27   1.412526 A    
C41   C42   1.162274 T    
C15   C29   1.412077 A    
C6    C22   1.405445 A    
C32   C36   1.416621 A    
C9    C17   1.396323 A    
C13   F3    1.357792 S    
Zn1   N4    1.969784 S    
C7    O11   1.347904 S    
