data_mof_unit_66748.cif
_audit_creation_date              2013-03-05T15:40:47-0500
_audit_creation_method            fapswitch 2.2
_symmetry_space_group_name_H-M    P1
_symmetry_Int_Tables_number       1
_space_group_crystal_system       triclinic
_cell_length_a                    8.333756
_cell_length_b                    12.843408
_cell_length_c                    15.114945
_cell_angle_alpha                 96.089871
_cell_angle_beta                  99.280772
_cell_angle_gamma                 98.131468
_cell_volume                      1566.76377976

loop_
_atom_site_label
_atom_site_type_symbol
_atom_site_description
_atom_site_fract_x
_atom_site_fract_y
_atom_site_fract_z
_atom_type_partial_charge
P1    P     P_3+3 0.998660 0.747790 0.570900 0.426933
O1    O     O_2   0.168170 0.764170 0.543850 -0.297275
O2    O     O_3   0.898670 0.629780 0.545890 -0.353207
O3    O     O_3   0.365980 0.695510 0.380810 -0.329765
O4    O     O_2   0.296532 0.883439 0.436799 -0.347631
O5    O     O_3   0.042864 0.786350 0.687946 -0.605030
O6    O     O_3   0.349050 0.857041 0.270569 -0.595042
H1    H     H_    0.322139 0.696598 0.217797 0.172482
C1    C     C_3   0.332953 0.796508 0.113344 -1.037989
H2    H     H_    0.202897 0.757812 0.087798 0.287507
H3    H     H_    0.340750 0.882987 0.110295 0.286540
P2    P     P_3+3 0.306970 0.411860 0.294270 0.342676
P3    P     P_3+3 0.878956 0.623802 0.217803 0.425824
O7    O     O_2   0.136040 0.444100 0.280280 -0.291916
O8    O     O_3   0.934510 0.640480 0.335500 -0.343963
O9    O     O_2   0.983521 0.547808 0.176706 -0.349804
O10   O     O_3   0.230190 0.276543 0.256344 -0.531456
O11   O     O_3   0.938547 0.742932 0.178090 -0.502571
C2    C     C_3   0.954970 0.825494 0.249240 0.208832
H4    H     H_    0.048078 0.814907 0.307504 0.158795
H5    H     H_    0.834923 0.830009 0.272161 0.105846
C3    C     C_3   0.015672 0.928673 0.216160 0.193920
H6    H     H_    0.086909 0.985607 0.275351 0.076330
H7    H     H_    0.103412 0.914951 0.170050 0.172733
C4    C     C_3   0.746641 0.321779 0.271296 0.370843
H8    H     H_    0.626362 0.345505 0.277063 0.124091
H9    H     H_    0.845884 0.388196 0.302352 0.215171
C5    C     C_3   0.758515 0.302084 0.171105 -1.185966
H10   H     H_    0.663613 0.235569 0.134535 0.275224
H11   H     H_    0.739666 0.373544 0.138280 0.289094
H12   H     H_    0.882325 0.283608 0.163592 0.327997
Ba1   Ba    Ba6+2 0.153570 0.551840 0.456200 1.061254
C6    C     C_3   0.089010 0.703169 0.733021 0.273315
H13   H     H_    0.202526 0.681394 0.712317 0.147933
H14   H     H_    0.988401 0.633742 0.718849 0.180733
C7    C     C_3   0.123602 0.741933 0.834131 -0.932998
H15   H     H_    0.232251 0.806138 0.850666 0.265423
H16   H     H_    0.148499 0.676276 0.873627 0.233820
H17   H     H_    0.015266 0.773447 0.854281 0.264625
C8    C     C_3   0.322282 0.205758 0.298156 0.240125
H18   H     H_    0.245098 0.162327 0.340771 0.061290
H19   H     H_    0.439843 0.245782 0.338789 0.184075
C9    C     C_3   0.353975 0.123300 0.225606 -1.058882
H20   H     H_    0.239272 0.094590 0.175149 0.263013
H21   H     H_    0.395188 0.055006 0.257781 0.277988
H22   H     H_    0.450456 0.157890 0.189630 0.267020
P4    P     P_3+3 0.811620 0.252200 0.429030 0.403901
O12   O     O_2   0.642110 0.235770 0.456130 -0.334965
O13   O     O_3   0.911620 0.370210 0.454030 -0.347014
O14   O     O_3   0.444310 0.304480 0.619110 -0.325350
O15   O     O_3   0.758649 0.227769 0.310490 -0.604950
P5    P     P_3+3 0.918205 0.374536 0.782601 0.416919
O16   O     O_3   0.400800 0.556680 0.607590 -0.372455
O17   O     O_3   0.875770 0.359510 0.664420 -0.279994
O18   O     O_2   0.781357 0.427667 0.817801 -0.341162
O19   O     O_3   0.893036 0.247545 0.816347 -0.449336
Ba2   Ba    Ba6+2 0.656590 0.448150 0.543720 0.817661
P6    P     P_3+3 0.412040 0.831932 0.381198 0.435709
C10   C     C_3   0.388577 0.776554 0.210598 0.473389
H23   H     H_    0.525054 0.776645 0.222691 0.073638
H24   H     H_    0.412030 0.763376 0.068345 0.246908
O20   O     O_3   0.409490 0.443300 0.392340 -0.439524
C11   C     C_3   0.590218 0.773373 0.659987 0.435355
H25   H     H_    0.719034 0.762843 0.657076 0.120554
H26   H     H_    0.507344 0.735114 0.596322 0.150479
C12   C     C_3   0.578322 0.890389 0.667381 -1.006850
H27   H     H_    0.646549 0.929133 0.734052 0.231917
H28   H     H_    0.630824 0.928443 0.613486 0.242100
H29   H     H_    0.447147 0.900637 0.662473 0.267107
P7    P     P_3+3 0.502968 0.596677 0.719389 0.395560
O21   O     O_2   0.674250 0.555830 0.719690 -0.340352
O22   O     O_3   0.544872 0.735004 0.737646 -0.585782
C13   C     C_3   0.959908 0.180008 0.757219 0.046081
H30   H     H_    0.888460 0.172888 0.686767 0.194946
H31   H     H_    0.091064 0.212156 0.756657 0.094959
C14   C     C_3   0.944959 0.068011 0.785002 0.146986
H32   H     H_    0.920250 0.009532 0.722316 0.090179
H33   H     H_    0.835371 0.053384 0.817173 0.151794
P8    P     P_3+3 0.399289 0.163180 0.610688 0.416330
C15   C     C_3   0.454222 0.148126 0.780978 0.867670
H34   H     H_    0.318631 0.147160 0.765929 0.264311
O23   O     O_2   0.476729 0.118909 0.531820 -0.374210
O24   O     O_3   0.507752 0.112302 0.701636 -0.519574
H35   H     H_    0.386785 0.081037 0.893974 0.132906
C16   C     C_3   0.480466 0.071591 0.851283 0.096875
H36   H     H_    0.460177 0.987697 0.817752 0.157267
C17   C     C_R   0.075586 0.180841 0.536061 0.126492
C18   C     C_R   0.729013 0.813777 0.465140 -0.633042
C19   C     C_R   0.693543 0.991241 0.431524 -0.311918
C20   C     C_R   0.630190 0.883461 0.428300 0.335271
C21   C     C_R   0.889277 0.849553 0.512104 0.401350
C22   C     C_R   0.952911 0.961670 0.519781 -0.214108
C23   C     C_R   0.854016 0.033410 0.477512 0.027685
C24   C     C_R   0.917902 0.145603 0.485326 0.143748
C25   C     C_R   0.175385 0.111694 0.573227 0.204068
C26   C     C_R   0.113135 0.003688 0.566941 -0.287126
H37   H     H_    0.614865 0.041446 0.399324 0.216309
H38   H     H_    0.192677 0.953473 0.597836 0.192050
H39   H     H_    0.676947 0.730934 0.461294 0.233661
C27   C     C_R   0.220874 0.489197 0.768989 -0.617206
C28   C     C_R   0.122504 0.451711 0.828979 0.372036
C29   C     C_R   0.184122 0.465987 0.922064 -0.427658
C30   C     C_R   0.346012 0.520084 0.957639 0.092619
C31   C     C_R   0.438699 0.563912 0.894717 -0.231594
C32   C     C_R   0.380026 0.543732 0.801162 0.292359
C33   C     C_R   0.588080 0.569923 0.089274 -0.191106
C34   C     C_R   0.659597 0.574409 0.179814 0.170284
C35   C     C_R   0.407259 0.483452 0.212365 0.453431
C36   C     C_R   0.333513 0.477559 0.120676 -0.228218
C37   C     C_R   0.421140 0.524320 0.057028 0.067876
C38   C     C_R   0.567477 0.536506 0.241565 -0.524352
H40   H     H_    0.667822 0.600786 0.045866 0.158791
H41   H     H_    0.104445 0.431881 0.964522 0.180188
H42   H     H_    0.209987 0.434568 0.100940 0.169603
H43   H     H_    0.559314 0.610626 0.915305 0.136693
H44   H     H_    0.625256 0.540950 0.311705 0.201726
H45   H     H_    0.173504 0.475532 0.696948 0.249206
O25   O     O_3   0.881081 0.964512 0.166039 -0.606457
C39   C     C_3   0.849527 0.056597 0.214851 -0.453079
H46   H     H_    0.950332 0.124204 0.215349 0.256265
H47   H     H_    0.836203 0.044192 0.285494 0.214875
H48   H     H_    0.731123 0.075808 0.181487 0.225669
O26   O     O_3   0.092670 0.050022 0.838404 -0.609470
C40   C     C_3   0.079837 0.057759 0.932061 -0.271404
H49   H     H_    0.981956 0.994446 0.944093 0.135706
H50   H     H_    0.062157 0.140352 0.958438 0.203579
H51   H     H_    0.194832 0.039536 0.972255 0.148602
O27   O     O_3   0.546308 0.248884 0.816683 -0.520328
C41   C     C_3   0.449536 0.309845 0.862325 -0.110716
H52   H     H_    0.384699 0.266807 0.910700 0.091025
H53   H     H_    0.357591 0.333617 0.810037 0.125038
H54   H     H_    0.532373 0.380094 0.902412 0.179223
O28   O     O_3   0.634051 0.102772 0.910018 -0.544567
C42   C     C_3   0.673304 0.020008 0.961541 0.259092
H55   H     H_    0.784714 0.053857 0.013170 0.159941
H56   H     H_    0.704504 0.952837 0.917253 0.126573
C43   C     C_3   0.538974 0.974595 0.012370 -1.052694
H57   H     H_    0.426779 0.932728 0.964562 0.255103
H58   H     H_    0.589129 0.913325 0.051618 0.292388
H59   H     H_    0.504448 0.037478 0.059422 0.256090
O29   O     O_3   0.133616 0.287183 0.551023 -0.596179
C44   C     C_3   0.215425 0.312635 0.480382 0.185368
H60   H     H_    0.133556 0.304111 0.413916 0.095390
H61   H     H_    0.312893 0.265321 0.470108 0.089367
H62   H     H_    0.276570 0.393958 0.502123 0.238549

loop_
_geom_bond_atom_site_label_1
_geom_bond_atom_site_label_2
_geom_bond_distance
_ccdc_geom_bond_type
C12   H28   1.110341 S    
C11   H26   1.110741 S    
C23   C24   1.449254 A    
C13   H30   1.120852 S    
C2    H4    1.109488 S    
P3    C34   1.824863 S    
O14   P8    1.786990 S    
C17   O29   1.364824 S    
C42   C43   1.539951 S    
O12   Ba2   2.880401 S    
P4    O13   1.598150 S    
C33   H40   1.072623 S    
C16   H36   1.118658 S    
C4    C5    1.530114 S    
C43   H58   1.121597 S    
C27   C32   1.393959 A    
C28   C29   1.400892 A    
O4    P6    1.547137 D    
C30   C37   1.523616 S    
C1    H24   1.113769 S    
C5    H10   1.108381 S    
C2    H5    1.117238 S    
C14   H33   1.104498 S    
O11   C2    1.403279 S    
H1    C10   1.120383 S    
C12   H29   1.111078 S    
C33   C34   1.393501 A    
C17   C24   1.397444 A    
C22   C26   1.410604 A    
C6    C7    1.523957 S    
O13   Ba2   2.932617 S    
C35   C36   1.412080 A    
O1    Ba1   2.879981 S    
P1    O1    1.525612 D    
O25   C39   1.406286 S    
C22   C23   1.451293 A    
C8    C9    1.523148 S    
C25   C26   1.398196 A    
C26   H38   1.076300 S    
C17   C25   1.400033 A    
P2    O10   1.764700 S    
P7    O21   1.588404 D    
C1    H2    1.114787 S    
O6    P6    1.747805 S    
P5    O18   1.545388 D    
C41   H54   1.109339 S    
C8    H19   1.094422 S    
C12   H27   1.102350 S    
C11   C12   1.513630 S    
C10   H23   1.122290 S    
P1    C21   1.910799 S    
O27   C41   1.408125 S    
C13   H31   1.114142 S    
C44   H62   1.086810 S    
O2    Ba1   2.931701 S    
Ba1   Ba2   4.610628 S    
C15   O24   1.400881 S    
O16   P7    1.752830 S    
O6    C10   1.411595 S    
C31   C32   1.403298 A    
P5    O17   1.748411 S    
C39   H47   1.116762 S    
C43   H59   1.118357 S    
P5    C28   1.833803 S    
P1    O5    1.750174 S    
O26   C40   1.430839 S    
C2    C3    1.514762 S    
H35   C16   1.101493 S    
C21   C22   1.448054 A    
P2    C35   1.853223 S    
O16   Ba2   2.939023 S    
P4    O15   1.757841 S    
C15   O27   1.411418 S    
Ba2   O20   2.809551 S    
C4    H8    1.101894 S    
C7    H17   1.112476 S    
P1    Ba1   3.423618 S    
Ba2   O21   2.836265 S    
C19   H37   1.079737 S    
P1    O2    1.598130 S    
O10   C8    1.406325 S    
C9    H20   1.112135 S    
C4    O15   1.409130 S    
P8    C25   1.862897 S    
C15   C16   1.533225 S    
P4    Ba2   3.424105 S    
C31   H43   1.075213 S    
P2    O20   1.567548 S    
P4    O12   1.525961 D    
C18   C21   1.396515 A    
C6    H13   1.105818 S    
C14   H32   1.116506 S    
C1    H3    1.109665 S    
O3    Ba1   2.830114 S    
C36   H42   1.076474 S    
P6    C20   1.841789 S    
C40   H51   1.117184 S    
O2    Ba2   2.853758 S    
C8    H18   1.117204 S    
C18   C20   1.398453 A    
P3    O8    1.746554 S    
O28   C42   1.426616 S    
C13   C14   1.534685 S    
C3    H7    1.107344 S    
Ba1   O16   2.810327 S    
C40   H50   1.131076 S    
C41   H52   1.122856 S    
C33   C37   1.416454 A    
C39   H48   1.106184 S    
C3    O25   1.410625 S    
C7    H15   1.111010 S    
O19   C13   1.412312 S    
P3    O11   1.738971 S    
C3    H6    1.120113 S    
C14   O26   1.421191 S    
C34   C38   1.385395 A    
C5    H12   1.111383 S    
O7    Ba1   2.836076 S    
C15   H34   1.114127 S    
P7    C32   1.851893 S    
O8    Ba1   2.812744 S    
P8    O23   1.539158 D    
C42   H56   1.121181 S    
C39   H46   1.118029 S    
C35   C38   1.389476 A    
C42   H55   1.113614 S    
C4    H9    1.105555 S    
C43   H57   1.114876 S    
O5    C6    1.392672 S    
C38   H44   1.083409 S    
C5    H11   1.106991 S    
P2    O7    1.527620 D    
Ba1   O20   2.939948 S    
C9    H21   1.116095 S    
C29   H41   1.076757 S    
O29   C44   1.399120 S    
P8    O24   1.758024 S    
O14   Ba2   2.829468 S    
C7    H16   1.107654 S    
C27   C28   1.395278 A    
C6    H14   1.110863 S    
P4    C24   1.931322 S    
C44   H61   1.101574 S    
C19   C23   1.407255 A    
C29   C30   1.419027 A    
C9    H22   1.109413 S    
Ba1   O13   2.853120 S    
C18   H39   1.082523 S    
C11   H25   1.108019 S    
C11   O22   1.405926 S    
P3    O9    1.544145 D    
O3    P6    1.739011 S    
C30   C31   1.430229 A    
C44   H60   1.105096 S    
P7    O22   1.744641 S    
C27   H45   1.083296 S    
C1    C10   1.528124 S    
C19   C20   1.402830 A    
C36   C37   1.429891 A    
P2    Ba1   3.403352 S    
P5    O19   1.754582 S    
C16   O28   1.414152 S    
C40   H49   1.118599 S    
C41   H53   1.107715 S    
O17   Ba2   2.813346 S    
