data_mof_unit_64087.cif
_audit_creation_date              2013-03-05T15:41:51-0500
_audit_creation_method            fapswitch 2.2
_symmetry_space_group_name_H-M    P1
_symmetry_Int_Tables_number       1
_space_group_crystal_system       triclinic
_cell_length_a                    18.396922
_cell_length_b                    18.437297
_cell_length_c                    18.448224
_cell_angle_alpha                 119.827861
_cell_angle_beta                  119.63034
_cell_angle_gamma                 90.579617
_cell_volume                      4438.31522749

loop_
_atom_site_label
_atom_site_type_symbol
_atom_site_description
_atom_site_fract_x
_atom_site_fract_y
_atom_site_fract_z
_atom_type_partial_charge
Zn1   Zn    Zn3+2 0.956210 0.542060 0.085830 0.965461
Zn2   Zn    Zn3+2 0.129620 0.543770 0.085850 1.092048
Zn3   Zn    Zn3+2 0.957930 0.543770 0.914160 1.014520
Zn4   Zn    Zn3+2 0.956240 0.370390 0.914160 0.991570
O1    O     O_3   0.000000 0.500000 0.000000 -0.517651
O2    O     O_R   0.053940 0.324750 0.939940 -0.642482
O3    O     O_R   0.884790 0.613970 0.060060 -0.644819
O4    O     O_R   0.175250 0.615170 0.229170 -0.614095
O5    O     O_R   0.886020 0.446110 0.770840 -0.614325
O6    O     O_R   0.176940 0.616860 0.060100 -0.577474
O7    O     O_R   0.883150 0.323060 0.939910 -0.646527
O8    O     O_R   0.056770 0.616860 0.939930 -0.648167
O9    O     O_R   0.883130 0.443210 0.060060 -0.646356
O10   O     O_R   0.053880 0.613970 0.229150 -0.651150
O11   O     O_R   0.884840 0.324750 0.770840 -0.641696
O12   O     O_R   0.175280 0.446110 0.060100 -0.576410
O13   O     O_R   0.885990 0.615170 0.939900 -0.640781
C1    C     C_R   0.138445 0.361471 0.996868 0.903976
C2    C     C_R   0.861153 0.638113 0.999770 0.845863
C3    C     C_R   0.138513 0.639683 0.276995 0.841724
C4    C     C_R   0.861299 0.361630 0.723123 0.912588
C5    C     C_R   0.141170 0.637119 0.997011 0.779706
C6    C     C_R   0.859452 0.358574 0.000633 0.772092
C7    C     C_3   0.795757 0.202421 0.938962 -0.385901
H1    H     H_    0.863239 0.197006 0.972883 0.195345
H2    H     H_    0.768113 0.177807 0.858692 0.196326
C8    C     C_3   0.735783 0.143252 0.938549 -0.428926
H3    H     H_    0.679612 0.091259 0.857966 0.190502
H4    H     H_    0.773194 0.107363 0.969520 0.199862
H5    H     H_    0.909718 0.330280 0.147682 0.184788
C9    C     C_3   0.840844 0.332243 0.111713 -0.388121
C10   C     C_3   0.707516 0.306590 0.952522 -0.397399
C11   C     C_3   0.802038 0.300884 0.000765 0.108352
H6    H     H_    0.711662 0.376806 0.998178 0.199848
H7    H     H_    0.679852 0.287667 0.874109 0.150116
C12   C     C_3   0.699426 0.199753 0.000712 0.164997
C13   C     C_3   0.780564 0.273977 0.113015 0.029635
C14   C     C_3   0.644988 0.243748 0.946943 -0.042291
H8    H     H_    0.594805 0.189495 0.864643 0.163335
H9    H     H_    0.846164 0.402733 0.158119 0.176908
H10   H     H_    0.754766 0.317637 0.155475 0.184873
C15   C     C_2   0.721183 0.777071 0.939916 -0.139013
C16   C     C_2   0.696824 0.809089 0.004381 -0.284762
H11   H     H_    0.698379 0.791323 0.883239 0.192865
H12   H     H_    0.720044 0.798564 0.063699 0.156814
C17   C     C_2   0.779890 0.723409 0.942571 -0.145513
C18   C     C_2   0.803188 0.690895 0.998730 -0.286208
H13   H     H_    0.803636 0.709577 0.895129 0.187635
H14   H     H_    0.779022 0.700910 0.044665 0.157136
C19   C     C_2   0.732527 0.279055 0.444531 -0.197023
C20   C     C_2   0.706230 0.190660 0.385844 -0.339133
H15   H     H_    0.707481 0.315707 0.411444 0.212234
H16   H     H_    0.736983 0.155090 0.418564 0.175770
C21   C     C_2   0.802360 0.328157 0.554456 0.311087
C22   C     C_2   0.795816 0.307369 0.612907 -0.059175
C23   C     C_2   0.325620 0.268781 0.009645 -0.015684
C24   C     C_2   0.309448 0.197087 0.010772 0.145189
C25   C     C_2   0.279562 0.333952 0.028535 0.365202
C26   C     C_2   0.191234 0.304472 0.982110 -0.378186
H17   H     H_    0.154796 0.233386 0.928252 0.161740
C27   C     C_2   0.219250 0.745582 0.910547 0.203989
C28   C     C_2   0.300112 0.804698 0.996369 -0.209962
H18   H     H_    0.323230 0.816393 0.069256 0.141565
C29   C     C_2   0.163162 0.698867 0.918990 -0.272265
C30   C     C_2   0.196951 0.669454 0.978074 0.144645
H19   H     H_    0.093940 0.694884 0.881616 0.187457
C31   C     C_2   0.221024 0.780941 0.555750 -0.290773
C32   C     C_2   0.307332 0.790383 0.612918 0.186326
H20   H     H_    0.191547 0.822369 0.591858 0.169954
C33   C     C_2   0.163108 0.718729 0.443847 -0.117680
C34   C     C_2   0.194674 0.701555 0.387441 -0.208246
H21   H     H_    0.092722 0.690381 0.407641 0.181181
H22   H     H_    0.263669 0.734480 0.422739 0.185788
Zn5   Zn    Zn3+2 0.543830 0.957900 0.914170 1.003387
Zn6   Zn    Zn3+2 0.542120 0.956180 0.085840 1.007434
Zn7   Zn    Zn3+2 0.370430 0.956180 0.914150 0.998977
Zn8   Zn    Zn3+2 0.543800 0.129560 0.085840 0.978832
O14   O     O_3   0.500040 0.999960 0.000000 -0.505542
O15   O     O_R   0.615200 0.175200 0.229160 -0.630026
O16   O     O_R   0.446160 0.885990 0.770850 -0.588601
O17   O     O_R   0.614060 0.884790 0.060100 -0.636570
O18   O     O_R   0.324760 0.053850 0.939900 -0.609621
O19   O     O_R   0.443270 0.883090 0.060070 -0.621845
O20   O     O_R   0.616890 0.176890 0.060090 -0.645133
O21   O     O_R   0.323100 0.883090 0.939900 -0.638384
O22   O     O_R   0.616910 0.056740 0.939940 -0.648963
O23   O     O_R   0.615250 0.885990 0.939940 -0.631256
O24   O     O_R   0.446110 0.175200 0.060060 -0.642132
O25   O     O_R   0.614030 0.053850 0.229160 -0.641332
O26   O     O_R   0.324790 0.884790 0.770830 -0.661288
C35   C     C_R   0.640103 0.138177 0.276664 0.881106
C36   C     C_R   0.361543 0.859560 0.722781 0.752010
C37   C     C_R   0.638875 0.861846 0.000350 0.858845
C38   C     C_R   0.361848 0.138771 0.000155 0.813227
C39   C     C_R   0.358679 0.858242 0.998179 0.863559
C40   C     C_R   0.640915 0.141360 0.999559 0.762261
C41   C     C_3   0.591321 0.292353 0.985925 -0.892432
H23   H     H_    0.634315 0.345527 0.069081 0.260659
H24   H     H_    0.557823 0.323268 0.945570 0.256438
H25   H     H_    0.538155 0.244652 0.968646 0.248213
N1    N     N_R   0.878486 0.397038 0.596649 0.217042
O27   O     O_R   0.868909 0.441992 0.557988 -0.373508
O28   O     O_R   0.958504 0.403636 0.659522 -0.390546
C42   C     C_3   0.714626 0.238798 0.572409 -0.913272
H26   H     H_    0.709535 0.252296 0.635243 0.243124
H27   H     H_    0.652431 0.240596 0.517013 0.262520
H28   H     H_    0.719173 0.171360 0.536712 0.258617
C43   C     C_3   0.389672 0.284138 0.985651 -0.825031
H29   H     H_    0.383334 0.336348 0.971400 0.273101
H30   H     H_    0.459148 0.306270 0.051063 0.280525
H31   H     H_    0.375529 0.222330 0.915554 0.202365
N2    N     N_R   0.253070 0.184548 0.039665 0.177947
O29   O     O_R   0.205413 0.104584 0.996593 -0.368228
O30   O     O_R   0.262336 0.250292 0.121382 -0.363318
N3    N     N_R   0.330061 0.426750 0.090600 0.239406
O31   O     O_R   0.405886 0.460252 0.177903 -0.319122
O32   O     O_R   0.311948 0.470674 0.049871 -0.321471
C44   C     C_3   0.182088 0.726226 0.806685 -0.717741
H32   H     H_    0.119548 0.668019 0.746616 0.243596
H33   H     H_    0.166298 0.783860 0.805859 0.247854
H34   H     H_    0.230340 0.710360 0.786596 0.236383
N4    N     N_R   0.283449 0.659473 0.013245 0.220952
O33   O     O_R   0.335869 0.679445 0.105108 -0.314149
O34   O     O_R   0.307299 0.624540 0.950987 -0.340212
N5    N     N_R   0.345377 0.727634 0.571329 0.208848
O35   O     O_R   0.425573 0.754954 0.598011 -0.349008
O36   O     O_R   0.304061 0.642660 0.516488 -0.351245
C45   C     C_3   0.835750 0.238032 0.174562 -0.895101
H35   H     H_    0.869884 0.198122 0.142445 0.251069
H36   H     H_    0.887428 0.294580 0.254756 0.264079
H37   H     H_    0.793461 0.196782 0.176621 0.239883

loop_
_geom_bond_atom_site_label_1
_geom_bond_atom_site_label_2
_geom_bond_distance
_ccdc_geom_bond_type
N1    O27   1.301326 A    
O18   C38   1.284405 A    
C8    H4    1.111051 S    
C21   N1    1.443204 S    
C7    C8    1.538380 S    
Zn6   O19   1.951226 S    
C45   H35   1.109221 S    
N2    O30   1.301877 A    
C41   H23   1.108380 S    
C18   H14   1.080915 S    
Zn8   O14   1.949791 S    
C23   C24   1.364454 D    
O4    C3    1.280070 A    
Zn1   O1    1.951921 S    
C12   C13   1.572727 S    
C7    H2    1.113374 S    
O20   C40   1.279718 A    
H5    C9    1.113790 S    
C2    C18   1.450498 S    
C24   N2    1.441432 S    
N3    O31   1.301062 A    
O8    C5    1.280432 A    
C43   H29   1.110435 S    
O9    C6    1.280189 A    
C15   C17   1.471469 S    
C44   H32   1.111183 S    
C42   H26   1.111402 S    
Zn3   O8    1.951082 S    
Zn7   O21   1.954966 S    
C20   C35   1.444860 S    
C9    H9    1.113239 S    
C21   C22   1.364821 D    
C23   C43   1.516021 S    
C32   C36   1.460546 S    
Zn8   O24   1.935907 S    
C43   H30   1.109443 S    
C6    C11   1.493104 S    
C19   H15   1.086312 S    
C9    C11   1.550121 S    
C3    C34   1.450057 S    
C33   C34   1.339337 D    
C10   C14   1.553577 S    
Zn5   O23   1.937734 S    
O25   C35   1.276402 A    
Zn2   O12   1.935886 S    
O15   C35   1.283853 A    
C13   C45   1.543208 S    
C26   H17   1.087439 S    
N1    O28   1.301861 A    
Zn5   O16   1.934966 S    
C28   C39   1.430629 S    
C15   H11   1.086345 S    
C14   C41   1.540747 S    
C42   H27   1.110378 S    
N2    O29   1.301256 A    
C41   H24   1.111077 S    
O24   C38   1.273590 A    
Zn8   O15   1.937637 S    
C14   H8    1.114712 S    
O2    C1    1.278732 A    
C17   H13   1.086351 S    
C31   C32   1.348933 D    
C10   H7    1.113422 S    
O10   C3    1.279823 A    
C7    H1    1.113223 S    
Zn4   O2    1.936054 S    
Zn7   O18   1.936138 S    
C4    C22   1.454777 S    
Zn6   O17   1.935062 S    
Zn8   O20   1.953314 S    
N3    O32   1.301789 A    
C25   C26   1.346240 D    
C22   C42   1.518631 S    
O6    C5    1.267792 A    
C9    C13   1.553170 S    
C31   H20   1.086567 S    
C44   H34   1.110677 S    
C10   H6    1.113989 S    
O16   C36   1.279424 A    
C27   C29   1.450928 S    
C5    C30   1.442172 S    
C28   H18   1.086131 S    
Zn3   O5    1.933953 S    
O17   C37   1.280623 A    
C12   C40   1.499768 S    
O26   C36   1.283781 A    
O19   C39   1.282033 A    
C19   C20   1.331605 D    
C19   C21   1.468517 S    
C30   N4    1.445982 S    
Zn5   O22   1.952193 S    
Zn4   O7    1.953315 S    
C16   H12   1.080908 S    
O22   C40   1.279690 A    
O3    C2    1.281602 A    
C24   C38   1.456652 S    
N5    O35   1.301118 A    
Zn2   O1    1.949658 S    
Zn1   O9    1.952342 S    
C15   C16   1.340751 D    
N4    O34   1.301774 A    
Zn2   O6    1.954863 S    
C45   H37   1.109541 S    
C41   H25   1.107769 S    
C34   H22   1.085144 S    
C17   C18   1.341778 D    
C27   C44   1.511835 S    
Zn1   O3    1.937734 S    
Zn2   O4    1.936200 S    
Zn7   O14   1.949507 S    
Zn4   O1    1.949945 S    
Zn3   O1    1.957053 S    
C45   H36   1.111016 S    
C8    C12   1.559440 S    
C7    C11   1.554164 S    
C43   H31   1.110812 S    
C16   C37   1.450076 S    
C31   C33   1.468820 S    
C10   C11   1.547095 S    
Zn4   O11   1.937639 S    
C12   C14   1.574631 S    
C29   C30   1.339198 D    
O21   C39   1.262716 A    
O5    C4    1.278139 A    
C25   N3    1.438279 S    
O23   C37   1.283576 A    
O7    C6    1.277794 A    
O13   C2    1.282875 A    
C23   C25   1.476216 S    
Zn3   O13   1.935166 S    
C13   H10   1.111239 S    
C27   C28   1.352514 D    
Zn6   O14   1.957206 S    
C44   H33   1.109835 S    
Zn6   O25   1.933997 S    
C1    C26   1.455736 S    
O11   C4    1.284236 A    
O12   C1    1.281109 A    
Zn5   O14   1.951922 S    
Zn7   O26   1.936154 S    
C8    H3    1.113590 S    
N5    O36   1.301753 A    
C33   H21   1.086199 S    
Zn1   O10   1.934965 S    
C20   H16   1.085447 S    
N4    O33   1.301409 A    
C32   N5    1.442693 S    
C42   H28   1.108459 S    
C29   H19   1.087219 S    
