data_mof_unit_27745.cif
_audit_creation_date              2013-03-05T15:55:31-0500
_audit_creation_method            fapswitch 2.2
_symmetry_space_group_name_H-M    P1
_symmetry_Int_Tables_number       1
_space_group_crystal_system       triclinic
_cell_length_a                    20.129692
_cell_length_b                    7.273165
_cell_length_c                    13.645335
_cell_angle_alpha                 90.01047
_cell_angle_beta                  102.766522
_cell_angle_gamma                 89.991673
_cell_volume                      1948.37915574

loop_
_atom_site_label
_atom_site_type_symbol
_atom_site_description
_atom_site_fract_x
_atom_site_fract_y
_atom_site_fract_z
_atom_type_partial_charge
O1    O     O_R   0.449560 0.506810 0.599700 -0.583715
O2    O     O_R   0.550440 0.006810 0.400300 -0.583696
O3    O     O_R   0.587960 0.180060 0.595760 -0.600920
O4    O     O_R   0.412040 0.680060 0.404240 -0.600873
C1    C     C_R   0.614842 0.344342 0.617025 0.945372
C2    C     C_R   0.385165 0.844342 0.382955 0.945362
O5    O     O_R   0.452380 0.177430 0.611700 -0.591145
O6    O     O_R   0.547620 0.677430 0.388300 -0.591121
O7    O     O_R   0.413900 0.001890 0.416350 -0.598588
O8    O     O_R   0.586100 0.501890 0.583650 -0.598596
C3    C     C_R   0.436364 0.346128 0.637372 0.905661
C4    C     C_R   0.563648 0.846081 0.362645 0.905633
O9    O     O_3   0.487530 0.337490 0.435890 -0.289419
O10   O     O_3   0.512470 0.837490 0.564110 -0.289490
V1    V     V_3+5 0.502310 0.064660 0.511890 1.164862
V2    V     V_3+5 0.497690 0.564660 0.488110 1.164937
C5    C     C_R   0.612627 0.958742 0.120510 -0.161707
C6    C     C_R   0.387227 0.461762 0.879022 -0.161716
H1    H     H_    0.518661 0.949056 0.169705 0.111565
H2    H     H_    0.481185 0.452245 0.829804 0.111752
H3    H     H_    0.698036 0.028399 0.002996 0.159380
H4    H     H_    0.301699 0.532660 0.996203 0.158764
H5    H     H_    0.587984 0.009085 0.046637 0.120098
H6    H     H_    0.411772 0.513614 0.952600 0.120098
C7    C     C_R   0.603491 0.859068 0.285657 -0.078355
C8    C     C_R   0.396547 0.359361 0.714396 -0.078784
C9    C     C_R   0.930691 0.793065 0.311331 -0.160702
C10   C     C_R   0.069459 0.291081 0.689003 -0.160532
C11   C     C_R   0.894419 0.760978 0.385207 -0.083293
C12   C     C_R   0.105792 0.258072 0.615298 -0.083302
C13   C     C_R   0.824071 0.786161 0.364766 -0.171540
C14   C     C_R   0.176099 0.283943 0.635645 -0.171523
C15   C     C_R   0.788051 0.847308 0.269107 0.091468
C16   C     C_R   0.212007 0.346759 0.731012 0.091372
C17   C     C_R   0.826099 0.887071 0.195053 0.069870
C18   C     C_R   0.173881 0.387515 0.804855 0.070036
C19   C     C_R   0.715665 0.869085 0.244119 0.086383
C20   C     C_R   0.284359 0.369252 0.755913 0.086212
C21   C     C_R   0.683485 0.934020 0.146809 0.157308
C22   C     C_R   0.316420 0.436040 0.852875 0.157479
C23   C     C_R   0.722184 0.976648 0.076797 -0.197235
C24   C     C_R   0.277646 0.479554 0.922672 -0.197084
C25   C     C_R   0.792296 0.953893 0.100506 -0.170679
C26   C     C_R   0.207574 0.455968 0.899087 -0.170138
C27   C     C_R   0.673880 0.830285 0.312389 -0.236903
C28   C     C_R   0.326219 0.329485 0.687860 -0.236955
C29   C     C_R   0.573001 0.923342 0.189950 -0.167271
C30   C     C_R   0.426909 0.425573 0.809745 -0.167046
C31   C     C_R   0.897317 0.856007 0.216466 -0.157426
C32   C     C_R   0.102712 0.355697 0.783573 -0.157978
H7    H     H_    0.694395 0.783270 0.387904 0.104988
H8    H     H_    0.305794 0.281016 0.612611 0.105202
H9    H     H_    0.985042 0.766997 0.327838 0.115664
H10   H     H_    0.015158 0.264323 0.672624 0.115924
H11   H     H_    0.799594 0.756022 0.425530 0.116883
H12   H     H_    0.200636 0.252989 0.575045 0.116807
H13   H     H_    0.920888 0.713025 0.458603 0.123533
H14   H     H_    0.079417 0.208782 0.542145 0.123439
H15   H     H_    0.820054 0.990526 0.044059 0.176029
H16   H     H_    0.179767 0.493277 0.955377 0.175628
C33   C     C_R   0.212109 0.012979 0.238724 -0.085409
C34   C     C_R   0.787943 0.512912 0.761132 -0.085219
H17   H     H_    0.183759 0.139115 0.230515 0.226533
H18   H     H_    0.816321 0.638990 0.769280 0.226493
C35   C     C_R   0.277985 0.012809 0.299533 -0.119375
C36   C     C_R   0.722056 0.512768 0.700348 -0.119051
H19   H     H_    0.298613 0.140191 0.334715 0.143631
H20   H     H_    0.701435 0.640131 0.665144 0.143626
C37   C     C_R   0.316042 0.849774 0.315839 -0.184461
C38   C     C_R   0.683981 0.349775 0.684096 -0.184622
C39   C     C_R   0.285987 0.687329 0.271381 -0.257092
C40   C     C_R   0.714041 0.187339 0.728533 -0.257150
H21   H     H_    0.313174 0.558048 0.285405 0.169830
H22   H     H_    0.686849 0.058078 0.714506 0.169954
C41   C     C_R   0.219724 0.685838 0.211571 0.399228
C42   C     C_R   0.780312 0.185813 0.788313 0.399449
C43   C     C_R   0.182289 0.852411 0.190855 -0.320392
C44   C     C_R   0.817746 0.352376 0.809052 -0.320503
O11   O     O_R   0.913920 0.203370 0.916260 -0.554893
O12   O     O_R   0.086080 0.703370 0.083740 -0.554887
O13   O     O_R   0.047620 0.535540 0.888290 -0.603382
O14   O     O_R   0.952380 0.035540 0.111710 -0.603165
C45   C     C_R   0.063492 0.367908 0.862100 0.908586
C46   C     C_R   0.936537 0.867951 0.137935 0.908109
O15   O     O_R   0.912040 0.532780 0.904220 -0.571468
O16   O     O_R   0.087960 0.032780 0.095780 -0.571442
O17   O     O_R   0.949550 0.708160 0.099720 -0.579163
O18   O     O_R   0.050450 0.208160 0.900280 -0.579175
C47   C     C_R   0.886062 0.363480 0.880880 0.917581
C48   C     C_R   0.113951 0.863488 0.119088 0.917444
O19   O     O_3   0.012480 0.375300 0.064060 -0.254776
O20   O     O_3   0.987520 0.875300 0.935940 -0.254867
V3    V     V_3+5 0.997690 0.648180 0.988110 1.252117
V4    V     V_3+5 0.002310 0.148180 0.011890 1.252261
N1    N     N_R   0.190475 0.511495 0.178647 0.216646
O21   O     O_R   0.225081 0.395253 0.137301 -0.480749
O22   O     O_R   0.139450 0.452197 0.214017 -0.422684
N2    N     N_R   0.809567 0.011436 0.821160 0.216633
O23   O     O_R   0.774860 0.894975 0.862170 -0.481456
O24   O     O_R   0.860648 0.952278 0.785861 -0.422721

loop_
_geom_bond_atom_site_label_1
_geom_bond_atom_site_label_2
_geom_bond_distance
_ccdc_geom_bond_type
C2    C37   1.487670 S    
C36   H20   1.083085 S    
O14   V4    2.035260 S    
C9    C11   1.388949 A    
O17   V3    2.025002 S    
O15   V3    2.028594 S    
N1    O21   1.300668 A    
O1    C3    1.327117 A    
C46   O17   1.323354 A    
C40   C42   1.401506 A    
O2    C4    1.327158 A    
C2    O7    1.318616 A    
C41   N1    1.428107 S    
C21   C23   1.394531 A    
C36   C38   1.402502 A    
O5    C3    1.334824 A    
C5    H5    1.084129 S    
C6    H6    1.083998 S    
C31   C46   1.467339 S    
C20   C22   1.423196 A    
C42   C44   1.421745 A    
H1    C29   1.083587 S    
C27   H7    1.077623 S    
C42   N2    1.428130 S    
C28   H8    1.077479 S    
C33   H17   1.073075 S    
C5    C21   1.403319 A    
C37   C39   1.402742 A    
C6    C22   1.403259 A    
C34   H18   1.073121 S    
O16   V4    2.028557 S    
C10   C32   1.397229 A    
C33   C43   1.406221 A    
C35   H19   1.083085 S    
C17   C31   1.416489 A    
C13   C15   1.417444 A    
C12   C14   1.393485 A    
C17   C25   1.405630 A    
C7    C29   1.395222 A    
C8    C30   1.395222 A    
C22   C24   1.394550 A    
C45   O18   1.323271 A    
O6    V2    2.035534 S    
C23   C25   1.386386 A    
C24   C26   1.386367 A    
O13   C45   1.329090 A    
C32   C45   1.467365 S    
C44   C47   1.504192 S    
O18   V4    2.025181 S    
C43   C48   1.504149 S    
O11   C47   1.335658 A    
C34   C36   1.400289 A    
O11   V4    2.000887 S    
C40   H22   1.083456 S    
O16   C48   1.348097 A    
C39   H21   1.083459 S    
C10   H10   1.083836 S    
C3    C8    1.458947 S    
C15   C19   1.430001 A    
C14   C16   1.417326 A    
O4    V2    2.028457 S    
C1    C38   1.487681 S    
O13   V3    2.034942 S    
O6    C4    1.334708 A    
N1    O22   1.301226 A    
O1    V2    2.021533 S    
O2    V1    2.021359 S    
C41   C43   1.421703 A    
H2    C30   1.083569 S    
H3    C23   1.084355 S    
O4    C2    1.317267 A    
C11   H13   1.082943 S    
N2    O24   1.301179 A    
C18   C26   1.405578 A    
C19   C27   1.414699 A    
C7    C27   1.398594 A    
C18   C32   1.416502 A    
O15   C47   1.348163 A    
C16   C20   1.429948 A    
C34   C44   1.406220 A    
C5    C29   1.390885 A    
O3    C1    1.317321 A    
C6    C30   1.390872 A    
C9    H9    1.083851 S    
C25   H15   1.080194 S    
O14   C46   1.328977 A    
C4    C7    1.458829 S    
C10   C12   1.388889 A    
O7    V1    2.012423 S    
C1    O8    1.318602 A    
C19   C21   1.423309 A    
O8    V2    2.012409 S    
O19   V4    1.792387 S    
C39   C41   1.401510 A    
H4    C24   1.084231 S    
C26   H16   1.080201 S    
C35   C37   1.402475 A    
C12   H14   1.082819 S    
O5    V1    2.035216 S    
O20   V3    1.792572 S    
C15   C17   1.426017 A    
C16   C18   1.426083 A    
O12   C48   1.335664 A    
C20   C28   1.414784 A    
C8    C28   1.398577 A    
C33   C35   1.400239 A    
C11   C13   1.393569 A    
N2    O23   1.300719 A    
O9    V2    1.792972 S    
O10   V1    1.793156 S    
O3    V1    2.028490 S    
C38   C40   1.402667 A    
C13   H11   1.076537 S    
O12   V3    2.000892 S    
C14   H12   1.076480 S    
C9    C31   1.397249 A    
