data_mof_unit_42515.cif
_audit_creation_date              2012-10-26T20:33:18-0400
_audit_creation_method            fapswitch 2.2
_symmetry_space_group_name_H-M    P1
_symmetry_Int_Tables_number       1
_space_group_crystal_system       triclinic
_cell_length_a                    17.68273
_cell_length_b                    10.86206
_cell_length_c                    9.597456
_cell_angle_alpha                 90.981443
_cell_angle_beta                  90.886518
_cell_angle_gamma                 91.550831
_cell_volume                      1842.21201597

loop_
_atom_site_label
_atom_site_type_symbol
_atom_type_description
_atom_site_fract_x
_atom_site_fract_y
_atom_site_fract_z
_atom_type_partial_charge
C1    C     C_R   0.499833 0.262208 0.498860 0.560892
C2    C     C_R   0.113791 0.488407 0.497806 0.052757
C3    C     C_R   0.503285 0.065623 0.622932 0.011583
C4    C     C_R   0.355557 0.499120 0.499242 0.539041
C5    C     C_R   0.495617 0.128026 0.497082 0.032765
C6    C     C_R   0.479796 0.058416 0.373263 0.064058
C7    C     C_R   0.478158 0.930065 0.377240 -0.154523
C8    C     C_R   0.493464 0.869572 0.501743 -0.018738
C9    C     C_R   0.502085 0.938353 0.624941 0.004424
C10   C     C_3   0.563835 0.933950 0.732229 -0.245116
C11   C     C_3   0.566601 0.073950 0.729257 -0.131221
C12   C     C_R   0.884230 0.488047 0.494492 0.037869
C13   C     C_R   0.538691 0.589532 0.077019 0.135933
C14   C     C_R   0.450149 0.426312 0.068655 0.105705
C15   C     C_R   0.451198 0.426808 0.920487 -0.007817
C16   C     C_R   0.499304 0.737181 0.500908 0.551354
C17   C     C_R   0.540873 0.587265 0.931099 0.163041
C18   C     C_3   0.624269 0.622679 0.936160 -0.148519
C19   C     C_3   0.619089 0.628826 0.094772 -0.256882
C20   C     C_R   0.644103 0.499011 0.500532 0.535991
C21   C     C_R   0.843910 0.412390 0.585414 -0.114948
C22   C     C_R   0.765151 0.415904 0.587851 -0.147266
C23   C     C_1   0.964948 0.486628 0.493858 -0.038208
C24   C     C_R   0.726640 0.495932 0.500187 0.011366
C25   C     C_R   0.767370 0.570541 0.408219 -0.135535
C26   C     C_R   0.846026 0.566850 0.405710 -0.114255
C27   C     C_3   0.544361 0.134455 0.867200 -0.401530
C28   C     C_3   0.387342 0.349218 0.129231 -0.338906
C29   C     C_3   0.679343 0.524173 0.888814 -0.374981
C30   C     C_3   0.113397 0.451797 0.758614 -0.403515
C31   C     C_1   0.032762 0.486860 0.494558 -0.031839
C32   C     C_R   0.154024 0.472609 0.623772 0.015463
C33   C     C_R   0.233232 0.476576 0.622857 -0.109520
C34   C     C_R   0.272317 0.495980 0.498340 -0.001704
C35   C     C_R   0.231307 0.511589 0.373899 -0.144059
C36   C     C_R   0.152515 0.507770 0.373800 -0.130619
Cu1   Cu    Cu3+1 0.500000 0.499980 0.640670 0.919598
Cu2   Cu    Cu3+1 0.500000 0.500020 0.359330 0.935109
H1    H     H_    0.873302 0.350942 0.654154 0.107080
H2    H     H_    0.625189 0.724133 0.138298 0.103770
H3    H     H_    0.738418 0.632893 0.340060 0.102759
H4    H     H_    0.877025 0.625779 0.335290 0.107278
H5    H     H_    0.264360 0.463972 0.719476 0.122218
H6    H     H_    0.260000 0.527748 0.276854 0.124579
H7    H     H_    0.121684 0.520459 0.276854 0.108293
H8    H     H_    0.585288 0.109646 0.950321 0.121004
H9    H     H_    0.546762 0.235872 0.857366 0.168908
H10   H     H_    0.486465 0.104540 0.898071 0.139684
H11   H     H_    0.395632 0.325405 0.238293 0.220936
H12   H     H_    0.468056 0.878367 0.280827 0.135591
H13   H     H_    0.333529 0.398639 0.118657 0.093096
H14   H     H_    0.380610 0.260760 0.070042 0.083179
H15   H     H_    0.705775 0.554330 0.791198 0.159290
H16   H     H_    0.726961 0.515847 0.964612 0.110849
H17   H     H_    0.650815 0.432344 0.874523 0.159852
H18   H     H_    0.153584 0.441035 0.847413 0.115063
H19   H     H_    0.077422 0.531488 0.782245 0.136536
H20   H     H_    0.077123 0.366907 0.749360 0.133881
H21   H     H_    0.416635 0.083499 0.200223 0.213210
H22   H     H_    0.510935 0.087046 0.175069 0.224921
H23   H     H_    0.543255 0.894363 0.831306 0.136918
H24   H     H_    0.615854 0.891784 0.691425 0.115278
H25   H     H_    0.620219 0.112664 0.686684 0.132584
H26   H     H_    0.412701 0.366956 0.860080 0.120900
H27   H     H_    0.636212 0.714688 0.891065 0.120610
H28   H     H_    0.652764 0.559678 0.150220 0.163802
H29   H     H_    0.734264 0.355822 0.657169 0.104132
N1    N     N_R   0.500470 0.500930 0.147930 -0.220050
N2    N     N_R   0.500480 0.500890 0.852020 -0.247164
N3    N     N_3   0.468557 0.115885 0.241930 -0.623521
O1    O     O_R   0.500000 0.319640 0.618810 -0.517507
O2    O     O_R   0.500010 0.319680 0.381230 -0.471744
O3    O     O_R   0.391250 0.499990 0.618840 -0.506223
O4    O     O_R   0.391260 0.500020 0.381250 -0.518099
O5    O     O_R   0.499990 0.680320 0.618770 -0.489750
O6    O     O_R   0.500000 0.680360 0.381190 -0.508295
O7    O     O_R   0.608740 0.499980 0.618750 -0.506312
O8    O     O_R   0.608750 0.500010 0.381160 -0.504784

loop_
_geom_bond_atom_site_label_1
_geom_bond_atom_site_label_2
_ccdc_geom_bond_type
C27   H10   S    
C17   N2    A    
Cu1   N2    S    
C16   O5    A    
C35   C36   A    
C7    C8    A    
Cu2   O6    S    
C18   H27   S    
C12   C23   S    
C1    O1    A    
C20   O7    A    
C1    C5    S    
C18   C19   S    
C11   H25   S    
C5    C6    A    
C28   H13   S    
C29   H16   S    
C2    C36   A    
C30   H19   S    
C19   H28   S    
C2    C32   A    
C34   C35   A    
C20   C24   S    
C8    C9    A    
C15   H26   S    
H22   N3    S    
C9    C10   S    
C4    O4    A    
Cu1   O5    S    
C8    C16   S    
C21   C22   A    
C10   H24   S    
C33   C34   A    
Cu2   O2    S    
C15   N2    A    
C4    C34   S    
C1    O2    A    
C13   C19   S    
C33   H5    S    
C24   C25   A    
C19   H2    S    
C25   H3    S    
C29   H17   S    
C25   C26   A    
C30   H18   S    
C12   C21   A    
C12   C26   A    
C2    C31   S    
C23   C31   T    
Cu1   Cu2   S    
C3    C9    A    
C28   H11   S    
C21   H1    S    
C11   C27   S    
C17   C18   S    
C36   H7    S    
C18   C29   S    
C35   H6    S    
C4    O3    A    
C27   H8    S    
Cu2   N1    S    
Cu1   O1    S    
C22   C24   A    
C10   H23   S    
C26   H4    S    
Cu2   O4    S    
C27   H9    S    
C6    N3    S    
Cu1   O3    S    
C16   O6    A    
C7    H12   S    
C3    C5    A    
C6    C7    A    
C13   C17   A    
Cu2   O8    S    
C20   O8    A    
C32   C33   A    
C30   C32   S    
C28   H14   S    
C29   H15   S    
C30   H20   S    
C22   H29   S    
C3    C11   S    
C10   C11   S    
H21   N3    S    
Cu1   O7    S    
C14   N1    A    
C14   C15   A    
C14   C28   S    
C13   N1    A    
