data_mof_unit_48036.cif
_audit_creation_date              2012-12-10T17:17:51-0500
_audit_creation_method            fapswitch 2.2
_symmetry_space_group_name_H-M    P1
_symmetry_Int_Tables_number       1
_space_group_crystal_system       triclinic
_cell_length_a                    14.711892
_cell_length_b                    16.063298
_cell_length_c                    9.682203
_cell_angle_alpha                 89.207952
_cell_angle_beta                  90.5752
_cell_angle_gamma                 89.847481
_cell_volume                      2287.76989753

loop_
_atom_site_label
_atom_site_type_symbol
_atom_type_description
_atom_site_fract_x
_atom_site_fract_y
_atom_site_fract_z
_atom_type_partial_charge
C1    C     C_R   0.384242 0.878497 0.500264 0.805056
C2    C     C_R   0.372010 0.109443 0.499986 0.826965
C3    C     C_R   0.882442 0.379709 0.500432 0.828141
C4    C     C_R   0.883024 0.620324 0.498678 0.816789
C5    C     C_R   0.244143 0.189761 0.384530 0.426853
C6    C     C_R   0.278763 0.781591 0.376073 0.425104
C7    C     C_R   0.757115 0.701203 0.383407 0.418211
C8    C     C_R   0.771284 0.287939 0.376621 0.421477
C9    C     C_R   0.690426 0.761949 0.389016 -0.164825
C10   C     C_R   0.707103 0.225274 0.377862 -0.132626
C11   C     C_R   0.186914 0.258820 0.388634 -0.167712
C12   C     C_R   0.213383 0.720064 0.378548 -0.138315
C13   C     C_R   0.675011 0.805149 0.510477 -0.174296
C14   C     C_R   0.671251 0.196482 0.501621 -0.167123
C15   C     C_R   0.174329 0.302866 0.511243 -0.157060
C16   C     C_R   0.175733 0.693576 0.502407 -0.165524
C17   C     C_R   0.662688 0.018229 0.153107 -0.122167
C18   C     C_R   0.163241 0.513336 0.153816 -0.131876
C19   C     C_R   0.741097 0.047163 0.094048 0.354723
C20   C     C_R   0.243630 0.536944 0.095192 0.355991
C21   C     C_R   0.745429 0.054155 0.953588 -0.202376
C22   C     C_R   0.248940 0.543257 0.955087 -0.173070
C23   C     C_R   0.673474 0.027421 0.869972 0.334104
C24   C     C_R   0.175362 0.521973 0.870110 0.307076
C25   C     C_R   0.583187 0.011578 0.927678 0.133649
C26   C     C_R   0.083925 0.508758 0.927546 0.113509
C27   C     C_R   0.581013 0.009880 0.077484 0.144102
C28   C     C_R   0.081501 0.507056 0.077581 0.141664
C29   C     C_R   0.423024 0.990336 0.072302 0.067057
C30   C     C_R   0.922511 0.494617 0.072073 0.075496
C31   C     C_R   0.612265 0.123275 0.500037 0.894918
C32   C     C_R   0.613956 0.877479 0.502511 0.876209
C33   C     C_R   0.113486 0.622609 0.500243 0.870860
C34   C     C_R   0.116534 0.378638 0.502682 0.877907
C35   C     C_R   0.423338 0.988305 0.925540 -0.067424
C36   C     C_R   0.922528 0.493644 0.925164 -0.042235
C37   C     C_R   0.268550 0.143192 0.755075 -0.197367
C38   C     C_R   0.336837 0.778335 0.753916 -0.197445
C39   C     C_R   0.871570 0.740423 0.725032 -0.182208
C40   C     C_R   0.827161 0.284044 0.756895 -0.199034
C41   C     C_R   0.261441 0.179842 0.882540 -0.113405
C42   C     C_R   0.292901 0.760629 0.877430 -0.149700
C43   C     C_R   0.849465 0.771079 0.854073 -0.111673
C44   C     C_R   0.780752 0.267592 0.878915 -0.159275
C45   C     C_R   0.761714 0.799105 0.877515 0.451726
C46   C     C_R   0.688810 0.246832 0.874169 0.428222
C47   C     C_R   0.229307 0.260556 0.890541 0.437664
C48   C     C_R   0.200780 0.740482 0.875937 0.427900
C49   C     C_R   0.699549 0.804980 0.767977 -0.134471
C50   C     C_R   0.648760 0.227914 0.748220 -0.171441
C51   C     C_R   0.196553 0.300823 0.772161 -0.166250
C52   C     C_R   0.158433 0.722858 0.751409 -0.180293
C53   C     C_R   0.725239 0.783389 0.632186 0.063839
C54   C     C_R   0.699528 0.233277 0.625877 0.048311
C55   C     C_R   0.208030 0.266653 0.638453 0.055711
C56   C     C_R   0.206494 0.729067 0.626812 0.059060
C57   C     C_R   0.256003 0.190398 0.632523 0.040691
C58   C     C_R   0.289394 0.772437 0.626939 0.052350
C59   C     C_R   0.806009 0.737628 0.617279 0.038705
C60   C     C_R   0.782270 0.277006 0.627860 0.057536
C61   C     C_R   0.289032 0.162441 0.504662 -0.186341
C62   C     C_R   0.319918 0.808060 0.500750 -0.193860
C63   C     C_R   0.817484 0.689421 0.496927 -0.191496
C64   C     C_R   0.814453 0.311992 0.501461 -0.196100
Cu1   Cu    Cu3+1 0.499990 0.000000 0.640660 0.980082
Cu2   Cu    Cu3+1 0.999990 0.500000 0.640660 0.982460
Cu3   Cu    Cu3+1 0.500010 0.000000 0.359340 1.041020
Cu4   Cu    Cu3+1 0.000010 0.500000 0.359340 1.041519
H1    H     H_    0.810429 0.071583 0.909750 0.220535
H2    H     H_    0.315057 0.558321 0.912646 0.224353
H3    H     H_    0.360305 0.976860 0.871193 0.138221
H4    H     H_    0.858537 0.488452 0.869983 0.162285
H5    H     H_    0.284857 0.077803 0.752941 0.169824
H6    H     H_    0.408134 0.794043 0.759428 0.183956
H7    H     H_    0.940209 0.719400 0.710307 0.161367
H8    H     H_    0.898366 0.299293 0.765853 0.188181
H9    H     H_    0.282480 0.145241 0.973114 0.218366
H10   H     H_    0.330927 0.764071 0.972245 0.232425
H11   H     H_    0.899640 0.770238 0.936696 0.208631
H12   H     H_    0.816719 0.272222 0.975508 0.231257
H13   H     H_    0.631477 0.824169 0.792952 0.183000
H14   H     H_    0.577839 0.210324 0.747032 0.188178
H15   H     H_    0.164486 0.358270 0.793556 0.217612
H16   H     H_    0.087915 0.705583 0.754035 0.163167
H17   H     H_    0.648185 0.773713 0.298540 0.233875
H18   H     H_    0.682950 0.200827 0.281087 0.240225
H19   H     H_    0.150795 0.277422 0.295528 0.236823
H20   H     H_    0.190174 0.694228 0.282445 0.244068
H21   H     H_    0.359238 0.983499 0.125432 0.206215
H22   H     H_    0.858414 0.491157 0.125139 0.213077
H23   H     H_    0.669627 0.002363 0.259157 0.231430
H24   H     H_    0.168967 0.501204 0.260905 0.231335
N1    N     N_R   0.501200 0.000000 0.147910 -0.191018
N2    N     N_R   0.001200 0.500000 0.147910 -0.195373
N3    N     N_R   0.501270 0.000000 0.852040 -0.195890
N4    N     N_R   0.001270 0.500000 0.852040 -0.202809
O1    O     O_R   0.409820 0.909830 0.618810 -0.619170
O2    O     O_R   0.409820 0.090170 0.618810 -0.602786
O3    O     O_R   0.909820 0.409830 0.618810 -0.607346
O4    O     O_R   0.909820 0.590170 0.618810 -0.600502
O5    O     O_R   0.409840 0.909830 0.381240 -0.525903
O6    O     O_R   0.409840 0.090170 0.381240 -0.521629
O7    O     O_R   0.909840 0.409830 0.381240 -0.522212
O8    O     O_R   0.909840 0.590170 0.381240 -0.521344
O9    O     O_R   0.590170 0.090170 0.618760 -0.551299
O10   O     O_R   0.590170 0.909830 0.618760 -0.555901
O11   O     O_R   0.090170 0.590170 0.618760 -0.555454
O12   O     O_R   0.090170 0.409830 0.618760 -0.563605
O13   O     O_R   0.590190 0.090180 0.381190 -0.602494
O14   O     O_R   0.590190 0.909820 0.381190 -0.595115
O15   O     O_R   0.090190 0.590180 0.381190 -0.603875
O16   O     O_R   0.090190 0.409820 0.381190 -0.599770
Cl1   Cl    Cl    0.245352 0.130087 0.234642 -0.588963
Cl2   Cl    Cl    0.302702 0.823118 0.212408 -0.598815
Cl3   Cl    Cl    0.758773 0.641571 0.231569 -0.538163
Cl4   Cl    Cl    0.788799 0.335688 0.215205 -0.592340
Cl5   Cl    Cl    0.724926 0.998522 0.714469 -0.595329
Cl6   Cl    Cl    0.226067 0.501544 0.709361 -0.599139
Cl7   Cl    Cl    0.730517 0.829790 0.043120 -0.610972
Cl8   Cl    Cl    0.623435 0.239860 0.023855 -0.584354
Cl9   Cl    Cl    0.228262 0.312254 0.048304 -0.599602
Cl10  Cl    Cl    0.137006 0.733554 0.027012 -0.625668
Cl11  Cl    Cl    0.837840 0.066645 0.196317 -0.533675
Cl12  Cl    Cl    0.340683 0.553284 0.198517 -0.513559

loop_
_geom_bond_atom_site_label_1
_geom_bond_atom_site_label_2
_ccdc_geom_bond_type
C58   C62   A    
Cu2   Cu4   S    
C40   C60   A    
C51   H15   S    
C34   O16   A    
C13   C32   S    
C17   H23   S    
Cu4   O7    S    
Cu2   O11   S    
C30   H22   S    
C1    C62   S    
C29   H21   S    
C53   C59   A    
C54   C60   A    
C3    C64   S    
C4    C63   S    
C19   Cl11  S    
C50   C54   A    
C32   O14   A    
C19   C21   A    
C24   C26   A    
Cu1   O2    S    
C5    C11   A    
C6    C12   A    
C41   H9    S    
C47   Cl9   S    
C2    O6    A    
C7    Cl3   S    
C28   N2    A    
Cu4   O16   S    
Cu2   O4    S    
C52   H16   S    
C9    C13   A    
C6    Cl2   S    
C9    H17   S    
C38   C58   A    
C11   C15   A    
Cu3   O13   S    
C12   C16   A    
C11   H19   S    
Cu1   Cu3   S    
C33   O11   A    
C33   O15   A    
C39   H7    S    
C14   C31   S    
C15   C34   S    
C18   C20   A    
C2    C61   S    
C45   Cl7   S    
C35   H3    S    
C32   O10   A    
C31   O9    A    
Cu1   O9    S    
C41   C47   A    
C44   C46   A    
C46   C50   A    
C13   C53   A    
C26   N4    A    
C12   H20   S    
Cu1   N3    S    
C46   Cl8   S    
C17   C27   A    
C50   H14   S    
C44   H12   S    
C18   C28   A    
C10   C14   A    
C1    O1    A    
C29   N1    A    
C39   C43   A    
Cu4   N2    S    
C40   H8    S    
C21   H1    S    
Cu4   O15   S    
C15   C55   A    
Cu2   O3    S    
C16   C56   A    
C16   C33   S    
C36   N4    A    
Cu3   O14   S    
C45   C49   A    
C39   C59   A    
C31   O13   A    
C5    C61   A    
C42   C48   A    
C57   C61   A    
C43   C45   A    
C7    C63   A    
C8    C64   A    
C14   C54   A    
C20   C22   A    
C25   N3    A    
C55   C57   A    
C22   C24   A    
C27   N1    A    
C40   C44   A    
C1    O5    A    
Cu1   O10   S    
Cu3   O5    S    
Cu2   N4    S    
C38   H6    S    
C3    O7    A    
C7    C9    A    
C37   H5    S    
C10   H18   S    
C5    Cl1   S    
C26   C28   A    
Cu4   O8    S    
Cu2   O12   S    
C23   Cl5   S    
C47   C51   A    
C42   H10   S    
C35   N3    A    
C25   C27   A    
C29   C35   A    
C49   H13   S    
C59   C63   A    
C4    O4    A    
C30   C36   A    
C60   C64   A    
C18   H24   S    
C6    C62   A    
C21   C23   A    
C34   O12   A    
C30   N2    A    
C48   Cl10  S    
C52   C56   A    
C49   C53   A    
C4    O8    A    
C24   Cl6   S    
C17   C19   A    
C56   C58   A    
C51   C55   A    
C23   C25   A    
C37   C41   A    
C20   Cl12  S    
C8    Cl4   S    
Cu1   O1    S    
C38   C42   A    
C3    O3    A    
C48   C52   A    
C2    O2    A    
C8    C10   A    
Cu3   N1    S    
C43   H11   S    
C22   H2    S    
C37   C57   A    
C36   H4    S    
Cu3   O6    S    
