data_mof_unit_32848.cif
_audit_creation_date              2012-12-11T14:20:59-0500
_audit_creation_method            fapswitch 2.2
_symmetry_space_group_name_H-M    P1
_symmetry_Int_Tables_number       1
_space_group_crystal_system       triclinic
_cell_length_a                    11.557342
_cell_length_b                    11.519263
_cell_length_c                    19.597695
_cell_angle_alpha                 90.2366
_cell_angle_beta                  90.048675
_cell_angle_gamma                 60.081931
_cell_volume                      2261.37255344

loop_
_atom_site_label
_atom_site_type_symbol
_atom_type_description
_atom_site_fract_x
_atom_site_fract_y
_atom_site_fract_z
_atom_type_partial_charge
C1    C     C_R   0.640211 0.116882 0.599446 0.543497
C2    C     C_1   0.652832 0.148867 0.668841 0.002806
C3    C     C_R   0.668430 0.670944 0.192134 0.033966
C4    C     C_R   0.612228 0.746197 0.598728 0.544253
C5    C     C_R   0.538701 0.740862 0.218716 -0.002362
C6    C     C_R   0.522591 0.726722 0.288212 0.027353
C7    C     C_R   0.761168 0.640998 0.305643 -0.146920
C8    C     C_R   0.780529 0.616546 0.236542 0.074662
C9    C     C_R   0.425569 0.802994 0.175812 -0.074600
C10   C     C_R   0.304071 0.819736 0.197691 -0.103606
C11   C     C_R   0.291824 0.783900 0.263728 -0.145739
C12   C     C_1   0.640851 0.704138 0.668105 0.003311
C13   C     C_R   0.398157 0.740908 0.309148 -0.088386
C14   C     C_R   0.634117 0.693513 0.332265 -0.016300
C15   C     C_R   0.146360 0.188234 0.191694 0.043873
C16   C     C_R   0.241334 0.144932 0.598322 0.542960
C17   C     C_R   0.218784 0.245529 0.219182 0.019035
C18   C     C_R   0.211588 0.265238 0.289990 -0.020197
C19   C     C_R   0.134184 0.104990 0.303850 -0.149905
C20   C     C_R   0.098157 0.123219 0.235614 0.047110
C21   C     C_R   0.277840 0.302319 0.177338 0.307781
C22   C     C_R   0.291183 0.408979 0.204233 -0.109712
C23   C     C_1   0.125917 0.199568 0.859107 -0.004608
C24   C     C_R   0.255028 0.449864 0.271349 -0.169581
C25   C     C_R   0.218657 0.377665 0.314404 -0.089301
C26   C     C_R   0.189916 0.175771 0.332077 -0.015272
C27   C     C_R   0.663981 0.184280 0.191652 -0.014638
C28   C     C_R   0.646735 0.111363 0.402066 0.563345
C29   C     C_R   0.730029 0.052741 0.216925 0.026270
C30   C     C_R   0.755746 0.033933 0.287278 -0.003123
C31   C     C_R   0.598564 0.271993 0.307118 0.076283
C32   C     C_R   0.599052 0.292819 0.236936 -0.133311
C33   C     C_R   0.787225 0.940681 0.172635 -0.065792
C34   C     C_1   0.171839 0.169926 0.727756 -0.031517
C35   C     C_R   0.890336 0.818361 0.195050 -0.110004
C36   C     C_R   0.933618 0.805175 0.262196 -0.147013
C37   C     C_R   0.866858 0.910638 0.308128 -0.097586
C38   C     C_R   0.674059 0.141413 0.332832 0.016754
C39   C     C_R   0.080793 0.231762 0.928296 0.533194
C40   C     C_R   0.613486 0.740644 0.401957 0.545711
C41   C     C_R   0.683960 0.604297 0.929411 0.541676
C42   C     C_R   0.708493 0.206896 0.930010 0.531712
C43   C     C_R   0.083824 0.233968 0.124936 0.610014
C44   C     C_R   0.684111 0.612218 0.125047 0.551735
C45   C     C_1   0.149842 0.182679 0.798893 -0.032534
C46   C     C_R   0.705187 0.209708 0.125437 0.536994
C47   C     C_R   0.244207 0.143008 0.401126 0.549056
C48   C     C_1   0.670444 0.646384 0.860038 0.002669
C49   C     C_1   0.654446 0.683854 0.728479 -0.032093
C50   C     C_1   0.663339 0.666690 0.799662 -0.032724
C51   C     C_3   0.336381 0.328066 0.065579 -0.003188
C52   C     C_3   0.381448 0.254572 0.997644 -0.339475
C53   C     C_1   0.195868 0.160167 0.667512 0.002514
C54   C     C_1   0.678438 0.191543 0.860724 -0.003798
C55   C     C_1   0.658391 0.166575 0.729146 -0.031618
C56   C     C_1   0.665494 0.180797 0.800384 -0.032745
Cr1   Cr    Cr6+3 0.404720 0.198220 0.499960 1.042412
Cr2   Cr    Cr6+3 0.698290 0.897110 0.500380 1.020602
Cr3   Cr    Cr6+3 0.396970 0.904720 0.499610 1.021955
Cr4   Cr    Cr6+3 0.926180 0.151990 0.028120 1.034790
Cr5   Cr    Cr6+3 0.921330 0.451820 0.027470 1.025912
Cr6   Cr    Cr6+3 0.626260 0.446870 0.028710 0.997151
H1    H     H_    0.846493 0.609369 0.339087 0.118864
H2    H     H_    0.434226 0.826672 0.123276 0.125298
H3    H     H_    0.221495 0.855187 0.162351 0.130661
H4    H     H_    0.199465 0.790454 0.280234 0.091549
H5    H     H_    0.382677 0.709230 0.358320 0.143743
H6    H     H_    0.108002 0.045083 0.335958 0.120041
H7    H     H_    0.601259 0.389616 0.382777 0.219254
H8    H     H_    0.480602 0.472758 0.325665 0.214884
H9    H     H_    0.937482 0.430523 0.236433 0.221252
H10   H     H_    0.979256 0.550354 0.231197 0.220396
H11   H     H_    0.412390 0.355014 0.080434 0.144435
H12   H     H_    0.327512 0.462758 0.174417 0.087334
H13   H     H_    0.237509 0.420038 0.058715 0.140889
H14   H     H_    0.315158 0.215162 0.982440 0.171076
H15   H     H_    0.378921 0.323751 0.957618 0.109638
H16   H     H_    0.485031 0.169194 0.002155 0.143396
H17   H     H_    0.912467 0.151833 0.240429 0.225607
H18   H     H_    0.030546 0.991382 0.227317 0.228251
H19   H     H_    0.258436 0.536157 0.290733 0.111159
H20   H     H_    0.187092 0.418310 0.365060 0.152947
H21   H     H_    0.758655 0.950057 0.119407 0.122466
H22   H     H_    0.553749 0.394490 0.218054 0.137174
H23   H     H_    0.940334 0.735869 0.159460 0.128208
H24   H     H_    0.019206 0.713220 0.279055 0.092892
H25   H     H_    0.911420 0.896209 0.357974 0.141644
N1    N     N_3   0.529360 0.383496 0.353002 -0.605130
N2    N     N_3   0.912025 0.521869 0.213493 -0.578209
N3    N     N_3   0.000239 0.089786 0.213566 -0.574654
O1    O     O_R   0.267740 0.231960 0.575440 -0.508999
O2    O     O_R   0.596130 0.579390 0.952730 -0.509228
O3    O     O_R   0.639060 0.321160 0.958670 -0.504226
O4    O     O_R   0.527280 0.186640 0.570530 -0.495960
O5    O     O_R   0.821240 0.124200 0.104370 -0.496455
O6    O     O_R   0.036890 0.167040 0.097840 -0.470691
O7    O     O_R   0.056180 0.349610 0.102880 -0.491697
O8    O     O_R   0.797660 0.564870 0.097950 -0.469000
O9    O     O_R   0.595880 0.584250 0.104270 -0.532725
O10   O     O_R   0.638830 0.325670 0.099150 -0.520632
O11   O     O_3   0.824590 0.350230 0.028100 -0.250023
O12   O     O_R   0.685970 0.784660 0.430010 -0.496637
O13   O     O_R   0.728090 0.003450 0.576380 -0.507713
O14   O     O_R   0.682970 0.789190 0.570490 -0.495268
O15   O     O_R   0.499290 0.771880 0.575530 -0.506125
O16   O     O_R   0.285330 0.030870 0.569730 -0.495795
O17   O     O_R   0.270980 0.227080 0.423890 -0.527348
O18   O     O_R   0.530280 0.182120 0.430050 -0.455092
O19   O     O_R   0.731330 0.998570 0.424830 -0.542991
O20   O     O_3   0.328313 0.241970 0.113988 -0.571381
O21   O     O_R   0.502530 0.767000 0.423990 -0.534960
O22   O     O_R   0.288330 0.026350 0.429250 -0.497141
O23   O     O_3   0.499990 0.000020 0.499980 -0.255153
O24   O     O_R   0.821500 0.119340 0.952830 -0.509288
O25   O     O_R   0.037130 0.162530 0.957360 -0.494753
O26   O     O_R   0.056440 0.344740 0.951340 -0.520234
O27   O     O_R   0.797900 0.560360 0.957470 -0.499256

loop_
_geom_bond_atom_site_label_1
_geom_bond_atom_site_label_2
_ccdc_geom_bond_type
C55   C56   S    
C23   C45   T    
C27   C29   A    
Cr2   O19   S    
C11   C13   A    
Cr4   O24   S    
Cr5   O8    S    
C18   C26   A    
H8    N1    S    
C21   O20   S    
C7    C8    A    
Cr3   O15   S    
C36   C37   A    
C51   H13   S    
C2    C55   T    
C5    C6    A    
C44   O9    A    
C47   O22   A    
C9    H2    S    
C29   C33   A    
C30   C38   A    
C1    C2    S    
C19   C26   A    
C16   C53   S    
H17   N3    S    
Cr3   O22   S    
C44   O8    A    
C42   O24   A    
C7    C14   A    
C46   O5    A    
C19   C20   A    
C1    O4    A    
Cr6   O2    S    
Cr2   O23   S    
Cr3   O21   S    
Cr2   O12   S    
C4    C12   S    
C9    C10   A    
C1    O13   A    
C11   H4    S    
C16   O16   A    
Cr6   O11   S    
C48   C50   T    
C21   C22   A    
C18   C25   A    
C52   H16   S    
C17   C18   A    
C40   O21   A    
C12   C49   T    
C15   C20   A    
C32   H22   S    
C54   C56   T    
C3    C44   S    
Cr3   O16   S    
Cr5   O27   S    
C51   C52   S    
C43   O7    A    
C24   C25   A    
C3    C8    A    
Cr1   O23   S    
C40   O12   A    
C52   H14   S    
C20   N3    S    
C17   C21   A    
C30   C37   A    
C35   C36   A    
Cr5   O11   S    
C24   H19   S    
C5    C9    A    
C29   C30   A    
C6    C14   A    
C31   C32   A    
H9    N2    S    
C28   C38   S    
Cr3   O23   S    
C41   O2    A    
Cr5   O26   S    
C43   O6    A    
C19   H6    S    
C34   C45   S    
C33   H21   S    
C7    H1    S    
H7    N1    S    
C26   C47   S    
C16   O1    A    
Cr6   O10   S    
Cr4   O6    S    
C42   O3    A    
Cr1   O17   S    
C49   C50   S    
C51   O20   S    
C39   O25   A    
Cr1   O4    S    
C25   H20   S    
C22   C24   A    
Cr2   O14   S    
C22   H12   S    
C52   H15   S    
C27   C46   S    
C13   H5    S    
C10   H3    S    
C15   C17   A    
C46   O10   A    
C31   N1    S    
Cr1   O1    S    
C27   C32   A    
C37   H25   S    
Cr5   O7    S    
C51   H11   S    
C3    C5    A    
C8    N2    S    
C28   O19   A    
C4    O15   A    
C47   O17   A    
C31   C38   A    
C36   H24   S    
C15   C43   S    
C42   C54   S    
C6    C13   A    
H10   N2    S    
C35   H23   S    
C28   O18   A    
C23   C39   S    
C4    O14   A    
C33   C35   A    
C41   C48   S    
H18   N3    S    
C10   C11   A    
C14   C40   S    
Cr6   O9    S    
Cr4   O5    S    
Cr1   O18   S    
C34   C53   T    
C39   O26   A    
Cr6   O3    S    
Cr4   O25   S    
Cr2   O13   S    
C41   O27   A    
Cr4   O11   S    
