data_mof_unit_35189.cif
_audit_creation_date              2012-12-10T17:52:27-0500
_audit_creation_method            fapswitch 2.2
_symmetry_space_group_name_H-M    P1
_symmetry_Int_Tables_number       1
_space_group_crystal_system       triclinic
_cell_length_a                    19.015314
_cell_length_b                    10.637684
_cell_length_c                    9.913843
_cell_angle_alpha                 89.867596
_cell_angle_beta                  90.014746
_cell_angle_gamma                 91.714038
_cell_volume                      2004.45860834

loop_
_atom_site_label
_atom_site_type_symbol
_atom_type_description
_atom_site_fract_x
_atom_site_fract_y
_atom_site_fract_z
_atom_type_partial_charge
C1    C     C_R   0.501776 0.260825 0.500186 0.882010
C2    C     C_R   0.851583 0.412005 0.501172 0.090838
C3    C     C_R   0.619644 0.136620 0.622455 -0.148450
C4    C     C_R   0.365222 0.496091 0.500065 0.844475
C5    C     C_R   0.675252 0.073574 0.680772 -0.131794
C6    C     C_R   0.675232 0.942830 0.679863 -0.138685
C7    C     C_R   0.619610 0.874728 0.620607 -0.159531
C8    C     C_R   0.562218 0.937207 0.562393 0.038515
C9    C     C_R   0.562367 0.068940 0.563216 0.100603
C10   C     C_R   0.505976 0.128919 0.500301 -0.163050
C11   C     C_R   0.452169 0.063121 0.434051 -0.309337
C12   C     C_R   0.289242 0.473330 0.500398 -0.036203
C13   C     C_R   0.450717 0.934215 0.435200 0.470736
C14   C     C_R   0.505349 0.872134 0.499423 -0.235597
C15   C     C_R   0.407676 0.335140 0.140383 -0.162940
C16   C     C_R   0.501715 0.739420 0.499798 0.921223
C17   C     C_R   0.362113 0.254070 0.070394 -0.190505
C18   C     C_R   0.362100 0.254053 0.930776 -0.191621
C19   C     C_R   0.407685 0.335044 0.860333 -0.159118
C20   C     C_R   0.454522 0.418714 0.927867 0.168212
C21   C     C_R   0.454522 0.418769 0.072463 0.173648
C22   C     C_R   0.543547 0.577679 0.071311 -0.103091
C23   C     C_R   0.927201 0.391021 0.501956 0.287161
C24   C     C_R   0.543536 0.577650 0.928198 -0.115435
C25   C     C_R   0.634728 0.497231 0.500030 0.823135
C26   C     C_R   0.252592 0.466428 0.622973 -0.207246
C27   C     C_R   0.181280 0.434893 0.624162 -0.165898
C28   C     C_R   0.145570 0.410392 0.502707 0.087450
C29   C     C_R   0.182451 0.416283 0.380227 -0.159331
C30   C     C_R   0.253782 0.447538 0.379093 -0.223072
C31   C     C_3   0.339571 0.851543 0.454244 0.080676
C32   C     C_3   0.278271 0.793583 0.375200 -0.783956
C33   C     C_R   0.069202 0.390206 0.502795 0.285343
C34   C     C_R   0.815207 0.424053 0.623318 -0.169921
C35   C     C_R   0.745012 0.455923 0.622983 -0.216958
C36   C     C_R   0.710086 0.475604 0.500484 -0.029041
C37   C     C_R   0.746243 0.462894 0.378312 -0.185906
C38   C     C_R   0.816478 0.431063 0.378628 -0.163588
H1    H     H_    0.278983 0.484575 0.718108 0.162119
H2    H     H_    0.404592 0.329224 0.753381 0.203088
H3    H     H_    0.154068 0.431740 0.720094 0.151117
H4    H     H_    0.579096 0.641145 0.874254 0.144715
H5    H     H_    0.156187 0.398195 0.284996 0.150518
H6    H     H_    0.281096 0.450706 0.283259 0.160943
H7    H     H_    0.841031 0.410263 0.719356 0.149006
H8    H     H_    0.717998 0.463556 0.718660 0.157216
H9    H     H_    0.720212 0.476338 0.282384 0.155731
H10   H     H_    0.843365 0.423150 0.282890 0.148847
H11   H     H_    0.410220 0.111990 0.383825 0.155166
H12   H     H_    0.622667 0.238179 0.622561 0.149586
H13   H     H_    0.322406 0.942467 0.497060 0.131245
H14   H     H_    0.352749 0.786528 0.538117 0.137951
H15   H     H_    0.294724 0.706432 0.324476 0.266600
H16   H     H_    0.233821 0.770337 0.444388 0.211754
H17   H     H_    0.260476 0.860906 0.297510 0.247209
H18   H     H_    0.718827 0.126396 0.725486 0.140507
H19   H     H_    0.718791 0.893990 0.723962 0.136674
H20   H     H_    0.622754 0.773446 0.619253 0.138887
H21   H     H_    0.579128 0.641171 0.124890 0.145537
H22   H     H_    0.404488 0.329501 0.247320 0.196183
H23   H     H_    0.326604 0.190873 0.125042 0.154335
H24   H     H_    0.326571 0.190840 0.876499 0.150422
N1    N     N_R   0.033170 0.385875 0.384827 -0.179667
N2    N     N_R   0.963402 0.386309 0.384410 -0.179534
N3    N     N_R   0.963145 0.390393 0.620027 -0.180518
N4    N     N_R   0.032909 0.390034 0.620443 -0.180413
N5    N     N_R   0.499340 0.498800 0.142780 -0.119645
N6    N     N_R   0.499320 0.498720 0.857170 -0.120781
O1    O     O_R   0.500000 0.316780 0.614690 -0.639879
O2    O     O_R   0.499990 0.316750 0.385360 -0.626658
O3    O     O_R   0.398140 0.500000 0.614700 -0.639021
O4    O     O_R   0.398130 0.499970 0.385370 -0.628003
O5    O     O_R   0.500010 0.683250 0.614640 -0.627117
O6    O     O_R   0.500000 0.683220 0.385310 -0.568847
O7    O     O_R   0.601870 0.500030 0.614630 -0.632482
O8    O     O_R   0.601860 0.500000 0.385300 -0.618451
O9    O     O_3   0.397715 0.868996 0.366987 -0.590212
Zn1   Zn    Zn3+2 0.500000 0.500020 0.653130 0.925109
Zn2   Zn    Zn3+2 0.500000 0.499980 0.346870 0.957016

loop_
_geom_bond_atom_site_label_1
_geom_bond_atom_site_label_2
_ccdc_geom_bond_type
C24   H4    S    
C15   H22   S    
C5    H18   S    
C35   C36   A    
O8    Zn2   S    
C31   H14   S    
C7    C8    A    
C26   C27   A    
C37   C38   A    
C3    C9    A    
C36   C37   A    
C18   C19   A    
O4    Zn2   S    
C5    C6    A    
C26   H1    S    
C34   C35   A    
C27   H3    S    
C17   H23   S    
C19   C20   A    
C8    C9    A    
O5    Zn1   S    
C37   H9    S    
C9    C10   A    
C32   H17   S    
C38   H10   S    
C2    C34   A    
C13   C14   A    
C29   H5    S    
C6    H19   S    
C30   H6    S    
O1    Zn1   S    
C32   H16   S    
C3    H12   S    
C33   N4    A    
C31   O9    S    
N6    Zn1   S    
C13   O9    S    
C16   O5    A    
N5    Zn2   S    
C19   H2    S    
C22   H21   S    
C18   H24   S    
C1    O1    A    
C12   C26   A    
C25   O7    A    
C29   C30   A    
C11   H11   S    
C2    C38   A    
C31   C32   S    
C33   N1    A    
C2    C23   S    
C17   C18   A    
C34   H7    S    
C23   N2    A    
C28   C33   S    
O6    Zn2   S    
C14   C16   S    
C4    C12   S    
C32   H15   S    
C4    O4    A    
C15   C17   A    
C28   C29   A    
C8    C14   A    
C7    H20   S    
C12   C30   A    
O2    Zn2   S    
C20   N6    A    
C1    C10   S    
C31   H13   S    
C3    C5    A    
C6    C7    A    
C16   O6    A    
C1    O2    A    
C25   O8    A    
C23   N3    A    
C11   C13   A    
C22   C24   A    
O3    Zn1   S    
O7    Zn1   S    
C22   N5    A    
C10   C11   A    
C24   N6    A    
C25   C36   S    
N1    N2    A    
C15   C21   A    
C20   C21   A    
N3    N4    A    
C27   C28   A    
C35   H8    S    
C4    O3    A    
C21   N5    A    
