data_mof_unit_20332.cif
_audit_creation_date              2012-12-10T18:42:35-0500
_audit_creation_method            fapswitch 2.2
_symmetry_space_group_name_H-M    P1
_symmetry_Int_Tables_number       1
_space_group_crystal_system       triclinic
_cell_length_a                    8.585538
_cell_length_b                    10.698071
_cell_length_c                    9.846191
_cell_angle_alpha                 90.5925
_cell_angle_beta                  98.578063
_cell_angle_gamma                 90.149474
_cell_volume                      894.187535218

loop_
_atom_site_label
_atom_site_type_symbol
_atom_type_description
_atom_site_fract_x
_atom_site_fract_y
_atom_site_fract_z
_atom_type_partial_charge
C1    C     C_R   0.499343 0.260076 0.498963 1.006817
C2    C     C_R   0.401037 0.065005 0.580518 0.386809
C3    C     C_R   0.498925 0.872180 0.501053 -0.424144
C4    C     C_R   0.492668 0.127565 0.495040 -0.419978
C5    C     C_R   0.598422 0.577456 0.085856 -0.294922
C6    C     C_R   0.401428 0.422684 0.914128 -0.305082
C7    C     C_R   0.600308 0.576798 0.941392 0.608001
C8    C     C_R   0.398844 0.423940 0.058482 0.572659
C9    C     C_3   0.602858 0.119011 0.187190 -0.127436
C10   C     C_3   0.186208 0.829243 0.623620 -0.247668
C11   C     C_3   0.829875 0.854101 0.404985 -0.281346
C12   C     C_R   0.500506 0.739799 0.500785 0.988654
C13   C     C_3   0.169811 0.167337 0.586092 -0.247765
C14   C     C_3   0.854452 0.631154 0.927068 -0.325910
C15   C     C_3   0.143106 0.373466 0.071244 -0.320618
C16   C     C_R   0.201119 0.501306 0.464103 0.918698
C17   C     C_R   0.798906 0.500510 0.535906 0.961085
C18   C     C_2   0.036033 0.502500 0.444755 -0.391794
C19   C     C_2   0.963994 0.501310 0.555272 -0.412231
C20   C     C_R   0.579621 0.063386 0.406513 0.349621
C21   C     C_R   0.407132 0.936180 0.585903 0.404502
C22   C     C_R   0.586899 0.934544 0.413129 0.384083
H1    H     H_    0.674432 0.640577 0.152162 0.202396
H2    H     H_    0.095078 0.899620 0.636858 0.161025
H3    H     H_    0.889629 0.945928 0.427367 0.171358
H4    H     H_    0.827211 0.801722 0.501738 0.137609
H5    H     H_    0.900730 0.798654 0.340753 0.173740
H6    H     H_    0.106134 0.088514 0.527668 0.129792
H7    H     H_    0.092043 0.206153 0.656391 0.180870
H8    H     H_    0.190265 0.242063 0.513505 0.153109
H9    H     H_    0.927240 0.684056 0.863054 0.191436
H10   H     H_    0.879410 0.530037 0.913389 0.142530
H11   H     H_    0.891539 0.660947 0.035541 0.148447
H12   H     H_    0.325208 0.359706 0.847817 0.204762
H13   H     H_    0.106404 0.343442 0.962790 0.149114
H14   H     H_    0.120188 0.475029 0.084206 0.149688
H15   H     H_    0.068468 0.322057 0.134895 0.196774
H16   H     H_    0.974254 0.503705 0.339903 0.177476
H17   H     H_    0.025786 0.500276 0.660127 0.170536
H18   H     H_    0.628938 0.027378 0.141867 0.196675
H19   H     H_    0.473195 0.134585 0.172843 0.181631
H20   H     H_    0.654955 0.192647 0.129142 0.157074
H21   H     H_    0.158724 0.744488 0.679679 0.187326
H22   H     H_    0.178673 0.802152 0.513140 0.095788
N1    N     N_R   0.499960 0.499970 0.857200 -0.141940
N2    N     N_R   0.500040 0.500030 0.142800 -0.140401
O1    O     O_R   0.499990 0.316750 0.614620 -0.597253
O2    O     O_3   0.335732 0.874333 0.683414 -0.530000
O3    O     O_3   0.677551 0.869421 0.331255 -0.575593
O4    O     O_3   0.312220 0.128756 0.665085 -0.558568
O5    O     O_3   0.694611 0.659269 0.882870 -0.555490
O6    O     O_3   0.302059 0.343371 0.116754 -0.587088
O7    O     O_R   0.500010 0.683250 0.385380 -0.593702
O8    O     O_R   0.499990 0.316780 0.385290 -0.558287
O9    O     O_R   0.500010 0.683220 0.614710 -0.539426
O10   O     O_R   0.271750 0.499990 0.587840 -0.626197
O11   O     O_R   0.728250 0.500010 0.412160 -0.613887
O12   O     O_R   0.271750 0.500010 0.358510 -0.605538
O13   O     O_R   0.728250 0.499990 0.641490 -0.613967
O14   O     O_3   0.672222 0.127736 0.326385 -0.600115
Zn1   Zn    Zn3+2 0.500000 0.499980 0.653120 0.999652
Zn2   Zn    Zn3+2 0.500000 0.500020 0.346880 0.996610

loop_
_geom_bond_atom_site_label_1
_geom_bond_atom_site_label_2
_ccdc_geom_bond_type
O1    Zn1   S    
C2    C4    A    
C1    O8    A    
C16   O10   A    
C13   H6    S    
O12   Zn2   S    
C11   O3    S    
C14   H11   S    
C20   O14   S    
C2    O4    S    
O7    Zn2   S    
C8    O6    S    
C9    H19   S    
C14   O5    S    
C5    H1    S    
C11   H5    S    
C14   H9    S    
C13   H7    S    
C9    O14   S    
C6    H12   S    
C1    C4    S    
C2    C21   A    
C17   O11   A    
C18   H16   S    
C7    O5    S    
O11   Zn2   S    
C16   O12   A    
C15   O6    S    
C9    H20   S    
C19   H17   S    
N2    Zn2   S    
C22   O3    S    
C7    N1    A    
C15   H13   S    
C17   C19   S    
C17   O13   A    
C10   O2    S    
C8    N2    A    
C3    C21   A    
C12   O9    A    
O13   Zn1   S    
C11   H3    S    
C6    N1    A    
C10   H22   S    
C13   O4    S    
C4    C20   A    
C21   O2    S    
O9    Zn1   S    
C15   H14   S    
C14   H10   S    
C13   H8    S    
C16   C18   S    
C18   C19   D    
C5    N2    A    
N1    Zn1   S    
C5    C7    A    
O10   Zn1   S    
C1    O1    A    
C3    C22   A    
C6    C8    A    
C3    C12   S    
O8    Zn2   S    
C11   H4    S    
C10   H2    S    
C10   H21   S    
C9    H18   S    
C15   H15   S    
C12   O7    A    
C20   C22   A    
