data_mof_unit_17742.cif
_audit_creation_date              2013-03-05T16:11:49-0500
_audit_creation_method            fapswitch 2.2
_symmetry_space_group_name_H-M    P1
_symmetry_Int_Tables_number       1
_space_group_crystal_system       triclinic
_cell_length_a                    11.428134
_cell_length_b                    9.979096
_cell_length_c                    23.621296
_cell_angle_alpha                 88.694332
_cell_angle_beta                  90.524022
_cell_angle_gamma                 89.580516
_cell_volume                      2692.94192862

loop_
_atom_site_label
_atom_site_type_symbol
_atom_site_description
_atom_site_fract_x
_atom_site_fract_y
_atom_site_fract_z
_atom_type_partial_charge
O1    O     O_R   0.317570 0.620260 0.500030 -0.526332
O2    O     O_R   0.317570 0.379740 0.500030 -0.523666
C1    C     C_R   0.263368 0.500774 0.499117 0.898216
O3    O     O_R   0.499840 0.620290 0.417900 -0.502386
O4    O     O_R   0.499840 0.379710 0.417900 -0.503760
C2    C     C_R   0.498758 0.500958 0.391154 0.953332
Cu1   Cu    Cu3+1 0.499860 0.642410 0.500030 1.195898
Cu2   Cu    Cu3+1 0.499860 0.357590 0.500030 1.193855
O5    O     O_R   0.682190 0.620260 0.500010 -0.485964
O6    O     O_R   0.682190 0.379740 0.500010 -0.495801
O7    O     O_R   0.499920 0.620230 0.582140 -0.511773
O8    O     O_R   0.499920 0.379770 0.582140 -0.509909
C3    C     C_R   0.741936 0.498860 0.501539 0.944396
C4    C     C_R   0.496640 0.498941 0.608153 0.924977
C5    C     C_R   0.580490 0.415853 0.879444 0.677024
N1    N     N_R   0.478300 0.448596 0.851462 -0.438188
C6    C     C_R   0.378402 0.475127 0.881186 0.711342
C7    C     C_R   0.377626 0.459766 0.940812 -0.169851
C8    C     C_R   0.486431 0.450179 0.969189 -0.036583
C9    C     C_R   0.589144 0.430960 0.938072 -0.076130
C10   C     C_R   0.273481 0.460437 0.972828 0.253462
C11   C     C_R   0.279704 0.457353 0.032480 0.244292
C12   C     C_R   0.389786 0.460513 0.060661 -0.160688
C13   C     C_R   0.493125 0.461563 0.028514 -0.076593
C14   C     C_R   0.603498 0.474389 0.055480 -0.112596
C15   C     C_R   0.706524 0.458100 0.023251 0.419583
C16   C     C_R   0.698090 0.431317 0.965646 -0.111693
C17   C     C_R   0.401228 0.458588 0.120182 0.705592
N2    N     N_R   0.506442 0.487273 0.145268 -0.444380
C18   C     C_R   0.605355 0.502966 0.113640 0.687882
O9    O     O_2   0.674318 0.373402 0.850365 -0.424555
O10   O     O_2   0.282232 0.521566 0.853408 -0.391224
O11   O     O_2   0.308864 0.427747 0.153019 -0.385743
O12   O     O_2   0.703851 0.547189 0.138559 -0.377020
H1    H     H_    0.777807 0.416818 0.941972 0.242203
C19   C     C_R   0.584192 0.408444 0.238438 0.237367
C20   C     C_R   0.586166 0.414451 0.298404 0.195552
C21   C     C_R   0.506568 0.500981 0.326914 -0.283212
C22   C     C_R   0.431502 0.582785 0.292737 0.326727
C23   C     C_R   0.442596 0.590006 0.233811 0.373254
C24   C     C_R   0.512846 0.497119 0.206228 0.015034
C25   C     C_R   0.401448 0.397058 0.755877 0.397592
C26   C     C_R   0.399948 0.421418 0.697311 0.310620
C27   C     C_R   0.489721 0.495613 0.671155 -0.284245
C28   C     C_R   0.569506 0.566809 0.705748 0.194164
C29   C     C_R   0.559309 0.557803 0.765373 0.240165
C30   C     C_R   0.479426 0.467349 0.790504 0.008850
C31   C     C_3   0.082982 0.619453 0.531179 -0.410541
C32   C     C_3   0.083912 0.375928 0.528243 -0.430360
H2    H     H_    0.125697 0.714903 0.519034 0.308237
H3    H     H_    0.112415 0.290850 0.502305 0.306311
H4    H     H_    0.111923 0.602791 0.576029 0.240663
H5    H     H_    0.133140 0.360701 0.568213 0.277503
C33   C     C_3   0.947832 0.635408 0.526182 0.479845
C34   C     C_3   0.948141 0.374464 0.538621 0.519628
C35   C     C_3   0.078791 0.514821 0.435238 0.525972
C36   C     C_3   0.129118 0.502468 0.497308 -0.305189
C37   C     C_3   0.886978 0.496090 0.500199 -0.431075
C38   C     C_3   0.940098 0.484051 0.433727 0.304456
C39   C     C_3   0.620277 0.080331 0.505421 0.485142
C40   C     C_3   0.619600 0.918937 0.497021 0.481651
C41   C     C_3   0.428277 0.076763 0.550449 0.492071
C42   C     C_3   0.446369 0.914286 0.555421 0.500767
C43   C     C_3   0.444982 0.085762 0.447561 0.485824
C44   C     C_3   0.426881 0.924706 0.452713 0.479432
N3    N     N_3   0.500250 0.143650 0.501250 -0.411920
N4    N     N_3   0.500250 0.856350 0.501250 -0.409598
N5    N     N_R   0.160841 0.455653 0.945536 0.190361
O13   O     O_R   0.080908 0.544615 0.956518 -0.208370
O14   O     O_R   0.134366 0.354956 0.913931 -0.199670
Cl1   Cl    Cl    0.275917 0.373335 0.658215 -0.398605
N6    N     N_R   0.660422 0.647304 0.680877 0.224745
O15   O     O_R   0.703737 0.615910 0.632478 -0.265844
O16   O     O_R   0.696142 0.756626 0.704355 -0.135251
N7    N     N_R   0.632123 0.637678 0.800999 0.181378
O17   O     O_R   0.584699 0.716309 0.837682 -0.273970
O18   O     O_R   0.745284 0.621761 0.800988 -0.178447
N8    N     N_R   0.915139 0.686912 0.582841 0.197111
O19   O     O_R   0.937556 0.812817 0.591700 -0.119745
O20   O     O_R   0.925180 0.612974 0.628382 -0.216898
N9    N     N_R   0.917994 0.383432 0.598652 0.189575
O21   O     O_R   0.808121 0.381365 0.612589 -0.239512
O22   O     O_R   0.994657 0.354432 0.638317 -0.173590
Cl2   Cl    Cl    0.924251 0.775530 0.477717 -0.265284
Cl3   Cl    Cl    0.917071 0.202926 0.529646 -0.245801
Cl4   Cl    Cl    0.114972 0.676485 0.406331 -0.259229
Cl5   Cl    Cl    0.161125 0.413615 0.387414 -0.330639
N10   N     N_R   0.881039 0.581779 0.393666 0.199804
O23   O     O_R   0.771239 0.611431 0.398950 -0.276999
O24   O     O_R   0.924803 0.604628 0.343601 -0.131453
N11   N     N_R   0.927395 0.350072 0.406801 0.200613
O25   O     O_R   0.910643 0.348242 0.352176 -0.123985
O26   O     O_R   0.982424 0.244778 0.426362 -0.186796
Cl6   Cl    Cl    0.683553 0.130612 0.572029 -0.266462
Cl7   Cl    Cl    0.717811 0.850599 0.547513 -0.274180
N12   N     N_R   0.173006 0.453351 0.063744 0.202380
O27   O     O_R   0.109610 0.345638 0.064030 -0.182922
O28   O     O_R   0.135033 0.560282 0.088418 -0.162940
Cl8   Cl    Cl    0.721211 0.146558 0.454623 -0.239527
Cl9   Cl    Cl    0.684867 0.868082 0.431497 -0.239890
Cl10  Cl    Cl    0.448324 0.143396 0.620193 -0.292841
Cl11  Cl    Cl    0.523414 0.870767 0.620626 -0.303088
Cl12  Cl    Cl    0.312833 0.169482 0.425505 -0.275541
Cl13  Cl    Cl    0.274358 0.887439 0.457455 -0.285879
Cl14  Cl    Cl    0.519607 0.128033 0.382798 -0.308116
Cl15  Cl    Cl    0.445640 0.858590 0.383610 -0.273971
Cl16  Cl    Cl    0.275018 0.118143 0.547011 -0.343140
Cl17  Cl    Cl    0.314977 0.829845 0.577920 -0.365532
Cl18  Cl    Cl    0.848828 0.460176 0.052558 -0.285411
N13   N     N_R   0.655617 0.313140 0.209697 0.188607
O29   O     O_R   0.607034 0.223009 0.178430 -0.255915
O30   O     O_R   0.768960 0.325149 0.209892 -0.150264
N14   N     N_R   0.669152 0.333391 0.329928 0.220361
O31   O     O_R   0.702321 0.369787 0.379649 -0.291827
O32   O     O_R   0.709043 0.220570 0.310940 -0.125888
Cl19  Cl    Cl    0.305763 0.655235 0.319574 -0.252388
Cl20  Cl    Cl    0.364815 0.714523 0.193853 -0.310406
Cl21  Cl    Cl    0.308068 0.273585 0.785102 -0.286626

loop_
_geom_bond_atom_site_label_1
_geom_bond_atom_site_label_2
_geom_bond_distance
_ccdc_geom_bond_type
C43   Cl12  1.788144 S    
Cu2   N3    2.134437 S    
C7    C10   1.416008 A    
C8    C9    1.404922 A    
N7    O17   1.301385 A    
C39   Cl8   1.790920 S    
C33   Cl2   1.803963 S    
N9    O21   1.301179 A    
C31   C36   1.523880 S    
C28   C29   1.415169 A    
C31   C33   1.554671 S    
C15   C16   1.395278 A    
C20   C21   1.432761 A    
C17   N2    1.370613 A    
O3    Cu1   1.957526 S    
C21   C22   1.414612 A    
O7    C4    1.345775 A    
N8    O20   1.294255 A    
C20   N14   1.434099 S    
C5    N1    1.370371 A    
C32   C36   1.539423 S    
C35   C36   1.571906 S    
C7    C8    1.408794 A    
O5    C3    1.385854 A    
C38   N10   1.496248 S    
N13   O29   1.301071 A    
N5    O13   1.301087 A    
C32   H3    1.107069 S    
N12   O28   1.301093 A    
C12   C13   1.409846 A    
C2    C21   1.520874 S    
C34   N9    1.466870 S    
N2    C18   1.368628 A    
C41   Cl10  1.803873 S    
C31   H2    1.106694 S    
C23   Cl20  1.772009 S    
C39   N3    1.507474 S    
C10   C11   1.409821 A    
C28   N6    1.439368 S    
C19   C24   1.405032 A    
C42   Cl11  1.809749 S    
N1    C30   1.447977 S    
C29   N7    1.436458 S    
N9    O22   1.303120 A    
C5    C9    1.399149 A    
C42   N4    1.547161 S    
C18   O12   1.347304 S    
C43   Cl14  1.801441 S    
C13   C14   1.415805 A    
N6    O16   1.301635 A    
N11   O25   1.303263 A    
C41   N3    1.569330 S    
N8    O19   1.305274 A    
C25   Cl21  1.768484 S    
C35   Cl5   1.799732 S    
C41   Cl16  1.797232 S    
C44   N4    1.556031 S    
C14   C15   1.418257 A    
C32   C34   1.573185 S    
C39   C40   1.627285 S    
O1    C1    1.348192 A    
C43   N3    1.537871 S    
C34   Cl3   1.767861 S    
Cu1   O7    1.947106 S    
C26   C27   1.408658 A    
C41   C42   1.634434 S    
N11   O26   1.294569 A    
C40   N4    1.507490 S    
C35   Cl4   1.790134 S    
Cu2   O8    1.957129 S    
N12   O27   1.300564 A    
C6    C7    1.413412 A    
C38   N11   1.501028 S    
C12   C17   1.410528 A    
N7    O18   1.301784 A    
C15   Cl18  1.762097 S    
C1    C36   1.534395 S    
O3    C2    1.360770 A    
C23   C24   1.398004 A    
O8    C4    1.351404 A    
C17   O11   1.348844 S    
C10   N5    1.435984 S    
C19   N13   1.435216 S    
C6    O10   1.348590 S    
C40   Cl9   1.805767 S    
C25   C26   1.399068 A    
C44   Cl15  1.788600 S    
C22   C23   1.399085 A    
C27   C28   1.423418 A    
C4    C27   1.490647 S    
N14   O31   1.291633 A    
C33   C37   1.684759 S    
C14   C18   1.409459 A    
Cu1   O5    2.093779 S    
C29   C30   1.413561 A    
C19   C20   1.419101 A    
C26   Cl1   1.760239 S    
N2    C24   1.446770 S    
O1    Cu1   2.096535 S    
C11   N12   1.431676 S    
O2    Cu2   2.093317 S    
N10   O24   1.304176 A    
N6    O15   1.294067 A    
O6    C3    1.376193 A    
O4    Cu2   1.947531 S    
C40   Cl7   1.753419 S    
C5    O9    1.349491 S    
C3    C37   1.658193 S    
C9    C16   1.399898 A    
C35   C38   1.616901 S    
C16   H1    1.083827 S    
C43   C44   1.623917 S    
C8    C13   1.409930 A    
C37   C38   1.695077 S    
O4    C2    1.352057 A    
C32   H5    1.101583 S    
O2    C1    1.352990 A    
C25   C30   1.406101 A    
N13   O30   1.301684 A    
Cu1   Cu2   2.842245 S    
Cu1   N4    2.135815 S    
C31   H4    1.115415 S    
N10   O23   1.294907 A    
Cu2   O6    2.096996 S    
C22   Cl19  1.735452 S    
C34   C37   1.646561 S    
N5    O14   1.301207 A    
C11   C12   1.418787 A    
C44   Cl13  1.788918 S    
C33   N8    1.494206 S    
C42   Cl17  1.805517 S    
N1    C6    1.372992 A    
N14   O32   1.302222 A    
C39   Cl6   1.808513 S    
