data_mof_unit_19334.cif
_audit_creation_date              2012-10-26T19:00:11-0400
_audit_creation_method            fapswitch 2.2
_symmetry_space_group_name_H-M    P1
_symmetry_Int_Tables_number       1
_space_group_crystal_system       triclinic
_cell_length_a                    10.80726
_cell_length_b                    10.835162
_cell_length_c                    9.543073
_cell_angle_alpha                 89.383787
_cell_angle_beta                  90.134259
_cell_angle_gamma                 89.863928
_cell_volume                      1117.40778754

loop_
_atom_site_label
_atom_site_type_symbol
_atom_type_description
_atom_site_fract_x
_atom_site_fract_y
_atom_site_fract_z
_atom_type_partial_charge
C1    C     C_R   0.497591 0.262617 0.500267 0.543511
C2    C     C_R   0.843973 0.190158 0.874493 -0.146325
C3    C     C_R   0.802388 0.087128 0.801785 -0.074817
C4    C     C_R   0.262534 0.499381 0.499750 0.554332
C5    C     C_R   0.799661 0.088233 0.654194 0.155699
C6    C     C_R   0.830792 0.197595 0.581861 -0.073520
C7    C     C_R   0.875266 0.300123 0.654605 0.056241
C8    C     C_R   0.441045 0.061250 0.607726 -0.012832
C9    C     C_R   0.489102 0.129916 0.496632 -0.012528
C10   C     C_R   0.525320 0.068467 0.374738 -0.173834
C11   C     C_R   0.534682 0.940098 0.373804 0.035208
C12   C     C_R   0.245250 0.870065 0.186953 -0.083828
C13   C     C_R   0.498613 0.871528 0.494853 0.009284
C14   C     C_R   0.444793 0.934551 0.606368 -0.014495
C15   C     C_3   0.467328 0.926885 0.760915 -0.231291
C16   C     C_R   0.502621 0.737726 0.499013 0.567918
C17   C     C_3   0.461113 0.067239 0.762030 -0.240698
C18   C     C_R   0.578026 0.575992 0.073055 0.197832
C19   C     C_R   0.417209 0.431759 0.075085 -0.016394
C20   C     C_R   0.417663 0.431249 0.926311 -0.013198
C21   C     C_R   0.576584 0.577445 0.925313 0.152903
C22   C     C_3   0.713988 0.576667 0.918029 -0.292259
C23   C     C_R   0.933458 0.581650 0.421201 -0.181395
C24   C     C_3   0.716238 0.570897 0.076088 -0.274782
C25   C     C_R   0.737478 0.495994 0.500267 0.548646
C26   C     C_R   0.216282 0.888195 0.328000 -0.114844
C27   C     C_R   0.156503 0.795376 0.404857 -0.092551
C28   C     C_R   0.123925 0.684409 0.340028 0.048688
C29   C     C_R   0.151915 0.667136 0.197947 -0.063643
C30   C     C_R   0.213236 0.759537 0.122004 -0.098194
C31   C     C_3   0.820398 0.864752 0.622791 -0.292182
C32   C     C_2   0.601247 0.885475 0.254439 0.572712
C33   C     C_3   0.157656 0.200140 0.538712 -0.301872
C34   C     C_R   0.871199 0.492327 0.500343 -0.040267
C35   C     C_R   0.937186 0.401506 0.576716 -0.004175
C36   C     C_R   0.066616 0.401560 0.572557 0.109935
C37   C     C_R   0.128657 0.496462 0.499025 0.012445
C38   C     C_R   0.061810 0.585572 0.421115 -0.063530
C39   C     C_R   0.884201 0.294546 0.801171 -0.086778
Cu1   Cu    Cu3+1 0.499990 0.499980 0.640670 0.929418
Cu2   Cu    Cu3+1 0.500010 0.500020 0.359330 0.967524
H1    H     H_    0.292552 0.941606 0.128065 0.135424
H2    H     H_    0.241084 0.973817 0.377991 0.102369
H3    H     H_    0.353228 0.373006 0.871334 0.101123
H4    H     H_    0.750430 0.491981 0.869706 0.163369
H5    H     H_    0.751261 0.664305 0.874414 0.110087
H6    H     H_    0.752459 0.481487 0.117509 0.142740
H7    H     H_    0.759617 0.653498 0.122202 0.177950
H8    H     H_    0.135925 0.809731 0.514521 0.094271
H9    H     H_    0.127613 0.581725 0.146816 0.097811
H10   H     H_    0.235928 0.745469 0.012867 0.102513
H11   H     H_    0.881709 0.650421 0.361852 0.159600
H12   H     H_    0.773503 0.006860 0.861320 0.108745
H13   H     H_    0.925430 0.369902 0.858316 0.099355
H14   H     H_    0.848898 0.187540 0.987795 0.111877
H15   H     H_    0.771514 0.992807 0.469880 0.263207
H16   H     H_    0.922991 0.870278 0.621648 0.137341
H17   H     H_    0.790688 0.790491 0.551071 0.172687
H18   H     H_    0.787694 0.839138 0.728891 0.128699
H19   H     H_    0.622376 0.876522 0.045067 0.315493
H20   H     H_    0.206225 0.321988 0.696423 0.262596
H21   H     H_    0.191175 0.118679 0.599164 0.142631
H22   H     H_    0.229114 0.228506 0.461505 0.140075
H23   H     H_    0.829073 0.199991 0.468306 0.082417
H24   H     H_    0.072644 0.172650 0.481642 0.151229
H25   H     H_    0.559141 0.120476 0.284991 0.155779
H26   H     H_    0.389286 0.882387 0.817696 0.137983
H27   H     H_    0.560513 0.889591 0.787226 0.152330
H28   H     H_    0.378399 0.103275 0.817409 0.124605
H29   H     H_    0.549724 0.111922 0.790668 0.170451
H30   H     H_    0.351876 0.374477 0.131480 0.113052
N1    N     N_R   0.500790 0.500930 0.147930 -0.232056
N2    N     N_R   0.500790 0.500890 0.852020 -0.232648
N3    N     N_2   0.766851 0.981027 0.577060 -0.519560
N4    N     N_2   0.132128 0.299921 0.633927 -0.519850
O1    O     O_R   0.500000 0.319640 0.618810 -0.500512
O2    O     O_R   0.568454 0.918389 0.117287 -0.734293
O3    O     O_R   0.500010 0.319680 0.381230 -0.521396
O4    O     O_R   0.319640 0.499990 0.618790 -0.518736
O5    O     O_R   0.319650 0.500030 0.381210 -0.505187
O6    O     O_R   0.499990 0.680320 0.618770 -0.507319
O7    O     O_R   0.500000 0.680360 0.381190 -0.457658
O8    O     O_R   0.680350 0.499970 0.618790 -0.505756
O9    O     O_R   0.680360 0.500010 0.381210 -0.495959
O10   O     O_2   0.689096 0.816825 0.276373 -0.568944

loop_
_geom_bond_atom_site_label_1
_geom_bond_atom_site_label_2
_ccdc_geom_bond_type
C30   H10   S    
C17   H28   S    
C18   C21   A    
C3    H12   S    
C19   H30   S    
C35   C36   A    
Cu2   O5    S    
C33   H24   S    
H20   N4    S    
C26   C27   A    
C29   C30   A    
C18   C24   S    
C31   H17   S    
C28   C29   A    
C4    O5    A    
C2    H14   S    
C5    C6    A    
C39   H13   S    
C32   O10   D    
C6    H23   S    
C21   N2    A    
Cu1   N2    S    
C34   C35   A    
C31   H18   S    
C5    N3    S    
C12   H1    S    
C32   O2    S    
C2    C39   A    
C33   N4    S    
C19   C20   A    
C33   H21   S    
C25   O9    A    
C9    C10   A    
C25   C34   S    
C17   H29   S    
C13   C14   A    
C1    O3    A    
C1    O1    A    
Cu1   O8    S    
C19   N1    A    
C20   H3    S    
C26   H2    S    
C29   H9    S    
C10   H25   S    
C18   N1    A    
H19   O2    S    
H15   N3    S    
C24   H7    S    
C1    C9    S    
C4    O4    A    
Cu2   O3    S    
C8    C9    A    
C31   N3    S    
Cu2   O9    S    
Cu1   O1    S    
C12   C26   A    
C37   C38   A    
C36   N4    S    
C28   C38   S    
C33   H22   S    
C23   C34   A    
C15   H26   S    
C16   O7    A    
Cu1   O4    S    
Cu2   N1    S    
Cu1   Cu2   S    
C22   H5    S    
C11   C32   S    
C22   C24   S    
C15   C17   S    
C36   C37   A    
C8    C14   A    
C12   C30   A    
C24   H6    S    
C7    C35   S    
Cu1   O6    S    
C3    C5    A    
C6    C7    A    
C23   C38   A    
C15   H27   S    
C8    C17   S    
C31   H16   S    
C2    C3    A    
C11   C13   A    
C23   H11   S    
Cu2   O7    S    
C16   O6    A    
C20   N2    A    
C10   C11   A    
C22   H4    S    
C4    C37   S    
C13   C16   S    
C27   C28   A    
C25   O8    A    
C7    C39   A    
C14   C15   S    
C21   C22   S    
C27   H8    S    
