data_mof_unit_57846.cif
_audit_creation_date              2012-12-10T20:42:41-0500
_audit_creation_method            fapswitch 2.2
_symmetry_space_group_name_H-M    P1
_symmetry_Int_Tables_number       1
_space_group_crystal_system       triclinic
_cell_length_a                    8.886068
_cell_length_b                    10.751396
_cell_length_c                    9.88856
_cell_angle_alpha                 90.879912
_cell_angle_beta                  90.165241
_cell_angle_gamma                 90.648831
_cell_volume                      944.553255726

loop_
_atom_site_label
_atom_site_type_symbol
_atom_type_description
_atom_site_fract_x
_atom_site_fract_y
_atom_site_fract_z
_atom_type_partial_charge
C1    C     C_R   0.499502 0.259828 0.498295 0.859553
C2    C     C_R   0.405702 0.421221 0.927361 0.049945
C3    C     C_3   0.237308 0.413888 0.917005 -0.039889
C4    C     C_R   0.218838 0.501104 0.499789 0.936998
C5    C     C_3   0.233930 0.434635 0.070675 -0.036529
C6    C     C_R   0.497142 0.739663 0.500599 0.882632
C7    C     C_R   0.781196 0.500605 0.500119 0.941829
C8    C     C_1   0.065491 0.501959 0.499492 -0.211528
C9    C     C_1   0.934558 0.501678 0.499995 -0.230918
C10   C     C_R   0.464633 0.065818 0.615660 0.104860
C11   C     C_R   0.484930 0.127396 0.493632 -0.154463
C12   C     C_R   0.476826 0.930461 0.374631 -0.214220
C13   C     C_R   0.483463 0.058172 0.369850 0.077030
C14   C     C_3   0.116036 0.274521 0.745064 -0.741005
C15   C     C_3   0.998994 0.346376 0.157118 -0.725097
C16   C     C_3   0.866014 0.592725 0.872885 -0.782498
C17   C     C_R   0.479712 0.870666 0.499191 -0.151195
C18   C     C_R   0.462969 0.938613 0.618576 0.131705
C19   C     C_3   0.553321 0.935495 0.745972 -0.487026
C20   C     C_3   0.554617 0.076280 0.743619 -0.451924
C21   C     C_R   0.401911 0.425496 0.070020 0.081978
C22   C     C_R   0.603803 0.566509 0.073956 -0.193131
C23   C     C_R   0.605028 0.566345 0.929894 0.250274
H1    H     H_    0.196887 0.529508 0.101721 0.139815
H2    H     H_    0.411483 0.169949 0.219285 0.204558
H3    H     H_    0.254269 0.216813 0.902255 0.220965
H4    H     H_    0.056762 0.183147 0.739257 0.219454
H5    H     H_    0.202990 0.276197 0.665033 0.253434
H6    H     H_    0.031800 0.348032 0.728622 0.239352
H7    H     H_    0.197869 0.247776 0.130531 0.221985
H8    H     H_    0.955565 0.276502 0.229198 0.225708
H9    H     H_    0.946304 0.328688 0.056537 0.245165
H10   H     H_    0.966976 0.440241 0.194862 0.246424
H11   H     H_    0.709146 0.731584 0.888577 0.198387
H12   H     H_    0.481700 0.878720 0.279776 0.184701
H13   H     H_    0.909002 0.605950 0.977847 0.208733
H14   H     H_    0.940829 0.644449 0.803163 0.235736
H15   H     H_    0.869530 0.492322 0.845205 0.257893
H16   H     H_    0.488056 0.896778 0.831668 0.200119
H17   H     H_    0.666614 0.894994 0.730195 0.203064
H18   H     H_    0.489756 0.119106 0.827808 0.200392
H19   H     H_    0.668705 0.117145 0.727931 0.202152
H20   H     H_    0.685298 0.622198 0.130292 0.155459
H21   H     H_    0.185032 0.490945 0.860447 0.163304
H22   H     H_    0.603773 0.160246 0.234885 0.209676
N1    N     N_R   0.499010 0.499140 0.142800 -0.117342
N2    N     N_R   0.499010 0.499180 0.857150 -0.124068
N3    N     N_3   0.501455 0.111481 0.238756 -0.469820
N4    N     N_2   0.185452 0.289469 0.876457 -0.281307
N5    N     N_2   0.160907 0.337033 0.147750 -0.258987
N6    N     N_2   0.714129 0.638815 0.861421 -0.254690
O1    O     O_R   0.500020 0.316790 0.614690 -0.612290
O2    O     O_R   0.500000 0.316760 0.385350 -0.625156
O3    O     O_R   0.285350 0.500020 0.614650 -0.630625
O4    O     O_R   0.285340 0.499980 0.385310 -0.594463
O5    O     O_R   0.500000 0.683240 0.614650 -0.606682
O6    O     O_R   0.499980 0.683210 0.385310 -0.633474
O7    O     O_R   0.714660 0.500020 0.614690 -0.588973
O8    O     O_R   0.714650 0.499980 0.385350 -0.624479
Zn1   Zn    Zn3+2 0.500010 0.500020 0.653130 0.952047
Zn2   Zn    Zn3+2 0.499990 0.499980 0.346870 0.936451

loop_
_geom_bond_atom_site_label_1
_geom_bond_atom_site_label_2
_ccdc_geom_bond_type
C12   C17   A    
C13   N3    S    
C20   H19   S    
C15   H8    S    
C10   C20   S    
C2    N2    A    
O1    Zn1   S    
C7    O7    A    
C23   N6    S    
C19   C20   S    
C6    O6    A    
C16   N6    S    
C16   H14   S    
C4    C8    S    
C14   H5    S    
C2    C21   A    
C2    C3    S    
H7    N5    S    
C5    C21   S    
C15   H9    S    
O3    Zn1   S    
C16   H13   S    
C12   H12   S    
O6    Zn2   S    
C11   C13   A    
H2    N3    S    
H11   N6    S    
C5    H1    S    
C19   H16   S    
C10   C18   A    
O4    Zn2   S    
C7    O8    A    
C22   N1    A    
C20   H18   S    
C4    O4    A    
C3    N4    S    
C14   H4    S    
C1    O1    A    
C3    H21   S    
C15   N5    S    
C14   N4    S    
O8    Zn2   S    
C10   C11   A    
C14   H6    S    
O7    Zn1   S    
C5    N5    S    
C23   N2    A    
C12   C13   A    
C17   C18   A    
C21   N1    A    
C19   H17   S    
H22   N3    S    
C16   H15   S    
C7    C9    S    
C6    C17   S    
C1    O2    A    
C22   C23   A    
C18   C19   S    
C1    C11   S    
N1    Zn2   S    
C4    O3    A    
N2    Zn1   S    
O2    Zn2   S    
C15   H10   S    
C22   H20   S    
O5    Zn1   S    
C6    O5    A    
C8    C9    T    
C3    C5    S    
H3    N4    S    
