data_mof_unit_36909.cif
_audit_creation_date              2013-03-05T15:42:55-0500
_audit_creation_method            fapswitch 2.2
_symmetry_space_group_name_H-M    P1
_symmetry_Int_Tables_number       1
_space_group_crystal_system       triclinic
_cell_length_a                    15.061771
_cell_length_b                    10.91074
_cell_length_c                    9.717656
_cell_angle_alpha                 89.273719
_cell_angle_beta                  89.638315
_cell_angle_gamma                 90.123066
_cell_volume                      1596.78757549

loop_
_atom_site_label
_atom_site_type_symbol
_atom_site_description
_atom_site_fract_x
_atom_site_fract_y
_atom_site_fract_z
_atom_type_partial_charge
O1    O     O_R   0.500020 0.321960 0.617040 -0.592248
O2    O     O_R   0.499980 0.321920 0.382900 -0.582329
C1    C     C_R   0.497577 0.265316 0.500935 0.890990
O3    O     O_R   0.370270 0.499990 0.617090 -0.596989
O4    O     O_R   0.370240 0.499950 0.382940 -0.580631
C2    C     C_R   0.329142 0.499850 0.500385 0.790478
Cu1   Cu    Cu3+1 0.500020 0.500020 0.638630 1.053141
Cu2   Cu    Cu3+1 0.499980 0.499980 0.361370 1.130903
O5    O     O_R   0.500020 0.678080 0.617100 -0.574676
O6    O     O_R   0.499980 0.678040 0.382960 -0.510727
O7    O     O_R   0.629760 0.500050 0.617060 -0.528717
O8    O     O_R   0.629730 0.500010 0.382910 -0.515171
C3    C     C_R   0.497733 0.734653 0.499033 0.914581
C4    C     C_R   0.671138 0.498732 0.499720 0.913670
C5    C     C_R   0.814550 0.576199 0.585004 0.264001
C6    C     C_R   0.768202 0.495004 0.500293 -0.263477
C7    C     C_R   0.813621 0.408554 0.419382 0.285435
C8    C     C_R   0.907634 0.401888 0.423712 -0.145094
C9    C     C_R   0.954091 0.488757 0.503973 -0.048610
C10   C     C_R   0.907535 0.574486 0.585880 0.033062
C11   C     C_R   0.957035 0.312095 0.350411 0.257827
C12   C     C_R   0.050224 0.318659 0.344597 0.236034
C13   C     C_R   0.095591 0.408183 0.419844 -0.049007
C14   C     C_R   0.047665 0.490744 0.502748 0.071750
C15   C     C_R   0.093748 0.575927 0.584895 0.138443
C16   C     C_R   0.047094 0.658905 0.665620 -0.174475
C17   C     C_R   0.955060 0.658959 0.665416 -0.077211
C18   C     C_R   0.188566 0.413805 0.418767 -0.151109
C19   C     C_R   0.233061 0.497398 0.501122 -0.054110
C20   C     C_R   0.186167 0.577339 0.584994 -0.181288
H1    H     H_    0.227505 0.351145 0.357572 0.183005
H2    H     H_    0.081875 0.724818 0.728213 0.172035
C21   C     C_2   0.463660 0.935393 0.393634 0.347743
C22   C     C_2   0.498857 0.867297 0.496746 -0.362900
C23   C     C_2   0.477484 0.068852 0.390192 -0.153225
C24   C     C_2   0.488173 0.133322 0.505270 -0.326525
H3    H     H_    0.484479 0.090397 0.606415 0.161910
C25   C     C_2   0.466452 0.411537 0.923388 0.004137
N1    N     N_2   0.499020 0.498660 0.846910 -0.251843
H4    H     H_    0.443154 0.328540 0.875071 0.154745
H5    H     H_    0.506131 0.583502 0.890269 0.253481
C26   C     C_2   0.455908 0.421523 0.077305 0.027521
N2    N     N_2   0.499000 0.498630 0.153040 -0.069702
H6    H     H_    0.408380 0.360493 0.127236 0.122194
N3    N     N_R   0.766828 0.664189 0.665495 0.124392
O9    O     O_R   0.765466 0.654519 0.799076 -0.270335
O10   O     O_R   0.720236 0.749259 0.605026 -0.335919
H7    H     H_    0.535528 0.908934 0.579676 0.170573
H8    H     H_    0.474334 0.115598 0.290968 0.209553
N4    N     N_R   0.578025 0.546885 0.099779 0.237500
O11   O     O_R   0.601376 0.657507 0.132342 -0.264354
O12   O     O_R   0.637130 0.475134 0.044956 -0.254514
N5    N     N_R   0.763429 0.331276 0.330155 0.163293
O13   O     O_R   0.767925 0.348238 0.197594 -0.226761
O14   O     O_R   0.706739 0.252629 0.381345 -0.318135
N6    N     N_R   0.914471 0.209483 0.287525 0.189899
O15   O     O_R   0.878899 0.124175 0.364844 -0.249545
O16   O     O_R   0.924643 0.190541 0.156421 -0.223286
N7    N     N_R   0.098677 0.230008 0.266376 0.145344
O17   O     O_R   0.141816 0.263838 0.155817 -0.322671
O18   O     O_R   0.095386 0.114480 0.300876 -0.265279
H9    H     H_    0.221847 0.642037 0.648204 0.155471
H10   H     H_    0.921685 0.726534 0.727600 0.209886
N8    N     N_R   0.412116 0.881379 0.285524 0.159702
O19   O     O_R   0.416349 0.926829 0.161213 -0.314361
O20   O     O_R   0.349632 0.802729 0.315688 -0.337476

loop_
_geom_bond_atom_site_label_1
_geom_bond_atom_site_label_2
_geom_bond_distance
_ccdc_geom_bond_type
C7    C8    1.418876 A    
C23   H8    1.086428 S    
C11   N6    1.434261 S    
N4    O12   1.302605 A    
C13   C14   1.412580 A    
N2    N4    1.394426 S    
C16   H2    1.084021 S    
C19   C20   1.391874 A    
C10   C17   1.407631 A    
O4    Cu2   1.964007 S    
C8    C11   1.426536 A    
C23   C24   1.339034 D    
Cu2   N2    2.024866 S    
Cu1   N1    2.023819 S    
Cu2   O8    1.966756 S    
N8    O19   1.301142 A    
N5    O14   1.301353 A    
C9    C14   1.409485 A    
N7    O17   1.301077 A    
N1    H5    1.027590 S    
O1    Cu1   1.956705 S    
N3    O9    1.301066 A    
C14   C15   1.416279 A    
C25   H4    1.084030 S    
C24   H3    1.084456 S    
C16   C17   1.386209 A    
C25   N1    1.293072 D    
C26   H6    1.084735 S    
C1    C24   1.446857 S    
C21   N8    1.441442 S    
O4    C2    1.294900 A    
C15   C20   1.392056 A    
O3    C2    1.295697 A    
C18   C19   1.394317 A    
C21   C23   1.470436 S    
N6    O16   1.301406 A    
Cu1   O7    1.964008 S    
O2    C1    1.296072 A    
C20   H9    1.085325 S    
C5    C10   1.400769 A    
O7    C4    1.296270 A    
C4    C6    1.462642 S    
N7    O18   1.300967 A    
C22   H7    1.083839 S    
C13   C18   1.401551 A    
C5    N3    1.437018 S    
C5    C6    1.404594 A    
C25   C26   1.508460 S    
C7    N5    1.434684 S    
Cu1   Cu2   2.694328 S    
C2    C19   1.447308 S    
C21   C22   1.351521 D    
N6    O15   1.301149 A    
O3    Cu1   1.966754 S    
Cu2   O6    1.956704 S    
C8    C9    1.420929 A    
C26   N2    1.300022 D    
N3    O10   1.301317 A    
C12   N7    1.435482 S    
Cu1   O5    1.951360 S    
O5    C3    1.296610 A    
C12   C13   1.406144 A    
C17   H10   1.081900 S    
C3    C22   1.447197 S    
N4    O11   1.299947 A    
C15   C16   1.393776 A    
C11   C12   1.406002 A    
C18   H1    1.082875 S    
O2    Cu2   1.951360 S    
C9    C10   1.419435 A    
N5    O13   1.300402 A    
O8    C4    1.298558 A    
C6    C7    1.410916 A    
O1    C1    1.293989 A    
O6    C3    1.293156 A    
N8    O20   1.301806 A    
