data_mof_unit_56545.cif
_audit_creation_date              2013-03-05T15:57:46-0500
_audit_creation_method            fapswitch 2.2
_symmetry_space_group_name_H-M    P1
_symmetry_Int_Tables_number       1
_space_group_crystal_system       triclinic
_cell_length_a                    15.615862
_cell_length_b                    15.08359
_cell_length_c                    14.942218
_cell_angle_alpha                 109.73998
_cell_angle_beta                  121.609439
_cell_angle_gamma                 58.581107
_cell_volume                      2547.80009362

loop_
_atom_site_label
_atom_site_type_symbol
_atom_site_description
_atom_site_fract_x
_atom_site_fract_y
_atom_site_fract_z
_atom_type_partial_charge
C1    C     C_R   0.748943 0.997421 0.791625 -0.115906
C2    C     C_R   0.195732 0.062920 0.226327 -0.141311
H1    H     H_    0.758418 0.966488 0.853215 0.092591
H2    H     H_    0.166102 0.120527 0.177034 0.097976
N1    N     N_R   0.705410 0.966550 0.689210 -0.046755
N2    N     N_R   0.294590 0.033450 0.310790 -0.046851
C3    C     C_R   0.245033 0.289693 0.492563 -0.127790
C4    C     C_R   0.803668 0.728356 0.563543 -0.123974
H3    H     H_    0.233380 0.351345 0.460629 0.092124
H4    H     H_    0.835408 0.682331 0.624536 0.082508
N3    N     N_R   0.294590 0.188320 0.465660 -0.049397
N4    N     N_R   0.705410 0.811680 0.534340 -0.047346
C5    C     C_R   0.590604 0.216081 0.484967 -0.137720
C6    C     C_R   0.404670 0.771255 0.448880 -0.125650
H5    H     H_    0.676243 0.196931 0.508338 0.128845
H6    H     H_    0.317959 0.786757 0.405187 0.140829
N5    N     N_R   0.556610 0.157790 0.497330 -0.049073
N6    N     N_R   0.443390 0.842210 0.502670 -0.051215
C7    C     C_R   0.409390 0.980213 0.712429 -0.124919
C8    C     C_R   0.590460 0.952139 0.266002 -0.116545
H7    H     H_    0.324100 0.994228 0.682415 0.097650
H8    H     H_    0.676308 0.911717 0.278621 0.100206
N7    N     N_R   0.443390 0.997080 0.657540 -0.041770
N8    N     N_R   0.556610 0.002920 0.342460 -0.038246
C9    C     C_R   0.406669 0.285024 0.405363 0.007727
C10   C     C_R   0.590211 0.693362 0.530646 0.027727
N9    N     N_R   0.443390 0.203250 0.451380 -0.053801
N10   N     N_R   0.556610 0.796750 0.548620 -0.054842
C11   C     C_R   0.593150 0.909110 0.789087 -0.161061
C12   C     C_R   0.405149 0.021326 0.194160 -0.136557
H9    H     H_    0.679480 0.859960 0.833057 0.115864
H10   H     H_    0.319224 0.039392 0.144360 0.129442
N11   N     N_R   0.556610 0.951620 0.703500 -0.041067
N12   N     N_R   0.443390 0.048380 0.296500 -0.044241
C13   C     C_R   0.243601 0.199264 0.583864 -0.114917
C14   C     C_R   0.802299 0.816438 0.469603 -0.147876
H11   H     H_    0.231152 0.178423 0.637258 0.112404
H12   H     H_    0.831922 0.847943 0.442060 0.105316
N13   N     N_R   0.294590 0.131500 0.522480 -0.046913
N14   N     N_R   0.705410 0.868500 0.477520 -0.042175
C15   C     C_R   0.749036 0.089772 0.701428 -0.150197
C16   C     C_R   0.196537 0.970886 0.315933 -0.130323
H13   H     H_    0.758398 0.145593 0.681274 0.118288
H14   H     H_    0.166221 0.945357 0.348616 0.104320
N15   N     N_R   0.705410 0.023370 0.632390 -0.043042
N16   N     N_R   0.294590 0.976630 0.367610 -0.043679
C17   C     C_R   0.774846 0.076587 0.801786 0.142399
C18   C     C_R   0.132817 0.024525 0.227345 0.160415
C19   C     C_R   0.213518 0.299187 0.567949 0.150247
C20   C     C_R   0.865719 0.728298 0.523275 0.151461
C21   C     C_R   0.497019 0.295152 0.425295 0.052677
C22   C     C_R   0.495494 0.676501 0.467184 0.036256
C23   C     C_R   0.502117 0.922327 0.795223 0.080371
C24   C     C_R   0.495204 0.962147 0.170449 0.049981
H15   H     H_    0.982504 0.167106 0.085212 0.131422
H16   H     H_    0.822364 0.061325 0.997587 0.125112
Ni1   Ni    Ni4+2 0.629830 0.882720 0.617850 0.206907
Ni2   Ni    Ni4+2 0.370170 0.117280 0.382150 0.206695
Ni3   Ni    Ni4+2 0.629830 0.013030 0.487540 0.216782
Ni4   Ni    Ni4+2 0.370170 0.986970 0.512460 0.217159
H17   H     H_    0.985040 0.995718 0.155503 0.133987
H18   H     H_    0.857507 0.180069 0.897598 0.128902
H19   H     H_    0.989221 0.563889 0.948695 0.120139
H20   H     H_    0.984400 0.246062 0.934971 0.107053
C25   C     C_R   0.813382 0.606597 0.875748 -0.131072
C26   C     C_R   0.151137 0.219187 0.981364 -0.101771
H21   H     H_    0.817588 0.542125 0.815106 0.146954
H22   H     H_    0.133599 0.300990 0.001861 0.119771
C27   C     C_R   0.711110 0.677596 0.878502 -0.142369
C28   C     C_R   0.257670 0.144756 0.991612 -0.154247
H23   H     H_    0.636877 0.667286 0.819857 0.111090
H24   H     H_    0.322184 0.169504 0.019672 0.117072
C29   C     C_R   0.705090 0.760997 0.957415 0.103574
C30   C     C_R   0.280849 0.038405 0.966377 0.100230
C31   C     C_R   0.803104 0.772167 0.033600 -0.173400
C32   C     C_R   0.195778 0.007740 0.927307 -0.164905
H25   H     H_    0.800359 0.836108 0.094970 0.123460
H26   H     H_    0.211947 0.926251 0.904980 0.118121
C33   C     C_R   0.905038 0.701524 0.029956 -0.048143
C34   C     C_R   0.089267 0.082424 0.916161 -0.115031
H27   H     H_    0.980070 0.710897 0.088274 0.172657
H28   H     H_    0.024332 0.057817 0.885343 0.123941
C35   C     C_R   0.910194 0.618736 0.951180 -0.117221
C36   C     C_R   0.066953 0.188074 0.943627 -0.099681
C37   C     C_R   0.590227 0.852286 0.055926 -0.236543
C38   C     C_R   0.397310 0.934290 0.876982 -0.258539
H29   H     H_    0.664666 0.814286 0.123845 0.136982
H30   H     H_    0.320389 0.965595 0.808132 0.137186
C39   C     C_R   0.490477 0.923380 0.064591 0.063236
C40   C     C_R   0.500043 0.887721 0.874520 0.045103
C41   C     C_R   0.391124 0.960161 0.971468 0.032738
C42   C     C_R   0.597040 0.834719 0.961550 0.027524
H31   H     H_    0.010329 0.583053 0.662035 0.130283
H32   H     H_    0.176808 0.492353 0.563395 0.132396
C43   C     C_2   0.152400 0.397083 0.616072 -0.180107
C44   C     C_2   0.981533 0.655312 0.543618 -0.210975
C45   C     C_2   0.135374 0.488646 0.601013 -0.119800
C46   C     C_2   0.041171 0.582825 0.611661 -0.096269
H33   H     H_    0.013548 0.653479 0.493258 0.155593
H34   H     H_    0.109734 0.394605 0.653275 0.159071
C47   C     C_2   0.826762 0.131697 0.900650 -0.224994
C48   C     C_2   0.016021 0.046135 0.156362 -0.217265
H35   H     H_    0.178382 0.849733 0.683269 0.130336
H36   H     H_    0.817515 0.062299 0.219478 0.125071
C49   C     C_R   0.340852 0.745511 0.689158 -0.105744
C50   C     C_R   0.653189 0.157866 0.211709 -0.100389
H37   H     H_    0.383514 0.754938 0.774131 0.132552
H38   H     H_    0.615338 0.114060 0.141685 0.119790
C51   C     C_R   0.401637 0.678551 0.631286 -0.167987
C52   C     C_R   0.587769 0.243983 0.257493 -0.165549
H39   H     H_    0.491094 0.636825 0.672388 0.128467
H40   H     H_    0.499078 0.266477 0.221036 0.134508
C53   C     C_R   0.347359 0.660018 0.521560 -0.062539
C54   C     C_R   0.635658 0.301631 0.348711 -0.062145
C55   C     C_R   0.229177 0.710503 0.468948 0.337533
C56   C     C_R   0.752136 0.270516 0.394792 0.353965
C57   C     C_R   0.169662 0.780213 0.528721 -0.232683
C58   C     C_R   0.816204 0.184733 0.346135 -0.205709
H41   H     H_    0.079697 0.820627 0.490879 0.158527
H42   H     H_    0.905128 0.159586 0.379838 0.160340
C59   C     C_R   0.225221 0.797371 0.637987 -0.151839
C60   C     C_R   0.767036 0.128786 0.255474 -0.148621
C61   C     C_R   0.416311 0.479606 0.453012 -0.183744
C62   C     C_R   0.559328 0.492299 0.405031 -0.153208
H43   H     H_    0.365260 0.474367 0.478013 0.117881
H44   H     H_    0.613333 0.499316 0.385643 0.129857
C63   C     C_R   0.489665 0.390759 0.417707 0.054427
C64   C     C_R   0.489166 0.580036 0.445741 0.071441
C65   C     C_R   0.561368 0.395421 0.391588 0.093166
C66   C     C_R   0.415236 0.574288 0.467968 0.117585
C67   C     C_2   0.854558 0.107853 0.993559 -0.095748
C68   C     C_2   0.952614 0.116509 0.085617 -0.105318
N17   N     N_R   0.168721 0.691188 0.356816 0.218091
O1    O     O_R   0.215350 0.658038 0.293653 -0.441274
O2    O     O_R   0.063769 0.712738 0.316149 -0.453197
N18   N     N_R   0.806892 0.322183 0.491806 0.218852
O3    O     O_R   0.775216 0.355660 0.566802 -0.437605
O4    O     O_R   0.897454 0.324010 0.510932 -0.435019
N19   N     N_3   0.301918 0.322697 0.315051 -0.209025
H45   H     H_    0.249736 0.395187 0.338161 0.115215
H46   H     H_    0.264930 0.272250 0.290190 0.106859
N20   N     N_3   0.693921 0.619012 0.597074 -0.194389
H47   H     H_    0.744187 0.579362 0.557151 0.147591
H48   H     H_    0.731706 0.658644 0.666611 0.098403

loop_
_geom_bond_atom_site_label_1
_geom_bond_atom_site_label_2
_geom_bond_distance
_ccdc_geom_bond_type
C26   H22   1.082421 S    
C17   C47   1.465675 S    
C29   C31   1.407050 A    
C6    N6    1.319558 A    
C13   N13   1.343048 A    
C34   C36   1.399477 A    
C9    C21   1.362411 A    
C45   C46   1.456463 S    
C22   C64   1.425253 S    
N10   Ni1   1.859783 S    
C3    N3    1.332562 A    
C49   H37   1.079940 S    
C30   C32   1.401714 A    
C1    N1    1.333787 A    
C9    N19   1.433418 S    
C48   C68   1.337770 D    
C38   C41   1.373465 A    
C57   H41   1.082719 S    
C16   N16   1.342381 A    
C50   H38   1.082875 S    
N12   Ni2   1.849835 S    
C38   H30   1.079636 S    
C25   C35   1.397303 A    
H36   C60   1.082712 S    
C44   H33   1.087583 S    
C11   N11   1.334064 A    
C58   C60   1.396343 A    
C27   H23   1.080242 S    
N2    Ni2   1.858697 S    
H20   C36   1.081526 S    
C57   C59   1.396117 A    
C5    C21   1.374188 A    
C40   C42   1.414055 A    
C6    C22   1.368614 A    
C8    N8    1.338319 A    
N7    N11   1.359813 A    
C44   C46   1.339115 D    
C28   C30   1.405562 A    
C27   C29   1.404497 A    
C39   C41   1.418491 A    
N3    Ni2   1.849407 S    
C52   C54   1.407844 A    
C51   C53   1.401923 A    
C62   C64   1.401763 A    
H18   C47   1.084236 S    
C7    C23   1.386823 A    
N14   Ni3   1.857458 S    
C15   H13   1.080163 S    
C2    N2    1.339689 A    
C16   H14   1.081835 S    
C49   C51   1.392755 A    
C37   C42   1.394854 A    
C58   H42   1.082872 S    
C37   H29   1.082306 S    
N7    Ni4   1.841262 S    
C53   C66   1.482626 S    
C12   N12   1.317883 A    
N5    N9    1.359813 A    
C14   N14   1.343864 A    
N6    N10   1.359813 A    
C3    C19   1.389325 A    
C24   C39   1.465308 S    
C8    C24   1.399709 A    
C38   C40   1.392102 A    
C33   H27   1.082315 S    
C37   C39   1.403275 A    
C7    N7    1.325736 A    
C1    C17   1.388998 A    
C55   N17   1.443027 S    
H32   C45   1.085320 S    
C2    C18   1.384100 A    
N1    N15   1.395310 A    
N8    N12   1.359812 A    
H19   C35   1.082401 S    
C1    H1    1.077885 S    
C30   C41   1.472594 S    
N4    N14   1.395312 A    
C2    H2    1.080524 S    
C63   C65   1.403456 A    
C13   C19   1.391314 A    
C12   H10   1.066542 S    
C10   C22   1.382247 A    
C12   C24   1.378356 A    
C61   C63   1.393485 A    
C4    N4    1.335069 A    
C18   C48   1.464110 S    
C50   C60   1.393825 A    
C15   C17   1.391056 A    
C49   C59   1.393255 A    
C16   C18   1.378500 A    
C19   C43   1.463286 S    
N3    N13   1.395309 A    
C31   H25   1.083330 S    
N5    Ni3   1.858246 S    
N4    Ni1   1.849404 S    
C47   C67   1.337125 D    
C34   H28   1.079587 S    
C8    H8    1.079344 S    
C5    H5    1.081518 S    
C61   C66   1.361315 A    
N17   O1    1.301149 A    
C54   C65   1.487761 S    
N20   H48   1.044321 S    
C67   C68   1.460499 S    
H35   C59   1.082636 S    
C4    C20   1.382341 A    
C14   C20   1.380720 A    
C13   H11   1.081122 S    
N18   O4    1.301558 A    
C62   H44   1.084539 S    
C50   C52   1.395620 A    
N6    Ni4   1.858247 S    
C3    H3    1.076046 S    
C55   C57   1.408529 A    
N15   Ni3   1.840645 S    
N11   Ni1   1.849835 S    
N2    N16   1.395311 A    
N16   Ni4   1.840645 S    
C43   H34   1.087469 S    
C32   C34   1.395026 A    
C29   C42   1.481227 S    
C32   H26   1.083324 S    
N18   O3    1.301462 A    
N9    Ni2   1.859782 S    
C64   C66   1.405848 A    
C54   C56   1.420649 A    
N19   H45   1.043925 S    
C43   C45   1.339073 D    
C56   N18   1.439493 S    
C5    N5    1.337207 A    
C9    N9    1.321053 A    
C10   N10   1.338310 A    
C25   H21   1.082419 S    
N1    Ni1   1.858696 S    
C21   C63   1.424731 S    
C51   H39   1.081606 S    
H17   C48   1.087663 S    
C11   H9    1.075762 S    
C33   C35   1.397494 A    
N19   H46   1.045461 S    
C20   C44   1.466000 S    
C26   C28   1.397601 A    
C11   C23   1.377609 A    
N8    Ni3   1.841262 S    
C25   C27   1.398269 A    
N13   Ni4   1.857458 S    
C14   H12   1.081703 S    
C56   C58   1.407518 A    
C62   C65   1.391604 A    
C6    H6    1.077374 S    
C52   H40   1.083552 S    
H16   C67   1.084899 S    
C61   H43   1.085875 S    
C26   C36   1.397782 A    
C4    H4    1.073941 S    
H15   C68   1.085263 S    
C23   C40   1.467333 S    
N17   O2    1.301929 A    
C15   N15   1.344703 A    
N20   H47   1.044059 S    
C28   H24   1.083355 S    
C53   C55   1.422033 A    
C10   N20   1.427943 S    
C31   C33   1.398378 A    
H31   C46   1.083998 S    
C7    H7    1.078919 S    
