data_mof_unit_62859.cif
_audit_creation_date              2012-12-10T19:20:44-0500
_audit_creation_method            fapswitch 2.2
_symmetry_space_group_name_H-M    P1
_symmetry_Int_Tables_number       1
_space_group_crystal_system       triclinic
_cell_length_a                    38.889227
_cell_length_b                    38.889227
_cell_length_c                    18.235846
_cell_angle_alpha                 90.000015
_cell_angle_beta                  90.000028
_cell_angle_gamma                 90.000011
_cell_volume                      27579.382461

loop_
_atom_site_label
_atom_site_type_symbol
_atom_type_description
_atom_site_fract_x
_atom_site_fract_y
_atom_site_fract_z
_atom_type_partial_charge
C1    C     C_R   0.567060 0.000000 0.500000 0.866767
C2    C     C_R   1.000000 0.567060 0.500000 0.866767
C3    C     C_R   0.432940 1.000000 0.500000 0.866770
C4    C     C_R   0.000000 0.432940 0.500000 0.866768
C5    C     C_R   0.067060 0.500000 1.000000 0.866767
C6    C     C_R   0.500000 0.067060 1.000000 0.866769
C7    C     C_R   0.932940 0.500000 0.000000 0.866770
C8    C     C_R   0.500000 0.932940 0.000000 0.866768
C9    C     C_R   0.714130 1.000000 0.500000 -0.142288
C10   C     C_R   0.000000 0.714130 0.500000 -0.142288
C11   C     C_R   0.285870 1.000000 0.500000 -0.142288
C12   C     C_R   0.000000 0.285870 0.500000 -0.142288
C13   C     C_R   0.214130 0.500000 0.000000 -0.142288
C14   C     C_R   0.500000 0.214129 1.000000 -0.142288
C15   C     C_R   0.785870 0.500000 0.000000 -0.142288
C16   C     C_R   0.500000 0.785870 1.000000 -0.142288
C17   C     C_R   0.785642 1.000000 0.500000 0.037109
C18   C     C_R   0.000000 0.785642 0.500000 0.037109
C19   C     C_R   0.214358 1.000000 0.500000 0.037109
C20   C     C_R   0.000000 0.214358 0.500000 0.037109
C21   C     C_R   0.285642 0.500000 1.000000 0.037109
C22   C     C_R   0.500000 0.285642 1.000000 0.037110
C23   C     C_R   0.714358 0.500000 0.000000 0.037109
C24   C     C_R   0.500000 0.714358 0.000000 0.037109
C25   C     C_R   0.658565 0.983465 0.442846 0.002908
C26   C     C_R   0.016534 0.658565 0.442844 0.002908
C27   C     C_R   0.341435 0.016532 0.442842 0.002908
C28   C     C_R   0.983465 0.341435 0.442845 0.002907
C29   C     C_R   0.341435 0.983467 0.557158 0.002908
C30   C     C_R   0.983466 0.658565 0.557156 0.002908
C31   C     C_R   0.658565 0.016535 0.557154 0.002908
C32   C     C_R   0.016535 0.341435 0.557154 0.002908
C33   C     C_R   0.158565 0.483465 0.942846 0.002907
C34   C     C_R   0.516532 0.158565 0.942842 0.002908
C35   C     C_R   0.841435 0.516532 0.942842 0.002908
C36   C     C_R   0.483465 0.841435 0.942846 0.002907
C37   C     C_R   0.841435 0.483467 0.057158 0.002908
C38   C     C_R   0.483468 0.158565 0.057158 0.002908
C39   C     C_R   0.158565 0.516535 0.057154 0.002908
C40   C     C_R   0.516535 0.841435 0.057154 0.002907
C41   C     C_R   0.622519 0.983391 0.442870 -0.074701
C42   C     C_R   0.016608 0.622519 0.442868 -0.074700
C43   C     C_R   0.377480 0.016607 0.442867 -0.074700
C44   C     C_R   0.983391 0.377480 0.442870 -0.074701
C45   C     C_R   0.377481 0.983393 0.557133 -0.074699
C46   C     C_R   0.983392 0.622519 0.557131 -0.074700
C47   C     C_R   0.622519 0.016609 0.557130 -0.074701
C48   C     C_R   0.016609 0.377480 0.557130 -0.074701
C49   C     C_R   0.122519 0.483391 0.942870 -0.074701
C50   C     C_R   0.516606 0.122519 0.942867 -0.074700
C51   C     C_R   0.877480 0.516607 0.942867 -0.074700
C52   C     C_R   0.483391 0.877480 0.942870 -0.074701
C53   C     C_R   0.877481 0.483393 0.057133 -0.074700
C54   C     C_R   0.483393 0.122519 0.057133 -0.074700
C55   C     C_R   0.122519 0.516609 0.057130 -0.074701
C56   C     C_R   0.516609 0.877480 0.057129 -0.074701
C57   C     C_R   0.604586 1.000000 0.500000 -0.118470
C58   C     C_R   0.000000 0.604586 0.500000 -0.118468
C59   C     C_R   0.395414 1.000000 0.500000 -0.118466
C60   C     C_R   0.000000 0.395414 0.500000 -0.118470
C61   C     C_R   0.104586 0.500000 0.000000 -0.118470
C62   C     C_R   0.500000 0.104586 1.000000 -0.118465
C63   C     C_R   0.895414 0.500000 0.000000 -0.118466
C64   C     C_R   0.500000 0.895414 1.000000 -0.118470
C65   C     C_R   0.676428 1.000000 0.500000 0.101895
C66   C     C_R   0.000000 0.676428 0.500000 0.101897
C67   C     C_R   0.323572 1.000000 0.500000 0.101896
C68   C     C_R   0.000000 0.323572 0.500000 0.101895
C69   C     C_R   0.176428 0.500000 0.000000 0.101895
C70   C     C_R   0.500000 0.176428 1.000000 0.101896
C71   C     C_R   0.823572 0.500000 0.000000 0.101896
C72   C     C_R   0.500000 0.823572 1.000000 0.101896
C73   C     C_R   1.000000 0.932549 0.500000 0.928952
C74   C     C_R   0.067451 0.000000 0.500000 0.928953
C75   C     C_R   0.000000 0.067451 0.500000 0.928953
C76   C     C_R   0.932549 1.000000 0.500000 0.928953
C77   C     C_R   0.500000 0.432549 0.000000 0.928953
C78   C     C_R   0.567451 0.500000 0.000000 0.928953
C79   C     C_R   0.500000 0.567451 0.000000 0.928953
C80   C     C_R   0.432549 0.500000 1.000000 0.928953
C81   C     C_R   0.500000 0.000000 0.641034 0.919541
C82   C     C_R   0.000000 0.500000 0.641034 0.919541
C83   C     C_R   0.500000 0.000000 0.358966 0.919541
C84   C     C_R   0.000000 0.500000 0.358966 0.919541
C85   C     C_R   0.000000 0.500000 0.141034 0.919541
C86   C     C_R   0.500000 0.000000 0.141034 0.919541
C87   C     C_R   0.000000 0.500000 0.858966 0.919541
C88   C     C_R   0.500000 0.000000 0.858966 0.919541
C89   C     C_1   0.500000 0.000000 0.717572 -0.140041
C90   C     C_1   0.000000 0.500000 0.717572 -0.140041
C91   C     C_1   0.500000 0.000000 0.282428 -0.140041
C92   C     C_1   1.000000 0.500000 0.282428 -0.140041
C93   C     C_1   1.000000 0.500000 0.217572 -0.140041
C94   C     C_1   0.500000 1.000000 0.217572 -0.140041
C95   C     C_1   1.000000 0.500000 0.782428 -0.140041
C96   C     C_1   0.500000 0.000000 0.782428 -0.140041
C97   C     C_R   0.876911 0.996232 0.433962 -0.209902
C98   C     C_R   0.003770 0.876911 0.433963 -0.209902
C99   C     C_R   0.123089 0.003767 0.433962 -0.209902
C100  C     C_R   0.996232 0.123089 0.433962 -0.209902
C101  C     C_R   0.123089 0.996233 0.566038 -0.209902
C102  C     C_R   0.996230 0.876911 0.566037 -0.209902
C103  C     C_R   0.876911 0.003768 0.566037 -0.209902
C104  C     C_R   0.003768 0.123089 0.566038 -0.209902
C105  C     C_R   0.376911 0.496232 0.933962 -0.209902
C106  C     C_R   0.503767 0.376911 0.933962 -0.209902
C107  C     C_R   0.623089 0.503768 0.933962 -0.209902
C108  C     C_R   0.496232 0.623089 0.933962 -0.209902
C109  C     C_R   0.623089 0.496232 0.066038 -0.209902
C110  C     C_R   0.496233 0.376911 0.066038 -0.209902
C111  C     C_R   0.376911 0.503767 0.066037 -0.209902
C112  C     C_R   0.503768 0.623089 0.066038 -0.209902
C113  C     C_R   0.841152 0.996128 0.433645 0.386581
C114  C     C_R   0.003874 0.841152 0.433646 0.386582
C115  C     C_R   0.158848 0.003871 0.433645 0.386581
C116  C     C_R   0.996128 0.158848 0.433645 0.386580
C117  C     C_R   0.158848 0.996128 0.566355 0.386581
C118  C     C_R   0.996125 0.841152 0.566354 0.386582
C119  C     C_R   0.841152 0.003872 0.566355 0.386580
C120  C     C_R   0.003872 0.158848 0.566355 0.386580
C121  C     C_R   0.341152 0.496128 0.933645 0.386581
C122  C     C_R   0.503871 0.341152 0.933645 0.386581
C123  C     C_R   0.658848 0.503872 0.933645 0.386581
C124  C     C_R   0.496128 0.658848 0.933645 0.386580
C125  C     C_R   0.658848 0.496128 0.066355 0.386581
C126  C     C_R   0.496129 0.341152 0.066355 0.386581
C127  C     C_R   0.341152 0.503872 0.066355 0.386581
C128  C     C_R   0.503872 0.658848 0.066355 0.386580
C129  C     C_R   0.823127 1.000000 0.500000 -0.078338
C130  C     C_R   1.000000 0.823127 0.500000 -0.078340
C131  C     C_R   0.176873 1.000000 0.500000 -0.078339
C132  C     C_R   0.000000 0.176873 0.500000 -0.078338
C133  C     C_R   0.323127 0.500000 1.000000 -0.078338
C134  C     C_R   0.500000 0.323127 1.000000 -0.078339
C135  C     C_R   0.676873 0.500000 0.000000 -0.078339
C136  C     C_R   0.500000 0.676873 0.000000 -0.078338
C137  C     C_R   0.894960 1.000000 0.500000 -0.183532
C138  C     C_R   0.000000 0.894960 0.500000 -0.183531
C139  C     C_R   0.105040 1.000000 0.500000 -0.183532
C140  C     C_R   0.000000 0.105040 0.500000 -0.183532
C141  C     C_R   0.394960 0.500000 1.000000 -0.183532
C142  C     C_R   0.500000 0.394960 0.000000 -0.183532
C143  C     C_R   0.605040 0.500000 0.000000 -0.183532
C144  C     C_R   0.500000 0.605040 0.000000 -0.183532
C145  C     C_R   0.767836 0.027833 0.469824 -0.109040
C146  C     C_R   0.972168 0.767836 0.469820 -0.109040
C147  C     C_R   0.232164 0.972167 0.469826 -0.109040
C148  C     C_R   0.027833 0.232164 0.469824 -0.109040
C149  C     C_R   0.232164 0.027833 0.530174 -0.109041
C150  C     C_R   0.027832 0.767836 0.530179 -0.109041
C151  C     C_R   0.767836 0.972167 0.530175 -0.109041
C152  C     C_R   0.972167 0.232164 0.530176 -0.109040
C153  C     C_R   0.267836 0.527833 0.969825 -0.109041
C154  C     C_R   0.472167 0.267836 0.969826 -0.109041
C155  C     C_R   0.732164 0.472167 0.969825 -0.109041
C156  C     C_R   0.527833 0.732164 0.969824 -0.109041
C157  C     C_R   0.732164 0.527833 0.030175 -0.109041
C158  C     C_R   0.527833 0.267835 0.030174 -0.109041
C159  C     C_R   0.267836 0.472167 0.030175 -0.109041
C160  C     C_R   0.472167 0.732164 0.030176 -0.109041
C161  C     C_R   0.732087 0.027933 0.469494 0.362775
C162  C     C_R   0.972067 0.732087 0.469490 0.362774
C163  C     C_R   0.267913 0.972066 0.469496 0.362774
C164  C     C_R   0.027933 0.267913 0.469494 0.362774
C165  C     C_R   0.267913 0.027934 0.530505 0.362774
C166  C     C_R   0.027932 0.732087 0.530509 0.362775
C167  C     C_R   0.732087 0.972066 0.530506 0.362775
C168  C     C_R   0.972067 0.267913 0.530506 0.362775
C169  C     C_R   0.232087 0.527933 0.969494 0.362775
C170  C     C_R   0.472066 0.232087 0.969495 0.362775
C171  C     C_R   0.767913 0.472066 0.969495 0.362775
C172  C     C_R   0.527933 0.767913 0.969493 0.362774
C173  C     C_R   0.767913 0.527934 0.030505 0.362775
C174  C     C_R   0.527934 0.232087 0.030504 0.362775
C175  C     C_R   0.232087 0.472066 0.030506 0.362775
C176  C     C_R   0.472067 0.767913 0.030506 0.362775
H1    H     H_    0.890532 0.993100 0.382575 0.210606
H2    H     H_    0.006905 0.890532 0.382576 0.210605
H3    H     H_    0.109468 0.006900 0.382574 0.210606
H4    H     H_    0.993100 0.109468 0.382575 0.210606
H5    H     H_    0.109468 0.993100 0.617425 0.210606
H6    H     H_    0.993095 0.890532 0.617424 0.210605
H7    H     H_    0.890532 0.006900 0.617425 0.210606
H8    H     H_    0.006900 0.109468 0.617425 0.210606
H9    H     H_    0.390532 0.493100 0.882575 0.210606
H10   H     H_    0.506900 0.390532 0.882575 0.210606
H11   H     H_    0.609468 0.506900 0.882575 0.210606
H12   H     H_    0.493099 0.609468 0.882575 0.210606
H13   H     H_    0.609468 0.493100 0.117425 0.210606
H14   H     H_    0.493100 0.390532 0.117425 0.210606
H15   H     H_    0.390532 0.506900 0.117425 0.210606
H16   H     H_    0.506901 0.609468 0.117425 0.210606
H17   H     H_    0.781797 0.049351 0.446600 0.201905
H18   H     H_    0.950651 0.781797 0.446593 0.201904
H19   H     H_    0.218203 0.950648 0.446602 0.201905
H20   H     H_    0.049351 0.218203 0.446600 0.201905
H21   H     H_    0.218203 0.049351 0.553398 0.201905
H22   H     H_    0.049349 0.781797 0.553407 0.201904
H23   H     H_    0.781797 0.950649 0.553400 0.201905
H24   H     H_    0.950649 0.218203 0.553400 0.201905
H25   H     H_    0.281797 0.549351 0.946600 0.201905
H26   H     H_    0.450649 0.281797 0.946602 0.201905
H27   H     H_    0.718203 0.450649 0.946601 0.201905
H28   H     H_    0.549351 0.718203 0.946599 0.201905
H29   H     H_    0.718203 0.549351 0.053399 0.201905
H30   H     H_    0.549351 0.281797 0.053398 0.201905
H31   H     H_    0.281797 0.450649 0.053400 0.201905
H32   H     H_    0.450649 0.718203 0.053401 0.201905
O1    O     O_R   0.550910 0.028770 0.500030 -0.606613
O2    O     O_R   0.971230 0.550910 0.500030 -0.606612
O3    O     O_R   0.449090 0.971230 0.500030 -0.606612
O4    O     O_R   0.028770 0.449090 0.500030 -0.606613
O5    O     O_R   0.449090 0.028770 0.499970 -0.606613
O6    O     O_R   0.028770 0.550910 0.499970 -0.606613
O7    O     O_R   0.550910 0.971230 0.499970 -0.606613
O8    O     O_R   0.971230 0.449090 0.499970 -0.606612
O9    O     O_R   0.050910 0.528770 0.000030 -0.606613
O10   O     O_R   0.471230 0.050910 0.000030 -0.606612
O11   O     O_R   0.949090 0.471230 0.000030 -0.606612
O12   O     O_R   0.528770 0.949090 0.000030 -0.606613
O13   O     O_R   0.949090 0.528770 0.999970 -0.606613
O14   O     O_R   0.528770 0.050910 0.999970 -0.606613
O15   O     O_R   0.050910 0.471230 0.999970 -0.606613
O16   O     O_R   0.471230 0.949090 0.999970 -0.606612
O17   O     O_R   0.499990 0.028770 0.607330 -0.607730
O18   O     O_R   0.971230 0.499990 0.607330 -0.607730
O19   O     O_R   0.500010 0.971230 0.607330 -0.607730
O20   O     O_R   0.028770 0.500010 0.607330 -0.607731
O21   O     O_R   0.500010 0.028770 0.392670 -0.607730
O22   O     O_R   0.028770 0.499990 0.392670 -0.607731
O23   O     O_R   0.499990 0.971230 0.392670 -0.607730
O24   O     O_R   0.971230 0.500010 0.392670 -0.607729
O25   O     O_R   0.999990 0.528770 0.107330 -0.607731
O26   O     O_R   0.471230 0.999990 0.107330 -0.607729
O27   O     O_R   0.000010 0.471230 0.107330 -0.607730
O28   O     O_R   0.528770 0.000010 0.107330 -0.607731
O29   O     O_R   0.000010 0.528770 0.892670 -0.607730
O30   O     O_R   0.528770 0.999990 0.892670 -0.607731
O31   O     O_R   0.999990 0.471230 0.892670 -0.607730
O32   O     O_R   0.471230 0.000010 0.892670 -0.607730
O33   O     O_R   1.000000 0.949040 0.560460 -0.617445
O34   O     O_R   0.050960 0.000000 0.560460 -0.617445
O35   O     O_R   1.000000 0.050960 0.560460 -0.617445
O36   O     O_R   0.949040 0.000000 0.560460 -0.617445
O37   O     O_R   0.000000 0.949040 0.439540 -0.617445
O38   O     O_R   0.949040 1.000000 0.439540 -0.617445
O39   O     O_R   1.000000 0.050960 0.439540 -0.617445
O40   O     O_R   0.050960 1.000000 0.439540 -0.617445
O41   O     O_R   0.500000 0.449040 0.060460 -0.617445
O42   O     O_R   0.550960 0.500000 0.060460 -0.617445
O43   O     O_R   0.500000 0.550960 0.060460 -0.617445
O44   O     O_R   0.449040 0.500000 0.060460 -0.617445
O45   O     O_R   0.500000 0.449040 0.939540 -0.617445
O46   O     O_R   0.449040 0.500000 0.939540 -0.617445
O47   O     O_R   0.500000 0.550960 0.939540 -0.617445
O48   O     O_R   0.550960 0.500000 0.939540 -0.617445
Zn1   Zn    Zn3+2 0.500000 0.038410 0.500000 1.055526
Zn2   Zn    Zn3+2 0.961590 0.500000 0.500000 1.055527
Zn3   Zn    Zn3+2 0.500000 0.961590 0.500000 1.055526
Zn4   Zn    Zn3+2 0.038410 0.500000 0.500000 1.055525
Zn5   Zn    Zn3+2 0.000000 0.538410 0.000000 1.055527
Zn6   Zn    Zn3+2 0.461590 0.000000 0.000000 1.055527
Zn7   Zn    Zn3+2 0.000000 0.461590 0.000000 1.055526
Zn8   Zn    Zn3+2 0.538410 0.000000 0.000000 1.055526
Zn9   Zn    Zn3+2 0.000000 0.000000 0.580910 1.038916
Zn10  Zn    Zn3+2 0.000000 0.000000 0.419090 1.038916
Zn11  Zn    Zn3+2 0.500000 0.500000 0.080910 1.038916
Zn12  Zn    Zn3+2 0.500000 0.500000 0.919090 1.038916
Cl1   Cl    Cl    0.819739 0.990215 0.349394 -0.519625
Cl2   Cl    Cl    0.009791 0.819739 0.349396 -0.519624
Cl3   Cl    Cl    0.180261 0.009784 0.349394 -0.519624
Cl4   Cl    Cl    0.990215 0.180261 0.349394 -0.519624
Cl5   Cl    Cl    0.180261 0.990216 0.650606 -0.519624
Cl6   Cl    Cl    0.990209 0.819739 0.650604 -0.519624
Cl7   Cl    Cl    0.819739 0.009785 0.650606 -0.519624
Cl8   Cl    Cl    0.009785 0.180261 0.650606 -0.519624
Cl9   Cl    Cl    0.319739 0.490215 0.849394 -0.519624
Cl10  Cl    Cl    0.509784 0.319739 0.849394 -0.519624
Cl11  Cl    Cl    0.680261 0.509785 0.849394 -0.519625
Cl12  Cl    Cl    0.490214 0.680261 0.849394 -0.519624
Cl13  Cl    Cl    0.680261 0.490215 0.150606 -0.519624
Cl14  Cl    Cl    0.490216 0.319739 0.150606 -0.519625
Cl15  Cl    Cl    0.319739 0.509785 0.150606 -0.519625
Cl16  Cl    Cl    0.509786 0.680261 0.150606 -0.519624
Cl17  Cl    Cl    0.710473 0.063252 0.430372 -0.519725
Cl18  Cl    Cl    0.936749 0.710473 0.430364 -0.519725
Cl19  Cl    Cl    0.289527 0.936746 0.430375 -0.519724
Cl20  Cl    Cl    0.063253 0.289527 0.430371 -0.519724
Cl21  Cl    Cl    0.289527 0.063253 0.569625 -0.519724
Cl22  Cl    Cl    0.063251 0.710473 0.569636 -0.519725
Cl23  Cl    Cl    0.710473 0.936747 0.569628 -0.519725
Cl24  Cl    Cl    0.936748 0.289527 0.569628 -0.519725
Cl25  Cl    Cl    0.210473 0.563253 0.930372 -0.519725
Cl26  Cl    Cl    0.436747 0.210473 0.930375 -0.519725
Cl27  Cl    Cl    0.789527 0.436747 0.930374 -0.519724
Cl28  Cl    Cl    0.563252 0.789527 0.930370 -0.519724
Cl29  Cl    Cl    0.789527 0.563253 0.069626 -0.519724
Cl30  Cl    Cl    0.563253 0.210473 0.069625 -0.519724
Cl31  Cl    Cl    0.210473 0.436747 0.069628 -0.519725
Cl32  Cl    Cl    0.436748 0.789527 0.069630 -0.519724
C177  C     C_1   0.677368 0.966787 0.384001 0.261632
N1    N     N_1   0.692403 0.953504 0.337133 -0.105016
C178  C     C_1   0.033210 0.677368 0.383997 0.261631
N2    N     N_1   0.046493 0.692403 0.337128 -0.105014
C179  C     C_1   0.322632 0.033207 0.383993 0.261631
N3    N     N_1   0.307597 0.046488 0.337122 -0.105015
C180  C     C_1   0.966788 0.322632 0.384000 0.261632
N4    N     N_1   0.953504 0.307597 0.337132 -0.105016
C181  C     C_1   0.322632 0.966793 0.616007 0.261632
N5    N     N_1   0.307597 0.953511 0.662878 -0.105015
C182  C     C_1   0.966790 0.677368 0.616002 0.261631
N6    N     N_1   0.953507 0.692403 0.662872 -0.105014
C183  C     C_1   0.677368 0.033212 0.615999 0.261632
N7    N     N_1   0.692403 0.046496 0.662868 -0.105016
C184  C     C_1   0.033213 0.322632 0.615999 0.261632
N8    N     N_1   0.046496 0.307597 0.662868 -0.105016
C185  C     C_1   0.177368 0.466788 0.884001 0.261632
N9    N     N_1   0.192403 0.453504 0.837132 -0.105016
C186  C     C_1   0.533207 0.177368 0.883993 0.261631
N10   N     N_1   0.546488 0.192403 0.837122 -0.105015
C187  C     C_1   0.822632 0.533207 0.883994 0.261631
N11   N     N_1   0.807597 0.546489 0.837122 -0.105015
C188  C     C_1   0.466787 0.822632 0.884001 0.261632
N12   N     N_1   0.453504 0.807597 0.837132 -0.105016
C189  C     C_1   0.822632 0.466792 0.116006 0.261631
N13   N     N_1   0.807597 0.453511 0.162878 -0.105015
C190  C     C_1   0.466793 0.177368 0.116007 0.261632
N14   N     N_1   0.453512 0.192403 0.162878 -0.105015
C191  C     C_1   0.177368 0.533212 0.115999 0.261632
N15   N     N_1   0.192403 0.546496 0.162868 -0.105016
C192  C     C_1   0.533213 0.822632 0.115999 0.261632
N16   N     N_1   0.546497 0.807597 0.162867 -0.105016
C193  C     C_1   0.603920 0.967145 0.383136 0.211055
N17   N     N_1   0.589075 0.954228 0.335520 -0.150954
C194  C     C_1   0.032852 0.603920 0.383133 0.211052
N18   N     N_1   0.045769 0.589075 0.335515 -0.150956
C195  C     C_1   0.396080 0.032849 0.383129 0.211050
N19   N     N_1   0.410925 0.045765 0.335511 -0.150956
C196  C     C_1   0.967145 0.396080 0.383136 0.211055
N20   N     N_1   0.954228 0.410925 0.335520 -0.150953
C197  C     C_1   0.396080 0.967151 0.616871 0.211050
N21   N     N_1   0.410925 0.954235 0.664490 -0.150957
C198  C     C_1   0.967148 0.603920 0.616867 0.211052
N22   N     N_1   0.954231 0.589075 0.664484 -0.150955
C199  C     C_1   0.603920 0.032854 0.616864 0.211055
N23   N     N_1   0.589075 0.045772 0.664480 -0.150953
C200  C     C_1   0.032854 0.396080 0.616864 0.211055
N24   N     N_1   0.045772 0.410925 0.664480 -0.150954
C201  C     C_1   0.103920 0.467146 0.883136 0.211055
N25   N     N_1   0.089075 0.454228 0.835520 -0.150954
C202  C     C_1   0.532849 0.103920 0.883129 0.211050
N26   N     N_1   0.545765 0.089075 0.835510 -0.150958
C203  C     C_1   0.896080 0.532849 0.883130 0.211050
N27   N     N_1   0.910925 0.545765 0.835511 -0.150956
C204  C     C_1   0.467145 0.896080 0.883137 0.211056
N28   N     N_1   0.454227 0.910925 0.835521 -0.150952
C205  C     C_1   0.896080 0.467150 0.116871 0.211050
N29   N     N_1   0.910925 0.454235 0.164489 -0.150957
C206  C     C_1   0.467151 0.103920 0.116871 0.211050
N30   N     N_1   0.454235 0.089075 0.164489 -0.150956
C207  C     C_1   0.103920 0.532854 0.116864 0.211055
N31   N     N_1   0.089075 0.545772 0.164480 -0.150953
C208  C     C_1   0.532855 0.896080 0.116863 0.211055
N32   N     N_1   0.545773 0.910925 0.164479 -0.150954

loop_
_geom_bond_atom_site_label_1
_geom_bond_atom_site_label_2
_ccdc_geom_bond_type
O3    Zn3   S    
C205  N29   T    
C23   C155  A    
C14   C170  A    
O31   Zn7   S    
C42   C58   A    
C38   C70   A    
C195  N19   T    
C90   C95   T    
C193  N17   T    
C111  H15   S    
O46   Zn12  S    
C80   O46   A    
C98   C138  A    
C103  H7    S    
C121  Cl9   S    
O42   Zn11  S    
C75   C140  S    
C103  C137  A    
C123  Cl11  S    
C98   C114  A    
C73   O37   A    
O47   Zn12  S    
C152  H24   S    
C31   C65   A    
C46   C198  S    
O34   Zn9   S    
O39   Zn10  S    
C158  C174  A    
C5    O9    A    
C11   C67   S    
C16   C72   S    
C175  Cl31  S    
C146  H18   S    
C84   O22   A    
C33   C69   A    
C125  C135  A    
O48   Zn12  S    
C35   C71   A    
C10   C162  A    
C21   C159  A    
C17   C151  A    
C20   C132  S    
C21   C133  S    
C106  C142  A    
C153  H25   S    
C39   C191  S    
C2    O2    A    
C15   C173  A    
C188  N12   T    
C102  H6    S    
O9    Zn5   S    
C106  H10   S    
C117  Cl5   S    
C25   C41   A    
C177  N1    T    
C82   O20   A    
C28   C44   A    
C104  C140  A    
C29   C45   A    
C148  C164  A    
O44   Zn11  S    
O1    Zn1   S    
C178  N2    T    
C36   C188  S    
C149  C165  A    
C162  Cl18  S    
C168  Cl24  S    
C37   C71   A    
C35   C51   A    
C78   O42   A    
C85   O25   A    
C50   C202  S    
C18   C130  S    
C55   C61   A    
C107  C143  A    
O43   Zn11  S    
C108  C144  A    
C15   C71   S    
O25   Zn5   S    
C13   C175  A    
C45   C59   A    
C85   O27   A    
C108  H12   S    
O35   Zn9   S    
O32   Zn6   S    
C159  H31   S    
C3    O5    A    
C83   C91   S    
C89   C96   T    
C101  C117  A    
C91   C94   T    
C145  C161  A    
C151  C167  A    
C84   O24   A    
C9    C65   S    
C194  N18   T    
C74   O34   A    
C190  N14   T    
C126  C134  A    
C187  N11   T    
C123  C135  A    
C206  N30   T    
C11   C165  A    
C21   C153  A    
C18   C150  A    
C33   C49   A    
C24   C156  A    
C6    O14   A    
C45   C197  S    
C201  N25   T    
C4    O8    A    
C202  N26   T    
C124  Cl12  S    
C76   C137  S    
C12   C68   S    
C154  C170  A    
C28   C68   A    
C113  Cl1   S    
C7    O13   A    
C115  Cl3   S    
C160  H32   S    
C150  C166  A    
O36   Zn9   S    
O7    Zn3   S    
C122  C134  A    
C85   C93   S    
C87   C95   S    
C56   C64   A    
C98   H2    S    
C30   C182  S    
C52   C204  S    
C36   C52   A    
C40   C192  S    
C43   C59   A    
C37   C53   A    
C24   C136  S    
C13   C169  A    
C29   C67   A    
C46   C58   A    
C99   C139  A    
C155  H27   S    
C122  Cl10  S    
C97   C137  A    
C34   C186  S    
C120  Cl8   S    
C10   C66   S    
C3    O3    A    
C87   O31   A    
C1    O1    A    
C26   C66   A    
C77   O45   A    
O16   Zn6   S    
C156  C172  A    
C86   O28   A    
C174  Cl30  S    
C173  Cl29  S    
C51   C203  S    
C1    C57   S    
C47   C57   A    
C74   O40   A    
C116  C132  A    
C10   C166  A    
C88   O30   A    
C4    C60   S    
C11   C163  A    
C39   C69   A    
C74   C139  S    
C5    C61   S    
C9    C161  A    
C7    C63   S    
C8    C64   S    
C110  C126  A    
C80   C141  S    
C41   C193  S    
C128  Cl16  S    
C100  H4    S    
C118  Cl6   S    
C101  H5    S    
C26   C42   A    
O27   Zn7   S    
C40   C72   A    
C30   C46   A    
C125  Cl13  S    
O14   Zn8   S    
O20   Zn4   S    
O41   Zn11  S    
C147  C163  A    
C47   C199  S    
C13   C69   S    
O10   Zn6   S    
C23   C157  A    
C119  C129  A    
C117  C131  A    
C27   C67   A    
C111  C141  A    
O26   Zn6   S    
C80   O44   A    
O24   Zn2   S    
C84   C92   S    
O38   Zn10  S    
C36   C72   A    
C88   C96   S    
C56   C208  S    
C87   O29   A    
C114  C130  A    
O30   Zn8   S    
C100  C116  A    
C107  C123  A    
C198  N22   T    
O18   Zn2   S    
O15   Zn7   S    
C203  N27   T    
C146  C162  A    
C86   O26   A    
C26   C178  S    
C108  C124  A    
O13   Zn5   S    
C128  C136  A    
C99   C115  A    
C167  Cl23  S    
C88   O32   A    
C38   C190  S    
C152  C168  A    
C6    O10   A    
C39   C55   A    
C40   C56   A    
C208  N32   T    
C34   C70   A    
C145  H17   S    
C8    O16   A    
O29   Zn5   S    
C81   C89   S    
C16   C176  A    
C184  N8    T    
C31   C47   A    
C14   C70   S    
C29   C181  S    
C114  Cl2   S    
C154  H26   S    
O45   Zn12  S    
C101  C139  A    
C163  Cl19  S    
C49   C61   A    
C124  C136  A    
C180  N4    T    
C158  H30   S    
C51   C63   A    
C33   C185  S    
C52   C64   A    
C200  N24   T    
C164  Cl20  S    
C54   C62   A    
C181  N5    T    
O4    Zn4   S    
C19   C147  A    
C20   C152  A    
C17   C145  A    
C192  N16   T    
C99   H3    S    
C118  C130  A    
C37   C189  S    
C112  H16   S    
C82   O18   A    
C97   H1    S    
C196  N20   T    
C38   C54   A    
C44   C196  S    
C15   C171  A    
C109  C143  A    
C81   O17   A    
C55   C207  S    
C104  H8    S    
O22   Zn4   S    
O28   Zn8   S    
C77   O41   A    
C75   O39   A    
C83   O23   A    
C165  Cl21  S    
C172  Cl28  S    
O5    Zn1   S    
C176  Cl32  S    
C79   O43   A    
C127  C133  A    
C48   C200  S    
C169  Cl25  S    
C2    C58   S    
C171  Cl27  S    
O2    Zn2   S    
C22   C158  A    
C106  C122  A    
C82   C90   S    
C23   C135  S    
C78   O48   A    
C6    C62   S    
C41   C57   A    
C42   C194  S    
C14   C174  A    
C183  N7    T    
C32   C48   A    
O23   Zn3   S    
C44   C60   A    
C126  Cl14  S    
C92   C93   T    
C110  H14   S    
C189  N13   T    
C112  C128  A    
C119  Cl7   S    
C186  N10   T    
O11   Zn7   S    
C27   C43   A    
C54   C206  S    
C73   O33   A    
C179  N3    T    
C153  C169  A    
C116  Cl4   S    
C150  H22   S    
C157  C173  A    
C104  C120  A    
O21   Zn1   S    
C182  N6    T    
C107  H11   S    
C53   C63   A    
C191  N15   T    
O37   Zn10  S    
O8    Zn2   S    
C115  C131  A    
C197  N21   T    
C113  C129  A    
C22   C134  S    
C76   O36   A    
C105  C141  A    
C43   C195  S    
C12   C164  A    
C73   C138  S    
C127  Cl15  S    
C25   C177  S    
C102  C138  A    
C105  H9    S    
C110  C142  A    
C77   C142  S    
C100  C140  A    
C19   C149  A    
C148  H20   S    
C204  N28   T    
C109  H13   S    
C1    O7    A    
C147  H19   S    
C86   C94   S    
C102  C118  A    
O19   Zn3   S    
C32   C68   A    
C7    O11   A    
C31   C183  S    
C159  C175  A    
C160  C176  A    
O6    Zn4   S    
O12   Zn8   S    
C161  Cl17  S    
C48   C60   A    
C19   C131  S    
C34   C50   A    
C17   C129  S    
C151  H23   S    
C9    C167  A    
C25   C65   A    
C32   C184  S    
C49   C201  S    
C27   C179  S    
C8    O12   A    
C16   C172  A    
C79   C144  S    
C20   C148  A    
C105  C121  A    
C30   C66   A    
C103  C119  A    
O40   Zn10  S    
C109  C125  A    
C5    O15   A    
C111  C127  A    
C50   C62   A    
C28   C180  S    
C35   C187  S    
C97   C113  A    
C156  H28   S    
C22   C154  A    
C81   O19   A    
C120  C132  A    
C83   O21   A    
C76   O38   A    
C53   C205  S    
C18   C146  A    
C12   C168  A    
C24   C160  A    
C2    O6    A    
C207  N31   T    
C4    O4    A    
C112  C144  A    
O17   Zn1   S    
C78   C143  S    
O33   Zn9   S    
C185  N9    T    
C75   O35   A    
C155  C171  A    
C166  Cl22  S    
C79   O47   A    
C121  C133  A    
C199  N23   T    
C157  H29   S    
C170  Cl26  S    
C149  H21   S    
C3    C59   S    
