data_mof_unit_61666.cif
_audit_creation_date              2013-03-05T16:58:09-0500
_audit_creation_method            fapswitch 2.2
_symmetry_space_group_name_H-M    P1
_symmetry_Int_Tables_number       1
_space_group_crystal_system       triclinic
_cell_length_a                    17.66439
_cell_length_b                    16.910788
_cell_length_c                    23.18465
_cell_angle_alpha                 89.991821
_cell_angle_beta                  92.201642
_cell_angle_gamma                 90.001687
_cell_volume                      6920.57726334

loop_
_atom_site_label
_atom_site_type_symbol
_atom_site_description
_atom_site_fract_x
_atom_site_fract_y
_atom_site_fract_z
_atom_type_partial_charge
O1    O     O_R   0.389110 0.566570 0.500000 -0.613070
O2    O     O_R   0.610890 0.433430 0.500000 -0.559931
O3    O     O_R   0.610890 0.566570 0.500000 -0.613335
O4    O     O_R   0.389110 0.433430 0.500000 -0.560978
C1    C     C_R   0.353419 0.500251 0.501727 0.901474
C2    C     C_R   0.646582 0.500252 0.498171 0.901219
O5    O     O_R   0.499970 0.566560 0.416150 -0.603292
O6    O     O_R   0.500030 0.433440 0.583850 -0.589561
O7    O     O_R   0.500030 0.566560 0.583850 -0.603175
O8    O     O_R   0.499970 0.433440 0.416150 -0.589705
C3    C     C_R   0.500272 0.499744 0.389148 0.945743
C4    C     C_R   0.499757 0.499724 0.610855 0.945410
Zn1   Zn    Zn3+2 0.500000 0.588860 0.500000 1.022757
Zn2   Zn    Zn3+2 0.500000 0.411140 0.500000 1.077262
C5    C     C_R   0.576577 0.540847 0.887916 0.536501
C6    C     C_R   0.424174 0.540710 0.112019 0.536352
N1    N     N_R   0.512127 0.545724 0.852968 -0.344329
N2    N     N_R   0.488601 0.545684 0.146984 -0.344328
C7    C     C_R   0.445461 0.572029 0.874533 0.545083
C8    C     C_R   0.555258 0.572031 0.125418 0.545044
C9    C     C_R   0.437949 0.576699 0.934044 -0.039374
C10   C     C_R   0.562777 0.576708 0.065903 -0.039347
C11   C     C_R   0.503561 0.573135 0.969956 -0.015312
C12   C     C_R   0.497170 0.573110 0.029987 -0.015279
C13   C     C_R   0.575328 0.565256 0.945938 -0.084355
C14   C     C_R   0.425408 0.565147 0.054001 -0.084325
C15   C     C_R   0.366588 0.581875 0.958185 -0.189346
C16   C     C_R   0.634134 0.581964 0.041762 -0.189348
C17   C     C_R   0.359140 0.575001 0.017932 -0.040513
C18   C     C_R   0.641588 0.575143 0.982012 -0.040520
O9    O     O_2   0.639786 0.507686 0.867830 -0.526887
O10   O     O_2   0.361001 0.507439 0.132088 -0.526928
O11   O     O_2   0.386108 0.590496 0.838654 -0.525966
O12   O     O_2   0.614586 0.590569 0.161297 -0.525945
H1    H     H_    0.316210 0.588154 0.930359 0.222286
H2    H     H_    0.684506 0.588273 0.069590 0.222241
C19   C     C_R   0.544600 0.473297 0.232115 0.167057
C20   C     C_R   0.456070 0.473085 0.768001 0.167088
C21   C     C_R   0.552584 0.468813 0.292872 -0.108769
C22   C     C_R   0.447905 0.468542 0.707258 -0.108584
C23   C     C_R   0.493582 0.499155 0.326339 -0.153226
C24   C     C_R   0.506694 0.499068 0.673659 -0.153655
C25   C     C_R   0.428040 0.531717 0.298953 0.142451
C26   C     C_R   0.572318 0.531643 0.700912 0.142996
C27   C     C_R   0.428949 0.549564 0.240615 -0.111382
C28   C     C_R   0.571605 0.549478 0.759259 -0.110977
H3    H     H_    0.382964 0.584090 0.221309 0.201942
H4    H     H_    0.617632 0.584030 0.778470 0.201972
C29   C     C_R   0.487182 0.522141 0.206749 0.214482
C30   C     C_R   0.513484 0.522047 0.793235 0.214320
C31   C     C_R   0.841586 0.573843 0.462137 0.087650
C32   C     C_R   0.145209 0.459145 0.471802 0.101025
C33   C     C_R   0.158100 0.573602 0.536956 0.087935
C34   C     C_R   0.855076 0.458272 0.526188 0.100729
C35   C     C_R   0.762294 0.565051 0.461137 -0.019384
C36   C     C_R   0.224099 0.448502 0.474756 -0.065601
C37   C     C_R   0.237397 0.564752 0.538385 -0.019349
C38   C     C_R   0.776142 0.447901 0.523859 -0.064833
C39   C     C_R   0.729419 0.502790 0.493153 -0.252630
C40   C     C_R   0.270538 0.502807 0.506253 -0.252285
C41   C     C_R   0.886329 0.522126 0.496365 0.096751
C42   C     C_R   0.113667 0.522465 0.502014 0.096889
C43   C     C_1   0.966376 0.530518 0.498213 -0.009439
C44   C     C_1   0.033601 0.530636 0.499999 -0.009469
C45   C     C_R   0.451240 0.833004 0.462918 -0.251883
C46   C     C_R   0.512680 0.165321 0.550622 -0.277800
C47   C     C_R   0.548569 0.833008 0.537196 -0.251744
C48   C     C_R   0.487031 0.165262 0.449528 -0.277729
H5    H     H_    0.412792 0.864501 0.433439 0.159102
H6    H     H_    0.523490 0.133297 0.590660 0.167969
H7    H     H_    0.586972 0.864511 0.566699 0.159104
H8    H     H_    0.476302 0.133196 0.409504 0.167398
C49   C     C_R   0.451826 0.749320 0.463299 0.123328
C50   C     C_R   0.513761 0.249154 0.550350 0.103377
C51   C     C_R   0.548110 0.749324 0.536742 0.123582
C52   C     C_R   0.486274 0.249091 0.449685 0.103617
N3    N     N_R   0.500000 0.707230 0.500000 -0.178858
N4    N     N_R   0.500000 0.292770 0.500000 -0.143736
C53   C     C_R   0.499870 0.875846 0.500077 0.115944
C54   C     C_R   0.499767 0.122514 0.500101 0.121605
C55   C     C_1   0.499814 0.962930 0.500109 0.011229
C56   C     C_1   0.499779 0.035408 0.500121 0.009749
C57   C     C_2   0.399925 0.709590 0.422293 0.948496
O13   O     O_2   0.418623 0.700369 0.372593 -0.632353
O14   O     O_R   0.326841 0.690523 0.438613 -0.770024
H9    H     H_    0.294226 0.667606 0.405863 0.330705
C58   C     C_2   0.531985 0.285025 0.606849 0.964640
O15   O     O_2   0.491206 0.272089 0.647238 -0.596962
O16   O     O_R   0.598842 0.327747 0.615769 -0.779126
H10   H     H_    0.605935 0.347295 0.656978 0.358393
C59   C     C_2   0.600077 0.709601 0.577713 0.948681
O17   O     O_2   0.581455 0.700352 0.627431 -0.632101
O18   O     O_R   0.673150 0.690598 0.561340 -0.769569
H11   H     H_    0.705843 0.667747 0.594075 0.330735
C60   C     C_2   0.468976 0.284878 0.393017 0.964534
O19   O     O_2   0.510655 0.272196 0.353141 -0.596481
O20   O     O_R   0.401999 0.327129 0.383296 -0.779430
H12   H     H_    0.395600 0.346605 0.342019 0.358549
C61   C     C_2   0.282115 0.583827 0.040532 1.005435
O21   O     O_2   0.272929 0.619864 0.085463 -0.575947
O22   O     O_R   0.219456 0.554017 0.008873 -0.787342
H13   H     H_    0.169927 0.564636 0.028170 0.361096
C62   C     C_2   0.718607 0.584054 0.959415 1.005456
O23   O     O_2   0.727768 0.620139 0.914493 -0.575775
O24   O     O_R   0.781287 0.554270 0.991068 -0.787375
H14   H     H_    0.830809 0.564949 0.971774 0.361108
C63   C     C_3   0.593482 0.422213 0.194862 -0.739030
H15   H     H_    0.597613 0.361590 0.213146 0.234600
H16   H     H_    0.568606 0.415870 0.150415 0.219687
H17   H     H_    0.651230 0.447383 0.192450 0.296044
C64   C     C_3   0.407355 0.421987 0.805385 -0.739152
H18   H     H_    0.403290 0.361318 0.787188 0.234710
H19   H     H_    0.432328 0.415783 0.849815 0.219697
H20   H     H_    0.349574 0.447063 0.807829 0.295890
C65   C     C_2   0.624131 0.436601 0.320073 0.989732
O25   O     O_2   0.622747 0.392629 0.361801 -0.573567
O26   O     O_R   0.693774 0.457506 0.297748 -0.761768
H21   H     H_    0.738340 0.432862 0.319991 0.353562
C66   C     C_2   0.376425 0.435983 0.680207 0.989413
O27   O     O_2   0.377902 0.391752 0.638634 -0.573810
O28   O     O_R   0.306754 0.456781 0.702525 -0.761635
H22   H     H_    0.262237 0.431847 0.680410 0.353828
C67   C     C_3   0.354744 0.544460 0.328992 -0.757521
H23   H     H_    0.359899 0.535549 0.376293 0.224285
H24   H     H_    0.332691 0.604712 0.319858 0.253570
H25   H     H_    0.312055 0.501674 0.311554 0.260513
C68   C     C_3   0.645513 0.544337 0.670724 -0.759674
H26   H     H_    0.667710 0.604520 0.679898 0.253886
H27   H     H_    0.688181 0.501399 0.687989 0.259494
H28   H     H_    0.640156 0.535586 0.623417 0.224360
C69   C     C_3   0.880327 0.635998 0.426098 -0.792924
H29   H     H_    0.841787 0.668072 0.395514 0.258032
H30   H     H_    0.909031 0.679899 0.455058 0.250733
H31   H     H_    0.923327 0.607273 0.399351 0.234641
C70   C     C_3   0.093000 0.403080 0.437556 -0.811114
H32   H     H_    0.122190 0.354096 0.415937 0.256589
H33   H     H_    0.052631 0.375279 0.466906 0.231819
H34   H     H_    0.060652 0.436700 0.403634 0.246506
C71   C     C_3   0.119033 0.635176 0.573284 -0.792921
H35   H     H_    0.157308 0.666684 0.604379 0.257980
H36   H     H_    0.090682 0.679583 0.544544 0.250880
H37   H     H_    0.075707 0.606043 0.599508 0.234558
C72   C     C_3   0.907623 0.401384 0.559368 -0.810483
H38   H     H_    0.878659 0.351794 0.580457 0.256295
H39   H     H_    0.947661 0.374386 0.529387 0.231669
H40   H     H_    0.940317 0.434133 0.593556 0.246686
C73   C     C_2   0.713838 0.620516 0.426316 0.988606
O29   O     O_2   0.716397 0.691523 0.436235 -0.576241
O30   O     O_R   0.664272 0.591150 0.383131 -0.806794
H41   H     H_    0.633813 0.634411 0.362773 0.359303
C74   C     C_2   0.257192 0.381524 0.443667 0.988192
O31   O     O_2   0.258513 0.383064 0.391010 -0.619255
O32   O     O_R   0.282399 0.314952 0.474579 -0.745667
H42   H     H_    0.299229 0.270594 0.448639 0.358704
C75   C     C_2   0.285605 0.619857 0.573716 0.988193
O33   O     O_2   0.282971 0.690988 0.564281 -0.576245
O34   O     O_R   0.335075 0.590022 0.616794 -0.806948
H43   H     H_    0.365387 0.633072 0.637517 0.359263
C76   C     C_2   0.743341 0.380659 0.554860 0.988652
O35   O     O_2   0.743137 0.381460 0.607570 -0.618405
O36   O     O_R   0.717163 0.314641 0.523758 -0.745091
H44   H     H_    0.700518 0.270090 0.549597 0.358154

loop_
_geom_bond_atom_site_label_1
_geom_bond_atom_site_label_2
_geom_bond_distance
_ccdc_geom_bond_type
C48   C54   1.388359 A    
C70   H34   1.110693 S    
C58   O15   1.222852 D    
C26   C68   1.509021 S    
O18   H11   1.012454 S    
C45   C53   1.395825 A    
C35   C39   1.424664 A    
C72   H40   1.110611 S    
C63   H16   1.109833 S    
O24   H14   1.013888 S    
C60   O19   1.222734 D    
C31   C41   1.403902 A    
C69   H31   1.110732 S    
O36   H44   1.013089 S    
C67   H23   1.107227 S    
C21   C23   1.419112 A    
O14   H9    1.012470 S    
O5    C3    1.291942 A    
C37   C75   1.486975 S    
O22   H13   1.013886 S    
C57   O13   1.220824 D    
O1    C1    1.287930 A    
C73   O30   1.395858 S    
C12   C14   1.410385 A    
C19   C63   1.515060 S    
C38   C76   1.475490 S    
C52   C60   1.467893 S    
C71   H37   1.110750 S    
C67   H24   1.108327 S    
C75   O34   1.395889 S    
C72   H38   1.105973 S    
C46   C50   1.417820 A    
C45   C49   1.415228 A    
C15   C17   1.401272 A    
C72   H39   1.108910 S    
C41   C43   1.420082 S    
O7    Zn1   1.980199 S    
C6    O10   1.348370 S    
C4    C24   1.456585 S    
C70   H33   1.108934 S    
O34   H43   1.013839 S    
C73   O29   1.223134 D    
C65   O26   1.398241 S    
C18   C62   1.484205 S    
C42   C44   1.420026 S    
C63   H15   1.110646 S    
C76   O36   1.398128 S    
C50   C58   1.468085 S    
C22   C24   1.419056 A    
N2    C8    1.371145 A    
O3    Zn1   1.994753 S    
C51   C59   1.459145 S    
C8    O12   1.349662 S    
O3    C2    1.288077 A    
C66   O28   1.398240 S    
C34   C72   1.524401 S    
C9    C15   1.401478 A    
C10   C16   1.401493 A    
C74   O32   1.398052 S    
C23   C25   1.410752 A    
O2    C2    1.295466 A    
C24   C26   1.410745 A    
C26   C28   1.386542 A    
O20   H12   1.014257 S    
C28   H4    1.083069 S    
C27   H3    1.083095 S    
C6    C14   1.408080 A    
Zn1   N3    2.001730 S    
C17   C61   1.484209 S    
C70   H32   1.106006 S    
C47   C53   1.395830 A    
C64   H19   1.109832 S    
C7    O11   1.349687 S    
C59   O17   1.220837 D    
C53   C55   1.472656 S    
C33   C37   1.407824 A    
C37   C40   1.424369 A    
C31   C35   1.407818 A    
C15   H1    1.084092 S    
C38   C39   1.415734 A    
C55   C56   1.225669 T    
C36   C40   1.415506 A    
C48   H8    1.085199 S    
C68   H27   1.110097 S    
C59   O18   1.396859 S    
C19   C29   1.418063 A    
C33   C42   1.404079 A    
C35   C73   1.486914 S    
C76   O35   1.222293 D    
C27   C29   1.397083 A    
C74   O31   1.222227 D    
C62   O24   1.398438 S    
C36   C74   1.475397 S    
C25   C27   1.386471 A    
C51   N3    1.378066 A    
O28   H22   1.013961 S    
C54   C56   1.473026 S    
C61   O22   1.398434 S    
C8    C10   1.393519 A    
C21   C65   1.493461 S    
C9    C11   1.402133 A    
O8    Zn2   1.980199 S    
C63   H17   1.108703 S    
C10   C12   1.402132 A    
O1    Zn1   1.994732 S    
C68   H26   1.108337 S    
C25   C67   1.509014 S    
C75   O33   1.223140 D    
C11   C13   1.410409 A    
C34   C38   1.404276 A    
C13   C18   1.422037 A    
C5    N1    1.374255 A    
O6    Zn2   1.980304 S    
C64   H18   1.110653 S    
C57   O14   1.396888 S    
C33   C71   1.521449 S    
C2    C39   1.472946 S    
C52   N4    1.394173 A    
O4    C1    1.295364 A    
C69   H30   1.110424 S    
N1    C30   1.442732 S    
C67   H25   1.110064 S    
C71   H35   1.106071 S    
C60   O20   1.393031 S    
C5    O9    1.348359 S    
C20   C30   1.418066 A    
C34   C41   1.406402 A    
C48   C52   1.417676 A    
C46   C54   1.388423 A    
C1    C40   1.472441 S    
C28   C30   1.397063 A    
C61   O21   1.223137 D    
C58   O16   1.393076 S    
O32   H42   1.013231 S    
C68   H28   1.107203 S    
C19   C21   1.412291 A    
C32   C42   1.406395 A    
O26   H21   1.013975 S    
C20   C22   1.412255 A    
C71   H36   1.110395 S    
C65   O25   1.221127 D    
C46   H6    1.085205 S    
C45   H5    1.084596 S    
C16   C18   1.401320 A    
N1    C7    1.371121 A    
C3    C23   1.456500 S    
C64   H20   1.108719 S    
C47   H7    1.084584 S    
Zn2   N4    2.001730 S    
O4    Zn2   1.994753 S    
C69   H29   1.106018 S    
O2    Zn2   1.994732 S    
O7    C4    1.292093 A    
C5    C13   1.408164 A    
O8    C3    1.284212 A    
C11   C12   1.400686 A    
C43   C44   1.186626 T    
C20   C64   1.515071 S    
C32   C36   1.404171 A    
O5    Zn1   1.980304 S    
C22   C66   1.493311 S    
C47   C51   1.415236 A    
C16   H2    1.084100 S    
C14   C17   1.422014 A    
C6    N2    1.374253 A    
C66   O27   1.221191 D    
C50   N4    1.394203 A    
C31   C69   1.521475 S    
C62   O23   1.223136 D    
C32   C70   1.524387 S    
C49   N3    1.378056 A    
O16   H10   1.014245 S    
O30   H41   1.013841 S    
C49   C57   1.459074 S    
O6    C4    1.284103 A    
N2    C29   1.442780 S    
C7    C9    1.393428 A    
