data_mof_unit_5375.cif
_audit_creation_date              2012-12-10T18:03:59-0500
_audit_creation_method            fapswitch 2.2
_symmetry_space_group_name_H-M    P1
_symmetry_Int_Tables_number       1
_space_group_crystal_system       triclinic
_cell_length_a                    10.804457
_cell_length_b                    9.635999
_cell_length_c                    10.874529
_cell_angle_alpha                 90.972148
_cell_angle_beta                  94.505935
_cell_angle_gamma                 90.473478
_cell_volume                      1128.45204118

loop_
_atom_site_label
_atom_site_type_symbol
_atom_type_description
_atom_site_fract_x
_atom_site_fract_y
_atom_site_fract_z
_atom_type_partial_charge
C1    C     C_R   0.262576 0.500147 0.500596 0.787086
C2    C     C_R   0.737653 0.500554 0.500477 0.760843
C3    C     C_R   0.415214 0.072774 0.425087 0.477944
C4    C     C_R   0.571858 0.076897 0.587695 0.428832
C5    C     C_R   0.420460 0.924495 0.419145 0.120491
C6    C     C_R   0.578951 0.929301 0.580480 0.162253
C7    C     C_R   0.499191 0.497883 0.262072 0.843239
C8    C     C_R   0.491976 0.500700 0.736539 0.829700
C9    C     C_R   0.491237 0.618883 0.066181 0.141599
C10   C     C_R   0.489292 0.621860 0.939538 0.109979
C11   C     C_R   0.486733 0.493338 0.127161 -0.211801
C12   C     C_R   0.471598 0.500995 0.867683 -0.212305
C13   C     C_R   0.459915 0.369875 0.055396 0.130466
C14   C     C_R   0.436130 0.378921 0.926619 0.139415
C15   C     C_3   0.588507 0.730464 0.943697 -0.413926
C16   C     C_3   0.588874 0.729613 0.082632 -0.430756
C17   C     C_R   0.068794 0.398642 0.563886 -0.179265
C18   C     C_R   0.940809 0.396809 0.560557 -0.186170
C19   C     C_R   0.871915 0.502493 0.502165 0.007181
C20   C     C_R   0.128973 0.502618 0.503266 -0.025866
C21   C     C_R   0.932459 0.611301 0.447198 -0.156582
C22   C     C_R   0.060783 0.610872 0.447130 -0.161670
Cu1   Cu    Cu3+1 0.500000 0.640660 0.500000 1.005236
Cu2   Cu    Cu3+1 0.500000 0.359340 0.500000 1.025792
H1    H     H_    0.676433 0.689545 0.911652 0.213484
H2    H     H_    0.553424 0.827263 0.122000 0.249239
H3    H     H_    0.554602 0.829729 0.903400 0.250729
H4    H     H_    0.677414 0.692232 0.129289 0.186299
H5    H     H_    0.120321 0.319589 0.614667 0.155486
H6    H     H_    0.896949 0.312975 0.604325 0.121350
H7    H     H_    0.880639 0.694655 0.402347 0.151425
H8    H     H_    0.106155 0.694086 0.402243 0.169173
N1    N     N_R   0.500000 0.852070 0.500000 -0.228672
N2    N     N_R   0.500000 0.147940 0.500000 -0.247774
O1    O     O_R   0.319640 0.618740 0.499990 -0.563934
O2    O     O_R   0.680360 0.618740 0.500010 -0.552057
O3    O     O_R   0.319620 0.381170 0.499990 -0.563559
O4    O     O_R   0.680380 0.381170 0.500010 -0.610603
O5    O     O_R   0.499990 0.618810 0.319660 -0.555427
O6    O     O_R   0.500010 0.618810 0.680340 -0.551928
O7    O     O_R   0.499960 0.381240 0.319650 -0.522965
O8    O     O_R   0.500040 0.381240 0.680350 -0.527339
I1    I     I_    0.489508 0.164900 0.123447 -0.303899
I2    I     I_    0.332542 0.214820 0.828011 -0.314134
O9    O     O_3   0.325070 0.142666 0.353594 -0.544135
C23   C     C_3   0.206556 0.118289 0.397437 0.097779
H9    H     H_    0.200437 0.168746 0.488508 0.148581
H10   H     H_    0.186366 0.007217 0.412312 0.137043
C24   C     C_3   0.106474 0.174594 0.304473 -0.295709
H11   H     H_    0.109937 0.289850 0.307079 0.218140
H12   H     H_    0.124918 0.138989 0.209896 0.253930
C25   C     C_3   0.976910 0.124551 0.331113 -0.899971
H13   H     H_    0.968250 0.010605 0.314990 0.260830
H14   H     H_    0.906078 0.176695 0.268834 0.264886
H15   H     H_    0.958653 0.148490 0.428081 0.257399
O10   O     O_3   0.598510 0.138285 0.703073 -0.554445
C26   C     C_3   0.722339 0.185624 0.721691 0.109741
H16   H     H_    0.724560 0.297569 0.702191 0.169353
H17   H     H_    0.786772 0.129166 0.663733 0.121715
C27   C     C_3   0.766389 0.172636 0.858266 -0.332082
H18   H     H_    0.706097 0.236424 0.914791 0.237139
H19   H     H_    0.758683 0.063162 0.887081 0.255241
C28   C     C_3   0.900728 0.221974 0.883776 -0.891908
H20   H     H_    0.963180 0.158397 0.829629 0.275213
H21   H     H_    0.929707 0.211412 0.983422 0.268440
H22   H     H_    0.909909 0.332747 0.858946 0.255134
I3    I     I_    0.308898 0.825181 0.270144 -0.349636
I4    I     I_    0.725494 0.836384 0.690644 -0.409288

loop_
_geom_bond_atom_site_label_1
_geom_bond_atom_site_label_2
_ccdc_geom_bond_type
Cu1   O6    S    
C16   H4    S    
Cu2   O4    S    
Cu1   Cu2   S    
C28   H21   S    
C18   H6    S    
C1    O3    A    
C17   H5    S    
C9    C10   A    
C2    O4    A    
C14   I2    S    
C15   H3    S    
C6    N1    A    
C8    C12   S    
C5    I3    S    
C24   C25   S    
C21   C22   A    
C21   H7    S    
C24   H12   S    
C6    I4    S    
Cu2   O3    S    
C26   C27   S    
C28   H22   S    
C13   C14   A    
C25   H13   S    
C7    C11   S    
Cu2   O7    S    
C11   C13   A    
C23   C24   S    
C26   H16   S    
C10   C12   A    
C27   C28   S    
Cu1   O5    S    
C4    C6    A    
C19   C21   A    
C9    C16   S    
C25   H14   S    
C17   C18   A    
Cu1   O1    S    
C10   C15   S    
C9    C11   A    
C16   H2    S    
C4    N2    A    
C15   H1    S    
C26   H17   S    
C25   H15   S    
C20   C22   A    
C15   C16   S    
C4    O10   S    
C23   H10   S    
C12   C14   A    
C13   I1    S    
C22   H8    S    
Cu2   O8    S    
O10   C26   S    
C1    O1    A    
C27   H19   S    
Cu1   O2    S    
C2    O2    A    
C24   H11   S    
C7    O5    A    
C23   H9    S    
C18   C19   A    
C1    C20   S    
C8    O6    A    
C3    N2    A    
Cu1   N1    S    
C2    C19   S    
O9    C23   S    
C17   C20   A    
C3    O9    S    
Cu2   N2    S    
C28   H20   S    
C7    O7    A    
C8    O8    A    
C27   H18   S    
C3    C5    A    
C5    N1    A    
