data_mof_unit_12642.cif
_audit_creation_date              2013-03-05T15:41:13-0500
_audit_creation_method            fapswitch 2.2
_symmetry_space_group_name_H-M    P1
_symmetry_Int_Tables_number       1
_space_group_crystal_system       triclinic
_cell_length_a                    16.705382
_cell_length_b                    16.855052
_cell_length_c                    16.777836
_cell_angle_alpha                 68.32757
_cell_angle_beta                  68.151279
_cell_angle_gamma                 68.217848
_cell_volume                      3922.50648196

loop_
_atom_site_label
_atom_site_type_symbol
_atom_site_description
_atom_site_fract_x
_atom_site_fract_y
_atom_site_fract_z
_atom_type_partial_charge
O1    O     O_R   0.124540 0.978640 0.385460 -0.546096
O2    O     O_R   0.875460 0.021360 0.614540 -0.510866
O3    O     O_R   0.978640 0.385460 0.124540 -0.527634
O4    O     O_R   0.021360 0.614540 0.875460 -0.533093
O5    O     O_R   0.385460 0.124540 0.978640 -0.540161
O6    O     O_R   0.614540 0.875460 0.021360 -0.531613
O7    O     O_R   0.614540 0.021360 0.875460 -0.542784
O8    O     O_R   0.385460 0.978640 0.124540 -0.529166
O9    O     O_R   0.875460 0.614540 0.021360 -0.530817
O10   O     O_R   0.124540 0.385460 0.978640 -0.532290
O11   O     O_R   0.021360 0.875460 0.614540 -0.527300
O12   O     O_R   0.978640 0.124540 0.385460 -0.556330
C1    C     C_R   0.321645 0.961123 0.450920 0.005229
C2    C     C_R   0.674741 0.053755 0.547123 -0.051145
C3    C     C_R   0.962124 0.449271 0.321906 -0.015622
C4    C     C_R   0.052276 0.547515 0.675293 -0.047946
C5    C     C_R   0.452987 0.321542 0.952118 -0.002568
C6    C     C_R   0.568008 0.689051 0.993938 0.006980
C7    C     C_R   0.546614 0.047708 0.678488 0.002059
C8    C     C_R   0.430361 0.007689 0.310369 0.013701
C9    C     C_R   0.678881 0.549304 0.036938 -0.009956
C10   C     C_R   0.324798 0.452095 0.946937 -0.053672
C11   C     C_R   0.042579 0.678941 0.548831 -0.016604
C12   C     C_R   0.008394 0.309710 0.430624 0.007218
Cu1   Cu    Cu3+1 0.995180 0.995180 0.424630 1.104014
Cu2   Cu    Cu3+1 0.004820 0.004820 0.575370 1.184717
Cu3   Cu    Cu3+1 0.995180 0.424630 0.995180 1.111772
Cu4   Cu    Cu3+1 0.004820 0.575370 0.004820 1.107762
Cu5   Cu    Cu3+1 0.424630 0.995180 0.995180 1.190664
Cu6   Cu    Cu3+1 0.575370 0.004820 0.004820 1.184213
C13   C     C_R   0.028107 0.828430 0.564881 0.860277
C14   C     C_R   0.981143 0.169935 0.431808 0.842746
C15   C     C_R   0.828093 0.564265 0.028846 0.875567
C16   C     C_R   0.171897 0.435633 0.970155 0.763622
C17   C     C_R   0.564255 0.029868 0.828273 0.894276
C18   C     C_R   0.431918 0.980522 0.170244 0.863396
C19   C     C_R   0.435498 0.171647 0.970671 0.898296
C20   C     C_R   0.567959 0.829605 0.019704 0.866385
C21   C     C_R   0.972031 0.435324 0.171738 0.883246
C22   C     C_R   0.029563 0.564415 0.828060 0.756765
C23   C     C_R   0.172002 0.970461 0.435918 0.912821
C24   C     C_R   0.827896 0.030258 0.564210 0.779560
O13   O     O_R   0.013780 0.867370 0.487190 -0.558568
O14   O     O_R   0.986220 0.132630 0.512810 -0.546473
O15   O     O_R   0.867370 0.487190 0.013780 -0.553556
O16   O     O_R   0.132630 0.512810 0.986220 -0.610956
O17   O     O_R   0.487190 0.013780 0.867370 -0.553957
O18   O     O_R   0.512810 0.986220 0.132630 -0.551100
O19   O     O_R   0.512810 0.132630 0.986220 -0.557327
O20   O     O_R   0.487190 0.867370 0.013780 -0.546539
O21   O     O_R   0.986220 0.512810 0.132630 -0.555715
O22   O     O_R   0.013780 0.487190 0.867370 -0.603455
O23   O     O_R   0.132630 0.986220 0.512810 -0.550515
O24   O     O_R   0.867370 0.013780 0.487190 -0.607635
C25   C     C_R   0.399874 0.989981 0.404114 0.022207
C26   C     C_R   0.588120 0.041985 0.590279 0.049931
C27   C     C_R   0.990197 0.403030 0.400436 0.009009
C28   C     C_R   0.038614 0.590500 0.589776 0.045790
C29   C     C_R   0.411553 0.409324 0.958104 0.049585
C30   C     C_R   0.599600 0.595730 0.009956 0.011894
C31   C     C_R   0.271214 0.955858 0.401582 -0.079700
C32   C     C_R   0.727761 0.051172 0.598196 -0.198375
C33   C     C_R   0.958797 0.400043 0.270522 -0.105770
C34   C     C_R   0.049401 0.598679 0.728233 -0.203690
C35   C     C_R   0.401410 0.270411 0.952024 -0.083891
C36   C     C_R   0.607762 0.734041 0.020647 -0.149130
C37   C     C_R   0.597924 0.049137 0.729246 -0.090364
C38   C     C_R   0.391519 0.979989 0.265559 -0.145335
C39   C     C_R   0.728843 0.598439 0.043184 -0.110151
C40   C     C_R   0.271776 0.401214 0.949650 -0.198641
C41   C     C_R   0.045412 0.729670 0.599221 -0.116970
C42   C     C_R   0.981613 0.264740 0.391109 -0.144241
C43   C     C_R   0.452094 0.062689 0.708535 -0.024794
C44   C     C_R   0.500975 0.049573 0.265862 0.023180
C45   C     C_R   0.053946 0.709786 0.455373 -0.002145
C46   C     C_R   0.050718 0.265678 0.500881 0.023519
C47   C     C_R   0.704595 0.455053 0.057671 -0.025795
C48   C     C_R   0.299085 0.545903 0.922433 -0.082917
C49   C     C_R   0.298142 0.936493 0.545545 -0.032737
C50   C     C_R   0.699346 0.080544 0.452922 -0.083106
C51   C     C_R   0.547650 0.292653 0.934552 -0.010740
C52   C     C_R   0.495890 0.732851 0.953936 0.024530
C53   C     C_R   0.935718 0.543354 0.299190 -0.012991
C54   C     C_R   0.080357 0.453642 0.699103 -0.079264
C55   C     C_R   0.313978 0.949829 0.313783 0.190482
C56   C     C_R   0.685467 0.059302 0.685985 0.220802
C57   C     C_R   0.953779 0.312235 0.312267 0.194009
C58   C     C_R   0.056012 0.686726 0.686278 0.224798
C59   C     C_R   0.313533 0.313143 0.942869 0.224370
C60   C     C_R   0.685735 0.685721 0.050170 0.194125
C61   C     C_R   0.659624 0.057315 0.406137 0.028333
C62   C     C_R   0.329605 0.972334 0.589160 -0.010550
C63   C     C_R   0.057428 0.406612 0.659347 0.022518
C64   C     C_R   0.969041 0.587678 0.332227 -0.008115
C65   C     C_R   0.435960 0.685670 0.965791 -0.020411
C66   C     C_R   0.590258 0.327568 0.967919 -0.020066
C67   C     C_R   0.561240 0.038784 0.312283 -0.020253
C68   C     C_R   0.410932 0.027290 0.674238 -0.012689
C69   C     C_R   0.338086 0.591566 0.947596 0.021780
C70   C     C_R   0.673141 0.413005 0.020366 -0.005711
C71   C     C_R   0.039981 0.312173 0.560930 -0.019732
C72   C     C_R   0.017698 0.674822 0.416001 -0.011837
C73   C     C_R   0.699120 0.057075 0.315115 -0.043634
C74   C     C_R   0.285466 0.981201 0.677607 -0.099687
C75   C     C_R   0.058137 0.315889 0.698188 -0.046359
C76   C     C_R   0.974250 0.676838 0.290221 -0.086943
C77   C     C_R   0.345767 0.728071 0.962133 -0.093229
C78   C     C_R   0.677113 0.283512 0.981854 -0.085137
C79   C     C_R   0.650386 0.045504 0.268415 -0.090737
C80   C     C_R   0.326101 0.008831 0.720243 -0.087772
C81   C     C_R   0.296686 0.680680 0.952254 -0.050935
C82   C     C_R   0.719029 0.326947 0.006825 -0.077967
C83   C     C_R   0.047868 0.268700 0.649294 -0.092127
C84   C     C_R   0.995841 0.721274 0.333514 -0.067133
C85   C     C_R   0.529399 0.024200 0.405269 0.011375
C86   C     C_R   0.453934 0.017285 0.587271 0.010467
C87   C     C_R   0.023804 0.404905 0.529921 0.012866
C88   C     C_R   0.012076 0.586929 0.457054 0.004357
C89   C     C_R   0.421237 0.546755 0.967116 0.022949
C90   C     C_R   0.591010 0.458229 0.998981 0.019979
C91   C     C_R   0.577643 0.035021 0.451887 0.022923
C92   C     C_R   0.409921 0.997636 0.542672 0.020073
C93   C     C_R   0.469189 0.593471 0.978044 0.012247
C94   C     C_R   0.546749 0.413488 0.979870 0.007595
C95   C     C_R   0.034050 0.451816 0.578263 0.022027
C96   C     C_R   0.994278 0.541755 0.412344 0.018918
C97   C     C_R   0.446759 0.003207 0.450948 -0.003777
C98   C     C_R   0.539726 0.031852 0.542875 -0.003762
C99   C     C_R   0.002054 0.450096 0.447929 -0.001607
C100  C     C_R   0.028697 0.542790 0.541548 -0.004378
C101  C     C_R   0.460051 0.456771 0.967894 -0.004242
C102  C     C_R   0.552906 0.548862 0.996445 -0.002043
Br1   Br    Br    0.272856 0.886587 0.267378 -0.375876
Br2   Br    Br    0.740311 0.103396 0.739020 -0.385751
Br3   Br    Br    0.896797 0.264071 0.265715 -0.378380
Br4   Br    Br    0.096699 0.742324 0.741580 -0.366471
Br5   Br    Br    0.256583 0.256903 0.904526 -0.369681
Br6   Br    Br    0.726866 0.731298 0.114226 -0.384925
C103  C     C_2   0.280339 0.014983 0.813883 0.262170
H1    H     H_    0.207924 0.033801 0.837654 0.134044
O25   O     O_2   0.322980 0.998149 0.866143 -0.525866
C104  C     C_2   0.696842 0.025366 0.180317 0.372464
H2    H     H_    0.752217 0.051555 0.134322 0.139251
O26   O     O_2   0.675415 0.975707 0.159175 -0.488126
C105  C     C_2   0.990508 0.817576 0.294367 0.269083
H3    H     H_    0.010518 0.845269 0.222769 0.091204
O27   O     O_2   0.962096 0.867350 0.342116 -0.537975
C106  C     C_2   0.030653 0.179823 0.694958 0.369368
H4    H     H_    0.060472 0.133890 0.747689 0.136337
O28   O     O_2   0.979883 0.157792 0.675608 -0.485377
C107  C     C_2   0.813962 0.285270 0.010180 0.287155
H5    H     H_    0.838252 0.214213 0.035855 0.135890
O29   O     O_2   0.866663 0.330078 0.982119 -0.533874
C108  C     C_2   0.199184 0.717657 0.958349 0.413596
H6    H     H_    0.154999 0.674680 0.995000 0.124472
O30   O     O_2   0.168327 0.793579 0.918458 -0.561006
C109  C     C_2   0.193955 0.968288 0.724019 0.265485
H7    H     H_    0.173866 0.941526 0.795596 0.142948
O31   O     O_2   0.139297 0.988929 0.682815 -0.514680
C110  C     C_2   0.794556 0.058882 0.273992 0.398413
H8    H     H_    0.841914 0.024287 0.313854 0.132240
O32   O     O_2   0.819683 0.103716 0.198316 -0.570159
C111  C     C_2   0.723922 0.191220 0.973394 0.253050
H9    H     H_    0.796283 0.170011 0.949279 0.099808
O33   O     O_2   0.682132 0.137433 0.993851 -0.522792
C112  C     C_2   0.299504 0.815497 0.982751 0.382329
H10   H     H_    0.244013 0.861190 0.956761 0.131673
O34   O     O_2   0.321707 0.836646 0.031980 -0.483288
C113  C     C_2   0.965214 0.721823 0.197836 0.290407
H11   H     H_    0.931010 0.791808 0.179180 0.095449
O35   O     O_2   0.997494 0.681128 0.141183 -0.524594
C114  C     C_2   0.058284 0.275729 0.793539 0.402987
H12   H     H_    0.020269 0.315173 0.840869 0.126621
O36   O     O_2   0.105119 0.201435 0.818780 -0.560378
C115  C     C_2   0.396854 0.142324 0.742478 0.517442
H13   H     H_    0.324683 0.162743 0.754859 0.145504
O37   O     O_2   0.431634 0.189669 0.751323 -0.503970
C116  C     C_2   0.493883 0.127475 0.186469 0.441490
H14   H     H_    0.549244 0.156983 0.149191 0.097932
O38   O     O_2   0.423710 0.163079 0.165273 -0.576577
C117  C     C_2   0.132441 0.745360 0.397563 0.493900
H15   H     H_    0.146278 0.765256 0.325616 0.090382
O39   O     O_2   0.186044 0.747509 0.429723 -0.495635
C118  C     C_2   0.129239 0.186248 0.493648 0.439748
H16   H     H_    0.159283 0.149108 0.548467 0.093447
O40   O     O_2   0.164938 0.164804 0.423825 -0.576440
C119  C     C_2   0.738299 0.401456 0.137901 0.517801
H17   H     H_    0.753116 0.329797 0.157804 0.130320
O41   O     O_2   0.744034 0.436920 0.186493 -0.485803
C120  C     C_2   0.261511 0.592205 0.844084 0.470007
H18   H     H_    0.226429 0.561562 0.826014 0.064605
O42   O     O_2   0.276300 0.662268 0.793956 -0.513098
C121  C     C_2   0.267402 0.854355 0.596352 0.506112
H19   H     H_    0.259573 0.828475 0.667465 0.139504
O43   O     O_2   0.256439 0.810928 0.558822 -0.506107
C122  C     C_2   0.735605 0.159448 0.408732 0.463617
H20   H     H_    0.774175 0.174086 0.438489 0.083432
O44   O     O_2   0.715791 0.213679 0.342055 -0.498364
C123  C     C_2   0.600608 0.260084 0.853473 0.490382
H21   H     H_    0.672487 0.250282 0.829695 0.103073
O45   O     O_2   0.564026 0.249939 0.808381 -0.512873
C124  C     C_2   0.501595 0.811650 0.875214 0.435756
H22   H     H_    0.446015 0.846815 0.845777 0.098933
O46   O     O_2   0.570863 0.834500 0.838706 -0.585921
C125  C     C_2   0.853229 0.592714 0.267761 0.490824
H23   H     H_    0.826757 0.663708 0.258397 0.092741
O47   O     O_2   0.809670 0.554013 0.258445 -0.496197
C126  C     C_2   0.159688 0.409871 0.735855 0.469543
H24   H     H_    0.174422 0.440133 0.773734 0.062270
O48   O     O_2   0.214381 0.342809 0.717260 -0.503900

loop_
_geom_bond_atom_site_label_1
_geom_bond_atom_site_label_2
_geom_bond_distance
_ccdc_geom_bond_type
C7    C26   1.404417 A    
O10   Cu3   1.952677 S    
C11   C28   1.407643 A    
C2    C26   1.408771 A    
C1    C49   1.420269 A    
C43   C115  1.493886 S    
C120  H18   1.083835 S    
C68   C80   1.427075 A    
C75   C114  1.489767 S    
O5    C19   1.295377 A    
C93   C102  1.409272 A    
C15   O15   1.291734 A    
C113  H11   1.084476 S    
C27   C99   1.415810 A    
C21   O21   1.293627 A    
C111  H9    1.083887 S    
C48   C120  1.491278 S    
C23   C31   1.493542 S    
C74   C109  1.492126 S    
C17   O17   1.288545 A    
Cu1   O13   1.978615 S    
C116  H14   1.083938 S    
Cu2   O14   1.978614 S    
C115  O37   1.221530 D    
C125  H23   1.082699 S    
C114  H12   1.084946 S    
C35   C59   1.413806 A    
C32   C56   1.410704 A    
Cu4   O16   1.960664 S    
C109  H7    1.081918 S    
C13   O13   1.292627 A    
C76   C84   1.419847 A    
C85   C91   1.406472 A    
O8    Cu5   1.961597 S    
C83   C106  1.490577 S    
C75   C83   1.422278 A    
C80   C103  1.493653 S    
C111  O33   1.220081 D    
C106  O28   1.220786 D    
C86   C92   1.408364 A    
C31   C55   1.401452 A    
Cu4   O21   1.970762 S    
C73   C110  1.490134 S    
C34   C58   1.415004 A    
C65   C93   1.405048 A    
C2    C32   1.424570 A    
C49   C121  1.495719 S    
C4    C54   1.415946 A    
C85   C97   1.411794 A    
C118  H16   1.083917 S    
C28   C100  1.417088 A    
C47   C70   1.420890 A    
O8    C18   1.292492 A    
C92   C97   1.409633 A    
C63   C75   1.421051 A    
C95   C100  1.407209 A    
C56   Br2   1.945267 S    
C65   C77   1.421968 A    
C20   C36   1.493646 S    
C12   C27   1.412208 A    
C121  O43   1.221284 D    
C19   C35   1.495900 S    
C45   C72   1.414375 A    
C89   C101  1.408110 A    
C107  H5    1.083061 S    
O6    C20   1.296902 A    
C7    C37   1.426302 A    
C79   C104  1.491152 S    
C16   O16   1.299675 A    
C2    C50   1.413464 A    
C67   C85   1.404778 A    
C87   C99   1.413257 A    
C24   C32   1.499506 S    
C108  O30   1.218969 D    
C72   C88   1.406902 A    
C15   C39   1.495106 S    
C77   C81   1.422242 A    
Cu3   O15   1.960665 S    
C64   C96   1.412395 A    
C66   C78   1.426868 A    
C77   C112  1.490198 S    
O11   C13   1.298774 A    
C123  H21   1.083139 S    
C109  O31   1.220279 D    
O7    Cu6   1.961599 S    
O12   C14   1.295861 A    
C107  O29   1.220436 D    
O1    Cu1   1.952103 S    
C38   C55   1.412730 A    
C3    C27   1.411926 A    
C30   C102  1.416014 A    
C69   C81   1.419864 A    
C8    C25   1.411440 A    
C6    C52   1.422215 A    
O4    Cu4   1.963024 S    
C114  O36   1.219576 D    
C105  H3    1.084163 S    
C44   C67   1.412932 A    
O5    Cu5   1.971951 S    
Cu5   O20   1.976286 S    
C117  O39   1.221656 D    
C43   C68   1.418639 A    
C50   C122  1.490170 S    
C78   C111  1.493038 S    
C124  H22   1.083509 S    
C66   C94   1.410873 A    
C11   C41   1.428926 A    
C7    C43   1.420112 A    
C112  O34   1.220837 D    
Cu1   O24   1.958806 S    
C58   Br4   1.945604 S    
C91   C98   1.407018 A    
C14   C42   1.489697 S    
C11   C45   1.419353 A    
C10   C29   1.407892 A    
C52   C124  1.490690 S    
C51   C66   1.420272 A    
C126  H24   1.083358 S    
C3    C53   1.419197 A    
O11   Cu2   1.972802 S    
Cu1   Cu2   2.659833 S    
C117  H15   1.083446 S    
C53   C64   1.421060 A    
C78   C82   1.423781 A    
C94   C101  1.412225 A    
C9    C39   1.426760 A    
C110  O32   1.220404 D    
C60   Br6   1.941252 S    
O4    C22   1.301627 A    
Cu5   Cu6   2.649521 S    
C88   C100  1.414538 A    
C62   C92   1.410832 A    
Cu5   O17   1.966573 S    
C19   O19   1.289302 A    
C54   C126  1.492459 S    
C68   C86   1.408956 A    
C115  H13   1.083347 S    
C44   C116  1.490850 S    
C17   C37   1.491222 S    
C29   C101  1.414158 A    
C14   O14   1.290193 A    
C82   C107  1.490691 S    
C8    C44   1.421459 A    
O10   C16   1.298099 A    
C4    C28   1.410266 A    
C106  H4    1.079884 S    
C72   C84   1.423122 A    
C10   C48   1.414494 A    
C49   C62   1.423078 A    
C124  O46   1.221248 D    
C9    C30   1.409541 A    
C70   C90   1.407298 A    
C122  O44   1.221626 D    
O6    Cu6   1.971951 S    
Cu6   O19   1.976286 S    
C25   C97   1.413387 A    
C70   C82   1.425407 A    
C59   Br5   1.947505 S    
C61   C91   1.411538 A    
C112  H10   1.079630 S    
C47   C119  1.494493 S    
C76   C113  1.490444 S    
C104  O26   1.220932 D    
C40   C59   1.414309 A    
C39   C60   1.405300 A    
C45   C117  1.492331 S    
Cu2   O23   1.958807 S    
C48   C69   1.418428 A    
C42   C57   1.416423 A    
Cu3   O22   1.970763 S    
C12   C42   1.434501 A    
C57   Br3   1.941760 S    
C113  O35   1.220770 D    
Cu6   O18   1.966571 S    
C46   C71   1.416210 A    
C16   C40   1.496879 S    
C64   C76   1.425414 A    
C37   C56   1.413848 A    
C120  O42   1.221167 D    
C52   C65   1.414240 A    
C33   C57   1.403841 A    
C90   C102  1.411065 A    
O7    C17   1.294119 A    
C8    C38   1.432281 A    
C12   C46   1.423006 A    
O1    C23   1.302554 A    
C84   C105  1.490923 S    
C61   C73   1.421318 A    
C122  H20   1.083375 S    
O9    C15   1.305763 A    
C22   C34   1.504351 S    
O2    Cu2   1.952103 S    
C51   C123  1.493272 S    
C116  O38   1.221211 D    
C103  H1    1.082894 S    
C18   C38   1.484429 S    
C20   O20   1.285023 A    
C89   C93   1.406884 A    
C6    C36   1.436360 A    
C21   C33   1.498763 S    
C5    C35   1.427653 A    
C96   C99   1.409817 A    
O12   Cu1   1.972802 S    
C73   C79   1.421340 A    
C71   C87   1.406144 A    
C110  H8    1.084718 S    
C50   C61   1.420311 A    
O3    Cu3   1.963023 S    
C67   C79   1.421297 A    
C5    C29   1.405793 A    
C119  H17   1.083214 S    
C53   C125  1.495030 S    
C22   O22   1.299981 A    
C24   O24   1.294896 A    
C74   C80   1.425312 A    
C103  O25   1.219783 D    
O2    C24   1.297809 A    
C105  O27   1.220151 D    
C13   C41   1.498308 S    
C36   C60   1.414310 A    
C118  O40   1.221221 D    
C18   O18   1.284672 A    
C5    C51   1.418575 A    
C54   C63   1.423384 A    
C26   C98   1.413040 A    
C71   C83   1.422548 A    
C88   C96   1.409527 A    
C81   C108  1.490506 S    
C63   C95   1.411671 A    
C119  O41   1.221356 D    
C62   C74   1.426788 A    
C69   C89   1.408730 A    
C41   C58   1.416066 A    
C23   O23   1.288142 A    
C108  H6    1.085201 S    
C1    C31   1.425369 A    
C6    C30   1.414965 A    
C126  O48   1.221316 D    
C121  H19   1.082923 S    
C86   C98   1.414433 A    
C9    C47   1.423310 A    
Cu3   Cu4   2.670949 S    
C123  O45   1.221597 D    
C3    C33   1.425829 A    
C104  H2    1.079917 S    
C4    C34   1.427638 A    
C46   C118  1.491951 S    
C125  O47   1.221341 D    
C87   C95   1.410603 A    
C10   C40   1.423750 A    
O3    C21   1.305098 A    
C90   C94   1.409639 A    
O9    Cu4   1.952677 S    
C55   Br1   1.941343 S    
C1    C25   1.409565 A    
