data_mof_unit_52390.cif
_audit_creation_date              2012-12-11T16:08:40-0500
_audit_creation_method            fapswitch 2.2
_symmetry_space_group_name_H-M    P1
_symmetry_Int_Tables_number       1
_space_group_crystal_system       triclinic
_cell_length_a                    12.957434
_cell_length_b                    13.272171
_cell_length_c                    27.799612
_cell_angle_alpha                 95.375854
_cell_angle_beta                  89.697314
_cell_angle_gamma                 119.258805
_cell_volume                      4147.9978423

loop_
_atom_site_label
_atom_site_type_symbol
_atom_type_description
_atom_site_fract_x
_atom_site_fract_y
_atom_site_fract_z
_atom_type_partial_charge
C1    C     C_R   0.629167 0.894811 0.428128 0.538195
C2    C     C_R   0.557006 0.287220 0.225245 0.035836
C3    C     C_R   0.554133 0.275519 0.275168 -0.097480
C4    C     C_R   0.657960 0.318105 0.304001 0.021106
C5    C     C_R   0.669932 0.344133 0.204289 0.055150
C6    C     C_1   0.686217 0.368392 0.154293 -0.061068
C7    C     C_1   0.649275 0.296859 0.354220 -0.066115
C8    C     C_1   0.701236 0.396401 0.113578 -0.034708
C9    C     C_R   0.277159 0.805040 0.341417 -0.139877
C10   C     C_R   0.263714 0.803005 0.292078 0.001289
C11   C     C_R   0.227249 0.789403 0.192336 0.013494
C12   C     C_R   0.601196 0.221934 0.440548 0.544513
C13   C     C_R   0.285507 0.735168 0.210803 -0.132896
C14   C     C_R   0.304786 0.743021 0.260486 -0.131396
C15   C     C_R   0.195033 0.770834 0.143225 -0.134215
C16   C     C_R   0.130110 0.819441 0.125697 -0.003509
C17   C     C_R   0.177138 0.919590 0.356574 -0.034829
C18   C     C_R   0.167182 0.922187 0.306167 0.006267
C19   C     C_R   0.209307 0.861972 0.274143 0.046188
C20   C     C_R   0.116676 0.983217 0.286738 -0.128754
C21   C     C_R   0.104193 0.980685 0.236858 -0.141777
C22   C     C_R   0.138005 0.914477 0.205456 0.001273
C23   C     C_R   0.273002 0.877384 0.424667 0.552558
C24   C     C_R   0.193276 0.856897 0.223954 0.059738
C25   C     C_R   0.109647 0.898011 0.156132 -0.140499
C26   C     C_R   0.235583 0.863329 0.373859 -0.004391
C27   C     C_R   0.755953 0.941570 0.359876 -0.124718
C28   C     C_R   0.767561 0.926076 0.311125 -0.001129
C29   C     C_R   0.781195 0.902519 0.211547 0.025044
C30   C     C_R   0.846801 0.013710 0.237670 0.012198
C31   C     C_R   0.844466 0.022113 0.287787 -0.123781
C32   C     C_R   0.792075 0.886181 0.162360 -0.136337
C33   C     C_R   0.727188 0.776538 0.136435 -0.004500
C34   C     C_R   0.626697 0.899431 0.565292 0.540463
C35   C     C_R   0.586877 0.747393 0.357386 -0.154511
C36   C     C_R   0.606173 0.724480 0.308724 0.002823
C37   C     C_R   0.693385 0.817698 0.285139 0.045732
C38   C     C_R   0.535698 0.614949 0.281828 -0.014172
C39   C     C_R   0.552618 0.601169 0.232373 -0.132383
C40   C     C_R   0.634320 0.695098 0.209014 -0.004187
C41   C     C_R   0.703683 0.804797 0.235308 0.046022
C42   C     C_R   0.647544 0.681199 0.159543 -0.142442
C43   C     C_R   0.659876 0.857049 0.382196 -0.014661
C44   C     C_R   0.726762 0.278515 0.653991 -0.142914
C45   C     C_R   0.600113 0.223123 0.579515 0.544821
C46   C     C_R   0.736310 0.285520 0.704457 0.002052
C47   C     C_R   0.760038 0.317844 0.806261 -0.008330
C48   C     C_R   0.847339 0.309169 0.778535 -0.142956
C49   C     C_R   0.836315 0.292897 0.728101 -0.018580
C50   C     C_R   0.776890 0.349753 0.856858 -0.031139
C51   C     C_R   0.687017 0.361470 0.882349 -0.014689
C52   C     C_R   0.532818 0.262597 0.658319 -0.140718
C53   C     C_R   0.537959 0.267727 0.708665 0.001454
C54   C     C_R   0.642644 0.282974 0.731888 0.029264
C55   C     C_R   0.440449 0.256050 0.736160 0.017775
C56   C     C_R   0.271976 0.879723 0.563566 0.548120
C57   C     C_R   0.455200 0.271690 0.786675 -0.104848
C58   C     C_R   0.561323 0.295202 0.809492 -0.012392
C59   C     C_R   0.654366 0.297601 0.782545 0.035918
C60   C     C_R   0.576963 0.323078 0.859111 -0.148217
C61   C     C_R   0.624766 0.264349 0.630956 -0.016962
C62   C     C_1   0.225172 0.863800 0.610810 -0.026795
C63   C     C_R   0.230496 0.784944 0.728911 0.034989
C64   C     C_R   0.214230 0.779800 0.779071 -0.087609
C65   C     C_R   0.101233 0.880624 0.777171 -0.119025
C66   C     C_R   0.116194 0.886597 0.727565 -0.125803
C67   C     C_1   0.633147 0.269442 0.394943 -0.025394
C68   C     C_R   0.180342 0.839449 0.703277 0.037636
C69   C     C_R   0.150843 0.827988 0.803006 0.016838
C70   C     C_1   0.128731 0.814876 0.853450 -0.072496
C71   C     C_1   0.199424 0.852206 0.652445 -0.075695
C72   C     C_1   0.102430 0.797215 0.894668 -0.024185
C73   C     C_1   0.641795 0.868326 0.611890 -0.033449
C74   C     C_R   0.645433 0.913669 0.738222 -0.128326
C75   C     C_R   0.648157 0.902156 0.787567 -0.123399
C76   C     C_R   0.675129 0.734785 0.769031 -0.086634
C77   C     C_R   0.673910 0.745770 0.718940 0.031085
C78   C     C_R   0.767660 0.373648 0.283234 -0.119794
C79   C     C_R   0.657468 0.836050 0.703787 0.027645
C80   C     C_R   0.661699 0.811990 0.803063 0.009490
C81   C     C_1   0.669868 0.801642 0.853984 -0.065939
C82   C     C_1   0.650467 0.850614 0.653129 -0.087249
C83   C     C_1   0.684769 0.790909 0.895655 -0.019446
C84   C     C_R   0.065314 0.773795 0.078948 0.539474
C85   C     C_R   0.716939 0.442255 0.067576 0.533640
C86   C     C_R   0.751268 0.762248 0.086025 0.560420
C87   C     C_R   0.056579 0.765947 0.941238 0.544845
C88   C     C_R   0.710255 0.431480 0.929533 0.543033
C89   C     C_R   0.773448 0.387049 0.233886 -0.132647
C90   C     C_R   0.716526 0.776218 0.942950 0.555357
Cr1   Cr    Cr6+3 0.416430 0.829200 0.492370 1.017994
Cr2   Cr    Cr6+3 0.674630 0.087020 0.504170 1.009289
Cr3   Cr    Cr6+3 0.408920 0.083740 0.503490 1.014997
Cr4   Cr    Cr6+3 0.914010 0.832750 0.013970 1.007931
Cr5   Cr    Cr6+3 0.922310 0.578600 0.003000 1.028003
Cr6   Cr    Cr6+3 0.656280 0.574630 0.003870 1.010736
H1    H     H_    0.848742 0.406022 0.305073 0.114988
H2    H     H_    0.064653 0.027525 0.222768 0.112002
H3    H     H_    0.086085 0.032670 0.309796 0.123230
H4    H     H_    0.854234 0.958673 0.144093 0.139862
H5    H     H_    0.814321 0.026125 0.379022 0.143856
H6    H     H_    0.896547 0.105994 0.308571 0.098054
H7    H     H_    0.597694 0.596360 0.139263 0.128541
H8    H     H_    0.499885 0.517113 0.211806 0.111521
H9    H     H_    0.859766 0.431450 0.218642 0.115242
H10   H     H_    0.513001 0.683313 0.375442 0.131452
H11   H     H_    0.796550 0.279948 0.632024 0.145673
H12   H     H_    0.925396 0.315482 0.795638 0.123718
H13   H     H_    0.505872 0.325664 0.878992 0.134036
H14   H     H_    0.385609 0.269196 0.809020 0.113813
H15   H     H_    0.454350 0.251499 0.639751 0.133320
H16   H     H_    0.249408 0.737876 0.800061 0.106924
H17   H     H_    0.050293 0.916417 0.795328 0.117381
H18   H     H_    0.078074 0.928549 0.708110 0.110961
H19   H     H_    0.633331 0.983269 0.726821 0.119957
H20   H     H_    0.639508 0.963408 0.813562 0.120158
H21   H     H_    0.687412 0.667136 0.782293 0.118882
H22   H     H_    0.469392 0.231548 0.291794 0.117966
H23   H     H_    0.213094 0.712343 0.119378 0.124675
H24   H     H_    0.324045 0.763323 0.354551 0.144381
H25   H     H_    0.313488 0.684491 0.186979 0.110085
H26   H     H_    0.349097 0.699748 0.274315 0.117796
H27   H     H_    0.060879 0.937299 0.142508 0.124289
O1    O     O_R   0.296680 0.802170 0.437540 -0.524408
O2    O     O_R   0.662610 0.183990 0.557860 -0.500281
O3    O     O_R   0.500730 0.201280 0.562180 -0.525068
O4    O     O_R   0.312500 0.978850 0.548170 -0.495323
O5    O     O_3   0.499990 0.999990 0.500010 -0.240828
O6    O     O_R   0.820790 0.857990 0.068830 -0.529614
O7    O     O_R   0.016700 0.827330 0.062850 -0.523176
O8    O     O_R   0.041970 0.673520 0.060040 -0.513341
O9    O     O_R   0.817980 0.483660 0.048840 -0.492172
O10   O     O_R   0.637200 0.461990 0.052510 -0.528248
O11   O     O_R   0.664790 0.681920 0.057970 -0.498657
O12   O     O_R   0.525380 0.838530 0.443500 -0.503357
O13   O     O_R   0.815840 0.852920 0.961840 -0.504537
O14   O     O_R   0.012100 0.822630 0.963670 -0.493734
O15   O     O_R   0.037010 0.668460 0.953040 -0.503596
O16   O     O_R   0.813390 0.478970 0.949660 -0.484003
O17   O     O_R   0.632250 0.456930 0.945520 -0.520933
O18   O     O_R   0.660200 0.677230 0.958780 -0.489651
O19   O     O_3   0.830870 0.661990 0.006950 -0.259792
O20   O     O_R   0.702130 0.995190 0.446810 -0.529506
O21   O     O_R   0.661770 0.181390 0.458760 -0.490713
O22   O     O_R   0.499820 0.198480 0.455280 -0.523616
O23   O     O_R   0.311660 0.976250 0.449080 -0.489507
O24   O     O_R   0.297580 0.804960 0.544440 -0.508565
O25   O     O_R   0.526220 0.841130 0.542590 -0.495185
O26   O     O_R   0.703030 0.997990 0.553710 -0.518999
C91   C     C_R   0.119938 0.966909 0.390984 0.026830
C92   C     C_R   0.003681 0.894705 0.404077 -0.100211
C93   C     C_R   0.950789 0.937580 0.437964 -0.109191
C94   C     C_R   0.013156 0.052883 0.458528 -0.106279
C95   C     C_R   0.128960 0.125158 0.445537 -0.129481
C96   C     C_R   0.182362 0.082211 0.411924 -0.077975
H28   H     H_    0.954612 0.805241 0.388344 0.111917
H29   H     H_    0.861432 0.881446 0.448260 0.117484
H30   H     H_    0.971905 0.086023 0.484631 0.123504
H31   H     H_    0.177539 0.214265 0.461633 0.101180
H32   H     H_    0.272658 0.137828 0.402597 0.122386
C97   C     C_3   0.914106 0.125487 0.213830 -0.287632
C98   C     C_3   0.828978 0.156262 0.189673 -0.422955
H33   H     H_    0.775324 0.089583 0.159630 0.159293
H34   H     H_    0.768450 0.163161 0.216579 0.172803
H35   H     H_    0.880057 0.241076 0.174760 0.136061
H36   H     H_    0.970212 0.199147 0.241125 0.129460
H37   H     H_    0.975949 0.120230 0.187315 0.121132
C99   C     C_R   0.441859 0.513799 0.303416 0.024482
C100  C     C_R   0.324766 0.460354 0.284264 -0.109395
C101  C     C_R   0.235662 0.364471 0.304156 -0.114610
C102  C     C_R   0.262755 0.320629 0.342930 -0.112088
C103  C     C_R   0.379394 0.372025 0.361735 -0.123140
C104  C     C_R   0.468972 0.468015 0.341904 -0.097401
H38   H     H_    0.302376 0.493384 0.254150 0.096456
H39   H     H_    0.145479 0.324502 0.289689 0.093955
H40   H     H_    0.192854 0.247075 0.358254 0.107891
H41   H     H_    0.400649 0.337932 0.391706 0.113419
H42   H     H_    0.559171 0.506607 0.356466 0.115054
C105  C     C_R   0.889342 0.375591 0.882017 0.048021
C106  C     C_R   0.889151 0.302270 0.915320 -0.079784
C107  C     C_R   0.995168 0.325599 0.938538 -0.113858
C108  C     C_R   0.101809 0.421812 0.928523 -0.103607
C109  C     C_R   0.102633 0.495122 0.895375 -0.092214
C110  C     C_R   0.996757 0.472653 0.872358 -0.068534
H43   H     H_    0.807104 0.227161 0.923126 0.100059
H44   H     H_    0.994710 0.268898 0.964197 0.106194
H45   H     H_    0.183788 0.439559 0.946455 0.104337
H46   H     H_    0.185171 0.569715 0.887690 0.103378
H47   H     H_    0.998298 0.530281 0.846874 0.105416
C111  C     C_R   0.930170 0.283058 0.700883 0.018919
C112  C     C_R   0.904284 0.178318 0.673452 -0.094296
C113  C     C_R   0.990073 0.171250 0.644894 -0.115309
C114  C     C_R   0.102444 0.268324 0.643855 -0.115331
C115  C     C_R   0.129578 0.372092 0.671857 -0.118288
C116  C     C_R   0.043812 0.379623 0.700386 -0.103282
H48   H     H_    0.816996 0.103198 0.673466 0.122752
H49   H     H_    0.969289 0.090711 0.623437 0.115899
H50   H     H_    0.168792 0.262846 0.621678 0.104509
H51   H     H_    0.216787 0.446830 0.671058 0.107610
H52   H     H_    0.064781 0.461047 0.721160 0.108766
C117  C     C_3   0.322401 0.226341 0.711418 -0.276714
C118  C     C_3   0.220360 0.203152 0.744833 -0.443939
H53   H     H_    0.206768 0.135036 0.768406 0.152862
H54   H     H_    0.237946 0.284277 0.767195 0.149299
H55   H     H_    0.137035 0.171234 0.722919 0.158966
H56   H     H_    0.336059 0.298542 0.690244 0.135580
H57   H     H_    0.292850 0.146441 0.685983 0.150349
C119  C     C_3   0.300228 0.734185 0.701904 -0.274315
C120  C     C_3   0.347601 0.673633 0.732114 -0.453501
H58   H     H_    0.409168 0.735337 0.761774 0.168556
H59   H     H_    0.273745 0.598810 0.747511 0.135036
H60   H     H_    0.396856 0.640742 0.708797 0.148705
H61   H     H_    0.242358 0.669901 0.671853 0.150746
H62   H     H_    0.376860 0.805212 0.685740 0.160998
C121  C     C_3   0.435233 0.235822 0.199525 -0.282637
C122  C     C_3   0.428013 0.240299 0.145106 -0.430030
H63   H     H_    0.467433 0.331563 0.136569 0.160407
H64   H     H_    0.470935 0.194670 0.125680 0.164657
H65   H     H_    0.333423 0.194861 0.132321 0.133026
H66   H     H_    0.383581 0.142872 0.206139 0.154949
H67   H     H_    0.388478 0.280078 0.216923 0.145378
C123  C     C_3   0.689801 0.664197 0.681159 -0.280261
C124  C     C_3   0.715744 0.574701 0.700888 -0.444978
H68   H     H_    0.798442 0.618553 0.724203 0.157479
H69   H     H_    0.640494 0.515351 0.721624 0.159084
H70   H     H_    0.727871 0.522019 0.670283 0.153756
H71   H     H_    0.608228 0.616895 0.657199 0.145185
H72   H     H_    0.764489 0.717154 0.658583 0.150374

loop_
_geom_bond_atom_site_label_1
_geom_bond_atom_site_label_2
_ccdc_geom_bond_type
C103  H41   S    
C66   C68   A    
C102  C103  A    
C111  C112  A    
C14   H26   S    
C117  C118  S    
C35   C36   A    
C122  H65   S    
C109  C110  A    
Cr2   O2    S    
Cr1   O24   S    
C97   C98   S    
C124  H70   S    
C39   H8    S    
C107  C108  A    
C52   C53   A    
C38   C99   S    
C46   C49   A    
C119  H61   S    
C118  H54   S    
C33   C42   A    
C28   C37   A    
C36   C37   A    
C122  H64   S    
C8    C85   S    
C29   C32   A    
C52   C61   A    
C85   O9    A    
C5    C6    S    
C56   O4    A    
C109  H46   S    
C101  C102  A    
C58   C60   A    
C114  H50   S    
C55   C117  S    
C121  H67   S    
C11   C24   A    
C16   C84   S    
C120  H60   S    
C13   H25   S    
C22   C25   A    
C7    C67   T    
C113  H49   S    
C18   C19   A    
C100  C101  A    
C23   C26   S    
C45   C61   S    
C94   H30   S    
Cr2   O20   S    
C108  C109  A    
C88   O17   A    
C123  H71   S    
C60   H13   S    
Cr6   O18   S    
Cr3   O3    S    
C34   O25   A    
C1    C43   S    
C124  H68   S    
C45   O2    A    
C119  C120  S    
C118  H55   S    
Cr4   O13   S    
C92   C93   A    
Cr3   O22   S    
C35   C43   A    
C75   C80   A    
C10   C19   A    
C18   C20   A    
C97   H36   S    
C54   C59   A    
C40   C42   A    
C115  C116  A    
C2    C121  S    
C13   C14   A    
C42   H7    S    
Cr5   O8    S    
C69   C70   S    
C11   C15   A    
C87   O14   A    
C4    C7    S    
Cr2   O5    S    
Cr1   O25   S    
C81   C83   T    
C34   O26   A    
C86   O11   A    
C9    C26   A    
C50   C51   A    
C47   C50   A    
C98   H34   S    
C101  H39   S    
C53   C55   A    
C78   C89   A    
C99   C104  A    
C12   C67   S    
Cr4   O6    S    
Cr1   O5    S    
C112  C113  A    
Cr4   O19   S    
C31   H6    S    
C99   C100  A    
C38   C39   A    
C76   C77   A    
C120  H58   S    
C118  H53   S    
C39   C40   A    
Cr6   O11   S    
C49   C111  S    
C44   C46   A    
C52   H15   S    
C58   C59   A    
C53   C54   A    
Cr6   O10   S    
C47   C59   A    
C27   H5    S    
C15   C16   A    
C12   O21   A    
C50   C105  S    
C12   O22   A    
C51   C88   S    
C33   C86   S    
Cr3   O4    S    
C88   O16   A    
C4    C78   A    
C29   C30   A    
C1    O20   A    
C3    H22   S    
C27   C43   A    
C98   H35   S    
C90   O13   A    
C47   C48   A    
C123  H72   S    
C45   O3    A    
C100  H38   S    
C46   C54   A    
C78   H1    S    
C17   C18   A    
C117  H57   S    
C77   C79   A    
Cr3   O23   S    
C86   O6    A    
Cr4   O7    S    
C92   H28   S    
C122  H63   S    
C25   H27   S    
C95   C96   A    
C97   H37   S    
C105  C106  A    
C111  C116  A    
Cr1   O1    S    
C40   C41   A    
C65   C66   A    
C91   C96   A    
C55   C57   A    
C10   C14   A    
C23   O23   A    
C22   C24   A    
C2    C5    A    
C76   C80   A    
C17   C26   A    
C87   O15   A    
C3    C4    A    
C73   C82   T    
Cr2   O26   S    
C72   C87   S    
C103  C104  A    
C116  H52   S    
C9    C10   A    
C44   H11   S    
C16   C25   A    
Cr4   O14   S    
C83   C90   S    
C93   H29   S    
C48   C49   A    
Cr5   O15   S    
C119  H62   S    
C66   H18   S    
C29   C41   A    
C96   H32   S    
C110  H47   S    
C65   H17   S    
C28   C31   A    
C112  H48   S    
C80   C81   S    
Cr5   O9    S    
Cr6   O17   S    
C79   C82   S    
C6    C8    T    
C107  H44   S    
C124  H69   S    
C57   H14   S    
C63   C119  S    
C51   C60   A    
C115  H51   S    
C44   C61   A    
C98   H33   S    
C64   C69   A    
C102  H40   S    
C63   C68   A    
C84   O8    A    
Cr5   O16   S    
C76   H21   S    
C74   C79   A    
C32   C33   A    
C56   O24   A    
C36   C38   A    
C2    C3    A    
Cr3   O5    S    
C95   H31   S    
C35   H10   S    
C1    O12   A    
C121  H66   S    
C113  C114  A    
C21   H2    S    
C11   C13   A    
C30   C31   A    
C57   C58   A    
C48   H12   S    
C20   H3    S    
C104  H42   S    
C68   C71   S    
C65   C69   A    
C74   H19   S    
C84   O7    A    
C120  H59   S    
C15   H23   S    
C62   C71   T    
C19   C24   A    
C117  H56   S    
C56   C62   S    
C108  H45   S    
C121  C122  S    
C37   C41   A    
C123  C124  S    
Cr2   O21   S    
C90   O18   A    
C64   H16   S    
C106  H43   S    
C34   C73   S    
Cr6   O19   S    
C63   C64   A    
C105  C110  A    
C32   H4    S    
C77   C123  S    
Cr1   O12   S    
C93   C94   A    
Cr5   O19   S    
C20   C21   A    
C114  C115  A    
C89   H9    S    
C27   C28   A    
C9    H24   S    
C91   C92   A    
C70   C72   T    
C75   H20   S    
C30   C97   S    
C94   C95   A    
C21   C22   A    
C23   O1    A    
C5    C89   A    
C106  C107  A    
C74   C75   A    
C85   O10   A    
C17   C91   S    
