data_mof_unit_35135.cif
_audit_creation_date              2013-03-05T16:31:47-0500
_audit_creation_method            fapswitch 2.2
_symmetry_space_group_name_H-M    P1
_symmetry_Int_Tables_number       1
_space_group_crystal_system       triclinic
_cell_length_a                    11.703073
_cell_length_b                    10.840991
_cell_length_c                    9.557679
_cell_angle_alpha                 90.556487
_cell_angle_beta                  89.977554
_cell_angle_gamma                 90.269881
_cell_volume                      1212.5398203

loop_
_atom_site_label
_atom_site_type_symbol
_atom_site_description
_atom_site_fract_x
_atom_site_fract_y
_atom_site_fract_z
_atom_type_partial_charge
O1    O     O_R   0.500000 0.319640 0.618810 -0.588857
O2    O     O_R   0.500010 0.319680 0.381230 -0.541291
C1    C     C_R   0.497063 0.262828 0.499129 0.872391
O3    O     O_R   0.337190 0.499990 0.618790 -0.586640
O4    O     O_R   0.337200 0.500030 0.381210 -0.575493
C2    C     C_R   0.284006 0.499942 0.500006 0.825607
Cu1   Cu    Cu3+1 0.499990 0.499980 0.640670 1.023931
Cu2   Cu    Cu3+1 0.500010 0.500020 0.359330 1.039922
O5    O     O_R   0.499990 0.680320 0.618770 -0.546841
O6    O     O_R   0.500000 0.680360 0.381190 -0.557095
O7    O     O_R   0.662800 0.499970 0.618790 -0.577415
O8    O     O_R   0.662810 0.500010 0.381210 -0.579783
C3    C     C_R   0.497191 0.737089 0.500509 0.929678
C4    C     C_R   0.715965 0.499960 0.499982 0.880167
C5    C     C_1   0.162313 0.500008 0.499999 -0.098497
C6    C     C_1   0.059834 0.500073 0.499962 0.077615
C7    C     C_1   0.940061 0.500103 0.499938 0.100408
C8    C     C_1   0.837605 0.500051 0.499945 -0.052426
C9    C     C_R   0.546594 0.063930 0.598730 -0.118541
C10   C     C_R   0.490403 0.130140 0.497103 -0.194599
C11   C     C_R   0.425016 0.063113 0.396622 0.268274
C12   C     C_R   0.425045 0.932136 0.397999 0.365233
C13   C     C_R   0.489289 0.869502 0.500904 -0.160726
C14   C     C_R   0.546265 0.939639 0.600959 -0.061499
C15   C     C_3   0.632676 0.934854 0.717395 0.502539
C16   C     C_3   0.632907 0.078045 0.712900 0.086626
H1    H     H_    0.597803 0.124288 0.808008 0.143096
C17   C     C_R   0.578518 0.568661 0.074429 0.192761
N1    N     N_R   0.500710 0.500930 0.147930 -0.230425
C18   C     C_R   0.415652 0.443036 0.073685 0.001050
H2    H     H_    0.348218 0.395311 0.128639 0.197119
C19   C     C_R   0.416058 0.442270 0.925010 -0.036465
H3    H     H_    0.349675 0.392717 0.869014 0.162645
N2    N     N_R   0.500710 0.500890 0.852020 -0.196190
C20   C     C_R   0.578554 0.568387 0.926998 0.270215
C21   C     C_3   0.705238 0.555410 0.919834 -0.489125
C22   C     C_3   0.705745 0.554364 0.078714 0.089032
H4    H     H_    0.732250 0.465757 0.873425 0.219197
H5    H     H_    0.746499 0.637967 0.873127 0.260112
H6    H     H_    0.734602 0.465512 0.123605 0.142592
N3    N     N_R   0.355867 0.126036 0.296947 0.119238
O9    O     O_R   0.402222 0.167209 0.182780 -0.378359
O10   O     O_R   0.245133 0.120198 0.306623 -0.290884
N4    N     N_R   0.765265 0.661551 0.138547 0.182766
O11   O     O_R   0.711569 0.741561 0.216458 -0.283205
O12   O     O_R   0.875645 0.670254 0.125756 -0.281638
O13   O     O_3   0.354709 0.865518 0.308134 -0.570544
C23   C     C_3   0.405447 0.858508 0.174285 -0.019547
H7    H     H_    0.371483 0.775429 0.119501 0.178674
H8    H     H_    0.500161 0.849114 0.177809 0.190636
H9    H     H_    0.381702 0.939616 0.111101 0.222433
N5    N     N_R   0.586970 0.887310 0.849147 0.071179
O14   O     O_R   0.646172 0.900041 0.963572 -0.307997
O15   O     O_R   0.484771 0.839794 0.855533 -0.402357
N6    N     N_R   0.741336 0.876696 0.678415 0.141483
O16   O     O_R   0.750498 0.811011 0.564290 -0.341770
O17   O     O_R   0.829206 0.887179 0.761101 -0.242697
N7    N     N_R   0.739732 0.133588 0.663249 0.161462
O18   O     O_R   0.779984 0.107872 0.539341 -0.275091
O19   O     O_R   0.791005 0.216588 0.740060 -0.332084

loop_
_geom_bond_atom_site_label_1
_geom_bond_atom_site_label_2
_geom_bond_distance
_ccdc_geom_bond_type
C7    C8    1.199046 T    
C9    C10   1.381878 A    
O4    Cu2   1.916738 S    
Cu1   O7    1.916737 S    
N6    O16   1.301492 A    
O6    C3    1.290884 A    
N1    C18   1.369082 A    
N3    O10   1.300475 A    
N3    O9    1.300343 A    
C4    C8    1.423556 S    
O13   C23   1.411694 S    
Cu2   O8    1.916786 S    
C19   H3    1.081373 S    
N5    O15   1.301670 A    
C22   N4    1.463663 S    
C21   H4    1.111635 S    
C9    C14   1.347808 A    
C15   C16   1.553339 S    
C15   N5    1.465251 S    
C1    C10   1.440156 S    
C11   C12   1.420117 A    
C10   C11   1.420440 A    
C18   C19   1.420931 A    
C16   N7    1.465851 S    
C16   H1    1.113193 S    
C18   H2    1.080502 S    
C23   H7    1.109490 S    
C17   C22   1.498331 S    
N5    O14   1.300721 A    
O3    Cu1   1.916785 S    
C11   N3    1.430461 S    
Cu2   N1    2.020627 S    
C23   H8    1.114142 S    
C17   N1    1.365674 A    
O7    C4    1.294600 A    
O8    C4    1.294678 A    
O2    C1    1.289994 A    
C22   H6    1.112291 S    
N6    O17   1.301060 A    
O4    C2    1.294676 A    
Cu1   N2    2.019965 S    
C12   O13   1.385553 S    
N7    O18   1.302507 A    
O3    C2    1.294929 A    
C13   C14   1.385223 A    
N7    O19   1.300419 A    
C5    C6    1.199318 T    
Cu1   Cu2   2.688961 S    
C14   C15   1.505427 S    
C3    C13   1.438865 S    
Cu2   O6    1.964178 S    
N2    C20   1.364902 A    
Cu1   O5    1.968259 S    
C9    C16   1.493543 S    
O5    C3    1.292723 A    
C12   C13   1.418465 A    
C21   C22   1.518682 S    
C2    C5    1.424189 S    
O1    Cu1   1.964178 S    
C21   H5    1.112209 S    
C23   H9    1.108069 S    
O2    Cu2   1.968257 S    
N4    O11   1.301524 A    
C15   N6    1.468349 S    
C17   C20   1.409070 A    
N4    O12   1.300587 A    
C6    C7    1.401718 S    
O1    C1    1.294256 A    
C20   C21   1.491397 S    
C19   N2    1.368992 A    
