data_mof_unit_55055.cif
_audit_creation_date              2012-12-11T14:07:48-0500
_audit_creation_method            fapswitch 2.2
_symmetry_space_group_name_H-M    P1
_symmetry_Int_Tables_number       1
_space_group_crystal_system       triclinic
_cell_length_a                    19.83259
_cell_length_b                    16.960145
_cell_length_c                    15.408339
_cell_angle_alpha                 89.999978
_cell_angle_beta                  53.046265
_cell_angle_gamma                 89.9999
_cell_volume                      4141.68888458

loop_
_atom_site_label
_atom_site_type_symbol
_atom_type_description
_atom_site_fract_x
_atom_site_fract_y
_atom_site_fract_z
_atom_type_partial_charge
C1    C     C_R   0.378052 0.198680 0.993761 -0.122087
C2    C     C_R   0.643917 0.812389 0.080158 0.112714
C3    C     C_R   0.143916 0.687612 0.080158 0.112719
C4    C     C_R   0.203930 0.347172 0.994859 0.105952
C5    C     C_R   0.691206 0.861705 0.678244 0.005662
C6    C     C_R   0.608421 0.184262 0.696593 0.004990
C7    C     C_R   0.108421 0.315738 0.696593 0.004990
C8    C     C_R   0.191204 0.638296 0.678244 0.005657
C9    C     C_3   0.195770 0.126615 0.524180 -0.401611
C10   C     C_3   0.354892 0.793728 0.486715 -0.405532
C11   C     C_3   0.854892 0.706270 0.486716 -0.405533
C12   C     C_R   0.339929 0.825076 0.051097 -0.111508
C13   C     C_3   0.695771 0.373384 0.524180 -0.401610
C14   C     C_3   0.144935 0.176185 0.628632 -0.395571
C15   C     C_3   0.300928 0.744282 0.590002 -0.398300
C16   C     C_3   0.800928 0.755718 0.590003 -0.398298
C17   C     C_3   0.644936 0.323814 0.628632 -0.395573
C18   C     C_3   0.302490 0.238161 0.435745 -0.397342
C19   C     C_3   0.366869 0.677776 0.376191 -0.408883
C20   C     C_3   0.866870 0.822223 0.376192 -0.408877
C21   C     C_3   0.802491 0.261838 0.435745 -0.397343
C22   C     C_3   0.748492 0.723538 0.448272 -0.430007
C23   C     C_R   0.839928 0.674923 0.051101 -0.111513
C24   C     C_3   0.683264 0.269528 0.418659 -0.437061
C25   C     C_3   0.183264 0.230472 0.418659 -0.437061
C26   C     C_3   0.248492 0.776463 0.448271 -0.430004
C27   C     C_3   0.247401 0.181686 0.423177 0.353542
C28   C     C_3   0.342127 0.765987 0.401247 0.355683
C29   C     C_3   0.842126 0.734013 0.401248 0.355678
C30   C     C_3   0.747402 0.318313 0.423177 0.353542
C31   C     C_3   0.747500 0.815671 0.578461 0.353159
C32   C     C_3   0.653579 0.234796 0.599557 0.356537
C33   C     C_3   0.153578 0.265204 0.599557 0.356536
C34   C     C_R   0.878052 0.301320 0.993761 -0.122087
C35   C     C_3   0.247500 0.684329 0.578461 0.353161
C36   C     C_3   0.810829 0.870839 0.481415 -0.478279
C37   C     C_3   0.747497 0.211123 0.536563 -0.478730
C38   C     C_3   0.247496 0.288876 0.536563 -0.478729
C39   C     C_3   0.310829 0.629161 0.481414 -0.478276
C40   C     C_R   0.397418 0.800732 0.209837 -0.138376
C41   C     C_R   0.349117 0.170916 0.219171 -0.138370
C42   C     C_R   0.849117 0.329084 0.219171 -0.138370
C43   C     C_R   0.897417 0.699268 0.209838 -0.138376
C44   C     C_3   0.691765 0.772199 0.551924 0.166204
C45   C     C_R   0.630923 0.892739 0.107340 -0.226514
C46   C     C_3   0.625943 0.220654 0.524324 0.173471
C47   C     C_3   0.125942 0.279346 0.524324 0.173471
C48   C     C_3   0.191765 0.727802 0.551923 0.166201
C49   C     C_2   0.187202 0.743046 0.104393 -0.200685
C50   C     C_2   0.275761 0.309976 0.978695 -0.192024
C51   C     C_2   0.775759 0.190026 0.978699 -0.192026
C52   C     C_2   0.687206 0.756958 0.104393 -0.200675
C53   C     C_2   0.817411 0.247209 0.905040 -0.211839
C54   C     C_2   0.709849 0.684681 0.059481 -0.211337
C55   C     C_2   0.209861 0.815312 0.059451 -0.211331
C56   C     C_R   0.665942 0.084910 0.056724 -0.221380
C57   C     C_2   0.317414 0.252792 0.905037 -0.211840
C58   C     C_R   0.328858 0.913755 0.954490 -0.157199
C59   C     C_R   0.368996 0.113573 0.893517 -0.159575
C60   C     C_R   0.868995 0.386427 0.893518 -0.159580
C61   C     C_R   0.828855 0.586244 0.954496 -0.157193
C62   C     C_R   0.357880 0.078082 0.314817 -0.136945
C63   C     C_R   0.408193 0.892674 0.303096 -0.148778
C64   C     C_R   0.908192 0.607326 0.303097 -0.148780
C65   C     C_R   0.857881 0.421918 0.314817 -0.136945
C66   C     C_R   0.352713 0.190429 0.929528 0.151469
C67   C     C_R   0.165943 0.415091 0.056722 -0.221381
C68   C     C_R   0.287087 0.852395 0.028357 0.141074
C69   C     C_R   0.787084 0.647603 0.028365 0.141077
C70   C     C_R   0.852712 0.309571 0.929529 0.151471
C71   C     C_R   0.389787 0.814873 0.303525 0.019701
C72   C     C_R   0.306909 0.137556 0.322002 0.011128
C73   C     C_R   0.806910 0.362443 0.322002 0.011128
C74   C     C_R   0.889786 0.685126 0.303526 0.019711
C75   C     C_R   0.653331 0.185367 0.969031 0.339825
C76   C     C_R   0.616059 0.797449 0.018158 0.338650
C77   C     C_R   0.116058 0.702551 0.018158 0.338625
C78   C     C_R   0.130923 0.607262 0.107341 -0.226503
C79   C     C_R   0.153332 0.314633 0.969029 0.339826
C80   C     C_R   0.651384 0.830565 0.781559 -0.129098
C81   C     C_R   0.599735 0.199193 0.790770 -0.131795
C82   C     C_R   0.099735 0.300806 0.790770 -0.131795
C83   C     C_R   0.151383 0.669435 0.781558 -0.129084
C84   C     C_R   0.592785 0.105636 0.695827 -0.154546
C85   C     C_R   0.641317 0.921941 0.684639 -0.144540
C86   C     C_R   0.141316 0.578059 0.684638 -0.144543
C87   C     C_R   0.092785 0.394364 0.695827 -0.154546
C88   C     C_3   0.619988 0.720260 0.644144 -1.032864
C89   C     C_R   0.703929 0.152829 0.994862 0.105952
C90   C     C_3   0.531851 0.237844 0.580485 -1.056527
C91   C     C_3   0.031850 0.262157 0.580485 -1.056528
C92   C     C_3   0.119988 0.779741 0.644143 -1.032864
C93   C     C_3   0.646909 0.270515 0.948328 -1.093145
C94   C     C_3   0.581444 0.721549 0.008945 -1.113461
C95   C     C_3   0.081429 0.778449 0.008962 -1.113430
C96   C     C_3   0.146912 0.229486 0.948324 -1.093144
H1    H     H_    0.388571 0.253462 0.019818 0.080787
H2    H     H_    0.577723 0.342443 0.681007 0.165527
H3    H     H_    0.049831 0.813113 0.085225 0.257366
H4    H     H_    0.132037 0.813241 0.938090 0.240325
H5    H     H_    0.081294 0.215610 0.979024 0.248768
H6    H     H_    0.190781 0.216323 0.860236 0.241601
H7    H     H_    0.161633 0.190811 0.993035 0.267565
H8    H     H_    0.077721 0.157557 0.681007 0.165526
H9    H     H_    0.261007 0.785259 0.659076 0.150695
H10   H     H_    0.170451 0.164353 0.674875 0.149553
H11   H     H_    0.342185 0.712498 0.604922 0.157968
H12   H     H_    0.842186 0.787500 0.604922 0.157968
H13   H     H_    0.670452 0.335646 0.674875 0.149553
H14   H     H_    0.347211 0.203783 0.442130 0.166777
H15   H     H_    0.434480 0.670109 0.341466 0.170459
H16   H     H_    0.934480 0.829889 0.341467 0.170460
H17   H     H_    0.330100 0.776156 0.102061 0.085652
H18   H     H_    0.847212 0.296215 0.442130 0.166778
H19   H     H_    0.851045 0.902577 0.498112 0.177750
H20   H     H_    0.768731 0.218158 0.588669 0.179347
H21   H     H_    0.268730 0.281840 0.588669 0.179347
H22   H     H_    0.351043 0.597422 0.498111 0.177750
H23   H     H_    0.737993 0.742823 0.388092 0.130907
H24   H     H_    0.716517 0.227884 0.349040 0.123615
H25   H     H_    0.216516 0.272116 0.349040 0.123615
H26   H     H_    0.237994 0.757178 0.388090 0.130905
H27   H     H_    0.731814 0.659685 0.463829 0.177639
H28   H     H_    0.830098 0.723839 0.102069 0.085652
H29   H     H_    0.645815 0.309857 0.405602 0.175408
H30   H     H_    0.145814 0.190144 0.405602 0.175408
H31   H     H_    0.231814 0.840317 0.463828 0.177638
H32   H     H_    0.660523 0.817768 0.535042 0.108758
H33   H     H_    0.636339 0.157599 0.499588 0.098046
H34   H     H_    0.136339 0.342401 0.499588 0.098046
H35   H     H_    0.160523 0.682234 0.535041 0.108758
H36   H     H_    0.340938 0.277268 0.363447 0.159677
H37   H     H_    0.358441 0.655231 0.315535 0.149157
H38   H     H_    0.858441 0.844769 0.315536 0.149159
H39   H     H_    0.888571 0.246539 0.019819 0.080787
H40   H     H_    0.840939 0.222731 0.363447 0.159677
H41   H     H_    0.392809 0.744321 0.181267 0.090335
H42   H     H_    0.330948 0.222274 0.196581 0.091080
H43   H     H_    0.830948 0.277726 0.196581 0.091079
H44   H     H_    0.892806 0.755679 0.181270 0.090332
H45   H     H_    0.777209 0.916247 0.468651 0.148435
H46   H     H_    0.756523 0.147939 0.512022 0.158542
H47   H     H_    0.256522 0.352060 0.512023 0.158542
H48   H     H_    0.277208 0.583754 0.468650 0.148435
H49   H     H_    0.215030 0.717768 0.140780 0.123997
H50   H     H_    0.152404 0.089074 0.518778 0.160033
H51   H     H_    0.283935 0.321109 0.041200 0.123530
H52   H     H_    0.783932 0.178893 0.041205 0.123530
H53   H     H_    0.715056 0.782247 0.140746 0.123996
H54   H     H_    0.811376 0.256262 0.840391 0.153715
H55   H     H_    0.682468 0.656495 0.025434 0.159793
H56   H     H_    0.182508 0.843483 0.025358 0.159792
H57   H     H_    0.311379 0.243739 0.840388 0.153716
H58   H     H_    0.306855 0.948716 0.917345 0.100558
H59   H     H_    0.366040 0.088736 0.831210 0.093909
H60   H     H_    0.866039 0.411264 0.831211 0.093910
H61   H     H_    0.335069 0.856209 0.510002 0.148898
H62   H     H_    0.806849 0.551280 0.917356 0.100560
H63   H     H_    0.348774 0.042600 0.379081 0.088634
H64   H     H_    0.416613 0.922817 0.357695 0.085354
H65   H     H_    0.916613 0.577182 0.357696 0.085353
H66   H     H_    0.848774 0.457399 0.379081 0.088634
H67   H     H_    0.671250 0.781717 0.805578 0.119588
H68   H     H_    0.597158 0.256588 0.822162 0.107894
H69   H     H_    0.097157 0.243412 0.822162 0.107894
H70   H     H_    0.171249 0.718284 0.805578 0.119574
H71   H     H_    0.586750 0.075245 0.639244 0.085982
H72   H     H_    0.835068 0.643790 0.510003 0.148899
H73   H     H_    0.650186 0.955200 0.618821 0.084161
H74   H     H_    0.150186 0.544801 0.618821 0.084163
H75   H     H_    0.086749 0.424756 0.639244 0.085982
H76   H     H_    0.636683 0.920233 0.165924 0.108896
H77   H     H_    0.686251 0.050288 0.096051 0.118779
H78   H     H_    0.186252 0.449713 0.096048 0.118779
H79   H     H_    0.136682 0.579769 0.165925 0.108892
H80   H     H_    0.236976 0.086593 0.530242 0.146681
H81   H     H_    0.422592 0.789180 0.452899 0.157382
H82   H     H_    0.922591 0.710818 0.452899 0.157381
H83   H     H_    0.652405 0.410926 0.518779 0.160033
H84   H     H_    0.736977 0.413406 0.530242 0.146681
H85   H     H_    0.587704 0.688777 0.615294 0.250751
H86   H     H_    0.644430 0.675647 0.671458 0.257948
H87   H     H_    0.571112 0.756651 0.714242 0.263983
H88   H     H_    0.491378 0.204026 0.657298 0.254655
H89   H     H_    0.517617 0.301585 0.598488 0.266237
H90   H     H_    0.515000 0.219791 0.526428 0.252659
H91   H     H_    0.015000 0.280210 0.526428 0.252659
H92   H     H_    0.017616 0.198416 0.598488 0.266237
H93   H     H_    0.991377 0.295975 0.657298 0.254655
H94   H     H_    0.761007 0.714741 0.659077 0.150697
H95   H     H_    0.071112 0.743351 0.714241 0.263984
H96   H     H_    0.144430 0.824354 0.671457 0.257947
H97   H     H_    0.087704 0.811225 0.615293 0.250751
H98   H     H_    0.581292 0.284390 0.979027 0.248769
H99   H     H_    0.661630 0.309189 0.993040 0.267565
H100  H     H_    0.690779 0.283678 0.860240 0.241601
H101  H     H_    0.533413 0.733925 0.995481 0.260298
H102  H     H_    0.632063 0.686755 0.938087 0.240340
H103  H     H_    0.549827 0.686890 0.085214 0.257358
H104  H     H_    0.033382 0.766070 0.995528 0.260296
N1    N     N_R   0.408680 0.130160 0.995800 -0.040391
N2    N     N_R   0.403730 0.078230 0.935950 -0.036770
N3    N     N_R   0.903730 0.421770 0.935950 -0.036771
N4    N     N_R   0.903730 0.578230 0.935950 -0.042648
N5    N     N_R   0.426630 0.075970 0.212960 -0.036440
N6    N     N_R   0.426630 0.924030 0.212960 -0.030031
N7    N     N_R   0.926630 0.575970 0.212960 -0.030030
N8    N     N_R   0.926630 0.424030 0.212960 -0.036439
N9    N     N_R   0.591320 0.134600 0.004200 -0.064513
N10   N     N_R   0.591320 0.865400 0.004200 -0.059125
N11   N     N_R   0.091320 0.634600 0.004200 -0.059123
N12   N     N_R   0.408680 0.869840 0.995800 -0.047706
N13   N     N_R   0.091320 0.365400 0.004200 -0.064513
N14   N     N_R   0.578320 0.867660 0.846880 -0.041699
N15   N     N_R   0.578320 0.132340 0.846880 -0.034151
N16   N     N_R   0.078320 0.367660 0.846880 -0.034151
N17   N     N_R   0.078320 0.632340 0.846880 -0.041696
N18   N     N_R   0.573370 0.074390 0.787040 -0.030121
N19   N     N_R   0.573370 0.925610 0.787040 -0.036942
N20   N     N_R   0.073370 0.574390 0.787040 -0.036943
N21   N     N_R   0.073370 0.425610 0.787040 -0.030121
N22   N     N_R   0.596270 0.927870 0.064040 -0.045641
N23   N     N_R   0.908680 0.630160 0.995800 -0.047707
N24   N     N_R   0.596270 0.072130 0.064040 -0.052310
N25   N     N_R   0.096270 0.427870 0.064040 -0.052310
N26   N     N_R   0.096270 0.572130 0.064040 -0.045641
N27   N     N_R   0.908680 0.369840 0.995800 -0.040391
N28   N     N_R   0.421680 0.867580 0.153120 -0.032796
N29   N     N_R   0.421680 0.132420 0.153120 -0.039199
N30   N     N_R   0.921680 0.367580 0.153120 -0.039199
N31   N     N_R   0.921680 0.632420 0.153120 -0.032797
N32   N     N_R   0.403730 0.921770 0.935950 -0.042647
Ni1   Ni    Ni4+2 0.500000 0.131190 0.000000 0.204796
Ni2   Ni    Ni4+2 0.500000 0.868810 0.000000 0.204099
Ni3   Ni    Ni4+2 0.000000 0.631190 0.000000 0.204099
Ni4   Ni    Ni4+2 0.000000 0.368810 0.000000 0.204796
Ni5   Ni    Ni4+2 0.488650 0.000000 0.862740 0.205561
Ni6   Ni    Ni4+2 0.988650 0.500000 0.862740 0.205561
Ni7   Ni    Ni4+2 0.511350 1.000000 0.137260 0.204096
Ni8   Ni    Ni4+2 0.011350 0.500000 0.137260 0.204096

loop_
_geom_bond_atom_site_label_1
_geom_bond_atom_site_label_2
_ccdc_geom_bond_type
C50   H51   S    
C78   N26   A    
C6    C32   S    
C91   H92   S    
N11   N26   A    
N10   N22   A    
C40   C71   A    
C96   H6    S    
C8    C83   A    
C38   H47   S    
N22   Ni7   S    
C20   C36   S    
C18   H36   S    
C93   H98   S    
N15   Ni1   S    
C20   H38   S    
C57   C66   S    
C36   H45   S    
C1    N1    A    
N17   Ni3   S    
C46   H33   S    
N3    N27   A    
C55   C68   S    
C3    C49   S    
C22   H27   S    
C65   N8    A    
N14   Ni2   S    
N17   N20   A    
N27   Ni4   S    
C12   C68   A    
C9    C27   S    
C45   N22   A    
C87   N21   A    
C22   C29   S    
C12   H17   S    
N14   N19   A    
C31   C36   S    
C59   C66   A    
C83   N17   A    
C95   H3    S    
C78   H79   S    
C67   N25   A    
C67   H78   S    
C76   N10   A    
C9    H50   S    
C65   C73   A    
C9    H80   S    
C94   H103  S    
N1    N2    A    
C15   H11   S    
N5    Ni7   S    
C23   C69   A    
N16   N21   A    
N3    Ni6   S    
C91   H91   S    
C58   H58   S    
C76   C94   S    
C20   H16   S    
C38   H21   S    
N5    N29   A    
C7    C87   A    
C95   H104  S    
C63   N6    A    
C65   H66   S    
N7    N31   A    
C48   H35   S    
N30   Ni4   S    
N6    Ni7   S    
N13   Ni4   S    
C17   H2    S    
C34   C70   A    
C62   N5    A    
N28   Ni2   S    
C92   H95   S    
C26   C48   S    
C5    C85   A    
C43   C74   A    
C46   C90   S    
C6    C81   A    
C96   H5    S    
C7    C33   S    
N20   Ni6   S    
C93   H99   S    
C47   C91   S    
C63   H64   S    
N2    Ni5   S    
C35   C48   S    
C15   C35   S    
C83   H70   S    
C52   C54   D    
C23   N23   A    
C24   C30   S    
C20   C29   S    
C2    C45   A    
C22   H23   S    
C64   N7    A    
C22   C44   S    
C21   H18   S    
C24   H24   S    
N26   Ni8   S    
C37   H46   S    
C47   H34   S    
C49   H49   S    
C18   H14   S    
C13   C30   S    
C55   H56   S    
C6    C84   A    
N8    Ni8   S    
C12   N12   A    
C4    C79   A    
N4    Ni6   S    
C92   H97   S    
C31   C44   S    
N15   N18   A    
C1    H1    S    
C56   N24   A    
C30   C73   S    
C59   H59   S    
C95   H4    S    
C52   H53   S    
C88   H87   S    
C80   N14   A    
C29   C74   S    
C90   H90   S    
C49   C55   D    
C57   H57   S    
C77   C95   S    
C39   H22   S    
C85   H73   S    
C4    C50   S    
C16   C31   S    
C8    C35   S    
C75   N9    A    
C40   N28   A    
C35   C39   S    
C25   H30   S    
C60   H60   S    
C80   H67   S    
C14   C33   S    
C2    C52   S    
C91   H93   S    
C11   C16   S    
C90   H88   S    
C60   N3    A    
C14   H8    S    
C18   C38   S    
C60   C70   A    
C87   H75   S    
C40   H41   S    
C1    C66   A    
C9    C14   S    
C62   C72   A    
C43   H44   S    
C11   H82   S    
C86   N20   A    
C32   C37   S    
C5    C80   A    
C19   C28   S    
C10   H61   S    
C41   H42   S    
C54   H55   S    
C19   C39   S    
N7    Ni8   S    
C41   C72   A    
C82   N16   A    
C42   N30   A    
C58   C68   A    
C56   C89   A    
C10   H81   S    
C41   N29   A    
C16   H12   S    
C19   H15   S    
N4    N23   A    
N6    N28   A    
C53   H54   S    
N16   Ni4   S    
C81   H68   S    
C96   H7    S    
C28   C71   S    
C19   H37   S    
C3    C77   A    
C45   H76   S    
C2    C76   A    
C75   C93   S    
C11   H72   S    
C10   C28   S    
N25   Ni8   S    
N13   N25   A    
C25   C47   S    
C44   H32   S    
C42   C73   A    
C21   H40   S    
C42   H43   S    
C86   H74   S    
C50   C57   D    
C32   C46   S    
C18   C27   S    
N23   Ni3   S    
C53   C70   S    
C64   H65   S    
C17   H13   S    
C4    C67   A    
N12   Ni2   S    
C23   H28   S    
C84   N18   A    
C90   H89   S    
C37   H20   S    
C25   C27   S    
C13   H84   S    
C21   C30   S    
N21   Ni6   S    
C26   C28   S    
C33   C38   S    
C13   C17   S    
C56   H77   S    
C10   C15   S    
C94   H101  S    
C61   C69   A    
C15   H9    S    
C34   N27   A    
C85   N19   A    
C77   N11   A    
C24   C46   S    
C79   C96   S    
C61   N4    A    
C84   H71   S    
C13   H83   S    
C61   H62   S    
C51   C89   S    
C36   H19   S    
C59   N2    A    
N19   Ni5   S    
C88   H85   S    
C81   N15   A    
C54   C69   S    
C34   H39   S    
N12   N32   A    
C16   H94   S    
C51   H52   S    
C33   C47   S    
N11   Ni3   S    
C43   N31   A    
C26   H31   S    
N10   Ni2   S    
N29   Ni1   S    
C88   H86   S    
N9    N24   A    
N24   Ni7   S    
N9    Ni1   S    
C58   N32   A    
N32   Ni5   S    
C75   C89   A    
C93   H100  S    
C79   N13   A    
C7    C82   A    
C21   C37   S    
C39   H48   S    
C11   C29   S    
C8    C86   A    
C48   C92   S    
C14   H10   S    
C94   H102  S    
C17   C32   S    
C64   C74   A    
C62   H63   S    
N31   Ni3   S    
C26   H26   S    
N18   Ni5   S    
C51   C53   D    
C24   H29   S    
C44   C88   S    
C3    C78   A    
C25   H25   S    
C63   C71   A    
C27   C72   S    
C92   H96   S    
N1    Ni1   S    
N8    N30   A    
C5    C31   S    
C82   H69   S    
