data_mof_unit_38273.cif
_audit_creation_date              2012-10-26T21:10:39-0400
_audit_creation_method            fapswitch 2.2
_symmetry_space_group_name_H-M    P1
_symmetry_Int_Tables_number       1
_space_group_crystal_system       triclinic
_cell_length_a                    10.898949
_cell_length_b                    14.687235
_cell_length_c                    14.674869
_cell_angle_alpha                 65.365266
_cell_angle_beta                  103.925544
_cell_angle_gamma                 102.955962
_cell_volume                      2051.98895111

loop_
_atom_site_label
_atom_site_type_symbol
_atom_type_description
_atom_site_fract_x
_atom_site_fract_y
_atom_site_fract_z
_atom_type_partial_charge
C1    C     C_R   0.478643 0.119603 0.312070 0.571276
C2    C     C_R   0.624139 0.783396 0.972538 -0.130942
C3    C     C_R   0.419936 0.150498 0.126822 -0.114488
C4    C     C_R   0.601136 0.850169 0.871637 -0.107717
C5    C     C_R   0.502829 0.291349 0.179477 -0.132509
C6    C     C_R   0.509821 0.708716 0.821208 -0.134922
C7    C     C_R   0.496293 0.360362 0.078098 0.033635
C8    C     C_R   0.538953 0.639459 0.921344 0.035001
C9    C     C_R   0.450411 0.321334 0.000599 0.052183
C10   C     C_R   0.593329 0.678613 0.997920 0.051571
C11   C     C_R   0.531752 0.466734 0.051754 0.034037
C12   C     C_R   0.521900 0.880453 0.687919 0.567901
C13   C     C_R   0.513488 0.532842 0.947448 0.035322
C14   C     C_R   0.473001 0.490222 0.872611 -0.133828
C15   C     C_R   0.585523 0.509305 0.125867 -0.135459
C16   C     C_R   0.262197 0.002211 0.497329 0.591417
C17   C     C_R   0.737871 0.997775 0.502648 0.591212
C18   C     C_R   0.442084 0.386576 0.898997 -0.128482
C19   C     C_R   0.616622 0.613022 0.099010 -0.128774
C20   C     C_R   0.684863 0.272274 0.686959 -0.150795
C21   C     C_R   0.314963 0.727618 0.313178 -0.150480
C22   C     C_R   0.660898 0.194931 0.651232 0.083059
C23   C     C_R   0.871780 0.994726 0.504558 -0.065039
C24   C     C_R   0.338913 0.804980 0.348868 0.082171
C25   C     C_R   0.527479 0.289257 0.503362 0.029782
C26   C     C_R   0.472686 0.710815 0.496603 0.031429
C27   C     C_R   0.547590 0.371140 0.535670 -0.000951
C28   C     C_R   0.452680 0.628953 0.464291 -0.000248
C29   C     C_R   0.627765 0.360091 0.630129 0.031748
C30   C     C_R   0.372341 0.639920 0.369911 0.032527
C31   C     C_R   0.489178 0.461568 0.479635 0.018986
C32   C     C_R   0.511278 0.538602 0.520256 0.019223
C33   C     C_R   0.590835 0.522532 0.615445 -0.145407
C34   C     C_R   0.128431 0.004945 0.495805 -0.065831
C35   C     C_R   0.409811 0.477715 0.384361 -0.143464
C36   C     C_R   0.648133 0.435397 0.668665 -0.129408
C37   C     C_R   0.352168 0.564696 0.331300 -0.127244
C38   C     C_R   0.363816 0.015671 0.796919 -0.089610
C39   C     C_R   0.637913 0.970480 0.206520 -0.091903
C40   C     C_R   0.269840 0.984057 0.728376 -0.005250
C41   C     C_R   0.728989 0.006406 0.273497 -0.001810
C42   C     C_R   0.197849 0.054256 0.647920 0.121735
C43   C     C_R   0.803402 0.939726 0.355820 0.119934
C44   C     C_R   0.223747 0.156558 0.635347 -0.023640
C45   C     C_R   0.903895 0.976595 0.426152 -0.088519
C46   C     C_R   0.782098 0.836501 0.372203 -0.027811
C47   C     C_R   0.319497 0.188014 0.702970 -0.099646
C48   C     C_R   0.688991 0.800716 0.306275 -0.100820
C49   C     C_R   0.389178 0.117554 0.783904 -0.110756
C50   C     C_R   0.617421 0.867762 0.223167 -0.111951
C51   C     C_R   0.967781 0.012605 0.582099 0.234434
C52   C     C_R   0.032537 0.987339 0.418220 0.234092
C53   C     C_R   0.096459 0.021925 0.574918 -0.089420
C54   C     C_R   0.466747 0.187348 0.204279 0.015121
C55   C     C_R   0.542953 0.812986 0.795577 0.014356
C56   C     C_R   0.412792 0.217043 0.025505 -0.131664
Cu1   Cu    Cu3+1 0.466270 0.918260 0.475690 1.000725
Cu2   Cu    Cu3+1 0.533730 0.081740 0.524310 1.001003
H1    H     H_    0.462796 0.141898 0.836541 0.096806
H2    H     H_    0.462933 0.289042 0.435351 0.121084
H3    H     H_    0.300075 0.874636 0.302303 0.190040
H4    H     H_    0.699581 0.125220 0.697858 0.188882
H5    H     H_    0.745068 0.262290 0.760003 0.106825
H6    H     H_    0.254603 0.737520 0.240206 0.106635
H7    H     H_    0.610468 0.575840 0.651689 0.097409
H8    H     H_    0.390621 0.424600 0.347914 0.099861
H9    H     H_    0.416537 0.961147 0.860494 0.095646
H10   H     H_    0.584092 0.022324 0.141033 0.095193
H11   H     H_    0.251503 0.905044 0.738777 0.101612
H12   H     H_    0.546289 0.840153 0.171544 0.101450
H13   H     H_    0.743867 0.086104 0.260036 0.105725
H14   H     H_    0.170115 0.211746 0.572965 0.121504
H15   H     H_    0.837676 0.783983 0.436013 0.120403
H16   H     H_    0.339547 0.266962 0.692744 0.110284
H17   H     H_    0.672746 0.721109 0.319310 0.112277
H18   H     H_    0.410438 0.357350 0.839153 0.109922
H19   H     H_    0.658356 0.642138 0.158201 0.112314
H20   H     H_    0.459314 0.683435 0.761484 0.118260
H21   H     H_    0.533968 0.316625 0.241267 0.118039
H22   H     H_    0.629003 0.930593 0.853199 0.137143
H23   H     H_    0.376849 0.187066 0.966483 0.110886
H24   H     H_    0.388537 0.070523 0.144501 0.134265
H25   H     H_    0.017219 0.991080 0.847764 0.364209
H26   H     H_    0.980816 0.011133 0.152058 0.364206
H27   H     H_    0.667309 0.813599 0.030694 0.113448
H28   H     H_    0.466630 0.534691 0.792315 0.102311
H29   H     H_    0.607965 0.465016 0.205819 0.105640
H30   H     H_    0.708276 0.426437 0.741587 0.120448
H31   H     H_    0.291957 0.573634 0.258411 0.119408
H32   H     H_    0.537261 0.711073 0.564591 0.121250
N1    N     N_R   0.584450 0.204570 0.560790 -0.239028
N2    N     N_R   0.415550 0.795430 0.439210 -0.239384
O1    O     O_R   0.455540 0.022090 0.338120 -0.494787
O2    O     O_2   0.803032 0.954247 0.715242 -0.298138
O3    O     O_3   0.038325 0.972623 0.796222 -0.532869
O4    O     O_2   0.197374 0.047085 0.284546 -0.294901
O5    O     O_2   0.076319 0.876327 0.326935 -0.323765
O6    O     O_3   0.961726 0.030292 0.203864 -0.533922
O7    O     O_R   0.544460 0.977910 0.661880 -0.495137
O8    O     O_R   0.512510 0.160150 0.379180 -0.527502
O9    O     O_R   0.487490 0.839850 0.620820 -0.526498
O10   O     O_R   0.291160 0.930970 0.479480 -0.437326
O11   O     O_R   0.708840 0.069030 0.520520 -0.435694
O12   O     O_R   0.348130 0.069020 0.520540 -0.520042
O13   O     O_R   0.651870 0.930980 0.479460 -0.520656
O14   O     O_2   0.923040 0.125437 0.670937 -0.322102
S1    S     S_3+6 0.928937 0.017128 0.691988 -0.009061
S2    S     S_3+6 0.071247 0.984359 0.307534 -0.007662

loop_
_geom_bond_atom_site_label_1
_geom_bond_atom_site_label_2
_ccdc_geom_bond_type
Cu1   O13   S    
C24   H3    S    
C23   C45   A    
Cu1   N2    S    
C27   C29   A    
C39   H10   S    
C14   C18   A    
C6    C55   A    
C33   H7    S    
C56   H23   S    
C47   C49   A    
C38   C49   A    
C36   H30   S    
C7    C11   A    
Cu1   O10   S    
C29   C36   A    
C8    C13   A    
C35   C37   A    
C4    H22   S    
C42   C53   S    
C3    C54   A    
C6    H20   S    
O14   S1    D    
C26   N2    A    
C33   C36   A    
O6    S2    S    
C2    H27   S    
C19   H19   S    
C12   O7    A    
C16   C34   S    
C15   C19   A    
O5    S2    D    
C11   C15   A    
C16   O12   A    
C21   H6    S    
C22   N1    A    
C25   H2    S    
C5    H21   S    
Cu2   N1    S    
C44   C47   A    
C41   H13   S    
C40   C42   A    
O4    S2    D    
Cu1   O1    S    
C13   C14   A    
C41   C43   A    
C48   H17   S    
C42   C44   A    
C24   N2    A    
C1    O8    A    
C20   C29   A    
C46   C48   A    
O2    S1    D    
C25   N1    A    
C40   H11   S    
C27   C31   A    
C5    C54   A    
C28   C32   A    
Cu2   O8    S    
C14   H28   S    
C39   C41   A    
C5    C7    A    
C6    C8    A    
C35   H8    S    
C30   C37   A    
C51   C53   A    
C2    C4    A    
C1    C54   S    
C17   O13   A    
C22   H4    S    
C3    C56   A    
C23   C51   A    
C31   C32   A    
C10   C19   A    
H25   O3    S    
C3    H24   S    
C9    C56   A    
C17   C23   S    
C43   C45   S    
O3    S1    S    
C1    O1    A    
C20   C22   A    
C4    C55   A    
C31   C35   A    
Cu2   O12   S    
C2    C10   A    
C15   H29   S    
C16   O10   A    
C7    C9    A    
C18   H18   S    
C34   C52   A    
C8    C10   A    
Cu2   O7    S    
C47   H16   S    
C49   H1    S    
C25   C27   A    
Cu1   O9    S    
C21   C30   A    
C26   C28   A    
C45   C52   A    
C37   H31   S    
H26   O6    S    
C32   C33   A    
C20   H5    S    
C28   C30   A    
C17   O11   A    
C12   O9    A    
C38   C40   A    
C11   C13   A    
Cu1   Cu2   S    
C48   C50   A    
C44   H14   S    
C50   H12   S    
C43   C46   A    
C12   C55   S    
C9    C18   A    
C39   C50   A    
C38   H9    S    
C52   S2    S    
C34   C53   A    
C51   S1    S    
C21   C24   A    
Cu2   O11   S    
C26   H32   S    
C46   H15   S    
