data_mof_unit_32794.cif
_audit_creation_date              2012-10-26T21:02:55-0400
_audit_creation_method            fapswitch 2.2
_symmetry_space_group_name_H-M    P1
_symmetry_Int_Tables_number       1
_space_group_crystal_system       triclinic
_cell_length_a                    12.318255
_cell_length_b                    13.133737
_cell_length_c                    23.508634
_cell_angle_alpha                 77.746207
_cell_angle_beta                  101.217623
_cell_angle_gamma                 116.643477
_cell_volume                      3300.46376681

loop_
_atom_site_label
_atom_site_type_symbol
_atom_type_description
_atom_site_fract_x
_atom_site_fract_y
_atom_site_fract_z
_atom_type_partial_charge
C1    C     C_R   0.855038 0.286452 0.504505 0.574622
C2    C     C_R   0.025647 0.595426 0.871901 0.400956
C3    C     C_R   0.907327 0.518578 0.749146 -0.058169
C4    C     C_R   0.999238 0.499406 0.608954 0.546158
C5    C     C_R   0.908819 0.520056 0.689817 -0.147395
C6    C     C_R   0.997369 0.497948 0.671554 0.002022
C7    C     C_R   0.083914 0.473924 0.713724 -0.144200
C8    C     C_R   0.082046 0.472309 0.772989 -0.057835
C9    C     C_R   0.993923 0.494735 0.790884 0.240784
C10   C     C_R   0.902943 0.506810 0.228082 0.148156
C11   C     C_R   0.904404 0.508758 0.287511 -0.142722
C12   C     C_R   0.929245 0.283692 0.047495 0.090130
C13   C     C_R   0.999529 0.498114 0.328617 -0.007444
C14   C     C_R   0.093325 0.485264 0.309535 -0.154229
C15   C     C_R   0.092256 0.483637 0.250346 -0.092392
C16   C     C_R   0.145180 0.713698 0.491375 0.548619
C17   C     C_R   0.997586 0.494625 0.209505 0.283087
C18   C     C_R   0.278072 0.018360 0.416154 -0.123758
C19   C     C_R   0.228196 0.835180 0.478308 0.001298
C20   C     C_R   0.814826 0.085331 0.543867 -0.123690
C21   C     C_R   0.735317 0.969669 0.556383 0.100761
C22   C     C_R   0.612317 0.932702 0.534519 -0.085661
C23   C     C_R   0.928746 0.285762 0.987620 -0.120667
C24   C     C_R   0.567455 0.009137 0.497522 -0.023754
C25   C     C_R   0.652584 0.122077 0.477796 0.054622
C26   C     C_R   0.440976 0.975846 0.478450 0.020407
C27   C     C_R   0.402727 0.050409 0.435514 0.033356
C28   C     C_R   0.000178 0.499797 0.391085 0.566963
C29   C     C_R   0.489360 0.153530 0.410221 -0.124485
C30   C     C_R   0.613650 0.188229 0.429313 0.106083
C31   C     C_R   0.350896 0.870349 0.500900 -0.126181
C32   C     C_R   0.191138 0.910691 0.437104 -0.127009
C33   C     C_R   0.773979 0.162908 0.506532 -0.005045
C34   C     C_R   0.961093 0.389187 0.948895 0.009881
C35   C     C_R   0.346589 0.328494 0.593383 -0.144180
C36   C     C_R   0.759752 0.645692 0.421033 0.048351
C37   C     C_R   0.663333 0.677570 0.403843 -0.152354
C38   C     C_R   0.559770 0.622620 0.433525 -0.130342
C39   C     C_R   0.551453 0.534596 0.481140 -0.001133
C40   C     C_R   0.030682 0.595068 0.111376 0.421496
C41   C     C_R   0.652955 0.505125 0.497287 0.182651
C42   C     C_R   0.447004 0.475111 0.513410 -0.009756
C43   C     C_R   0.446701 0.388074 0.560921 0.037382
C44   C     C_R   0.546375 0.361013 0.575996 -0.173722
C45   C     C_R   0.994591 0.492617 0.970352 -0.035804
C46   C     C_R   0.647109 0.418321 0.545039 -0.099513
C47   C     C_R   0.342015 0.497761 0.500919 0.042139
C48   C     C_R   0.246708 0.355134 0.578950 0.043772
C49   C     C_R   0.964813 0.391155 0.129522 0.426723
C50   C     C_R   0.962929 0.387456 0.069694 0.063150
C51   C     C_R   0.995734 0.492008 0.030633 -0.057856
C52   C     C_R   0.029835 0.596435 0.051610 0.026428
C53   C     C_R   0.027089 0.596906 0.931530 0.034089
C54   C     C_R   0.060722 0.699987 0.953116 -0.121480
C55   C     C_R   0.062157 0.699762 0.012518 -0.120075
C56   C     C_R   0.960795 0.391807 0.888867 0.400429
Cu1   Cu    Cu3+1 0.098270 0.475410 0.513370 0.935869
Cu2   Cu    Cu3+1 0.901730 0.524590 0.486630 0.930505
H1    H     H_    0.830715 0.518013 0.301300 0.121072
H2    H     H_    0.902745 0.205422 0.971678 0.163243
H3    H     H_    0.169056 0.309527 0.603813 0.120848
H4    H     H_    0.546832 0.294731 0.612396 0.116879
H5    H     H_    0.345709 0.261828 0.629746 0.102068
H6    H     H_    0.334116 0.562163 0.465573 0.117682
H7    H     H_    0.839797 0.688846 0.397759 0.126305
H8    H     H_    0.487991 0.650862 0.418360 0.102099
H9    H     H_    0.668897 0.745131 0.367390 0.114532
H10   H     H_    0.718652 0.391545 0.560503 0.179326
H11   H     H_    0.086143 0.781211 0.924214 0.167636
H12   H     H_    0.167774 0.476921 0.340238 0.132808
H13   H     H_    0.088586 0.780894 0.027673 0.167225
H14   H     H_    0.838779 0.535718 0.762774 0.131820
H15   H     H_    0.840766 0.538508 0.658368 0.137906
H16   H     H_    0.153098 0.456398 0.701012 0.131627
H17   H     H_    0.149412 0.454117 0.805084 0.131856
H18   H     H_    0.806857 0.120226 0.069812 0.235941
H19   H     H_    0.954478 0.140130 0.081769 0.233982
H20   H     H_    0.871549 0.928471 0.604517 0.233258
H21   H     H_    0.736540 0.863096 0.631832 0.232684
H22   H     H_    0.686846 0.261918 0.352927 0.221823
H23   H     H_    0.165280 0.474196 0.236058 0.124743
H24   H     H_    0.679419 0.354022 0.390612 0.246606
H25   H     H_    0.723183 0.449315 0.199149 0.224654
H26   H     H_    0.802651 0.593960 0.188645 0.239735
H27   H     H_    0.096251 0.884441 0.419012 0.127228
H28   H     H_    0.460926 0.206503 0.374213 0.105126
H29   H     H_    0.248354 0.074820 0.383146 0.117110
H30   H     H_    0.373439 0.812140 0.535436 0.117610
H31   H     H_    0.908152 0.115339 0.564759 0.123956
H32   H     H_    0.555083 0.842559 0.545963 0.125764
N1    N     N_R   0.998020 0.493614 0.148690 -0.388568
N2    N     N_R   0.992961 0.493900 0.851858 -0.397202
N3    N     N_R   0.246280 0.438190 0.533650 -0.233830
N4    N     N_R   0.754320 0.561190 0.466710 -0.238408
N5    N     N_3   0.895361 0.175495 0.085120 -0.546376
N6    N     N_3   0.777040 0.888807 0.592962 -0.616158
N7    N     N_3   0.699718 0.283290 0.394880 -0.594560
N8    N     N_3   0.805188 0.516388 0.186447 -0.590340
O1    O     O_R   0.972510 0.318130 0.516820 -0.506694
O2    O     O_R   0.082990 0.479280 0.429170 -0.502342
O3    O     O_R   0.917010 0.520800 0.406580 -0.508572
O4    O     O_2   0.064048 0.694349 0.132237 -0.490525
O5    O     O_2   0.933140 0.293755 0.168412 -0.447172
O6    O     O_2   0.927999 0.293144 0.867530 -0.499422
O7    O     O_2   0.057729 0.694675 0.834300 -0.498485
O8    O     O_R   0.806530 0.359650 0.494230 -0.498036
O9    O     O_R   0.082990 0.479200 0.593420 -0.503466
O10   O     O_R   0.917010 0.520720 0.570830 -0.518699
O11   O     O_R   0.193470 0.640350 0.505770 -0.507106
O12   O     O_R   0.027490 0.681870 0.483180 -0.499230

loop_
_geom_bond_atom_site_label_1
_geom_bond_atom_site_label_2
_ccdc_geom_bond_type
C34   C56   A    
H22   N7    S    
C27   C29   A    
C17   N1    S    
C19   C31   A    
C1    O1    A    
C48   H3    S    
C16   O12   A    
C7    C8    A    
C15   H23   S    
C53   C54   A    
C4    O10   A    
C12   C23   A    
C26   C27   A    
C29   C30   A    
C36   C37   A    
C24   C26   A    
H18   N5    S    
C38   C39   A    
C19   C32   A    
C10   C17   A    
Cu1   O1    S    
C10   N8    S    
C28   O3    A    
Cu1   O11   S    
C38   H8    S    
H20   N6    S    
C8    C9    A    
H25   N8    S    
C41   C46   A    
C12   N5    S    
C39   C42   A    
C35   C43   A    
C52   C55   A    
C1    O8    A    
C28   O2    A    
C45   C53   A    
C26   C31   A    
Cu1   N3    S    
C13   C14   A    
C14   H12   S    
C49   N1    A    
C11   H1    S    
C35   C48   A    
C9    N2    S    
C44   C46   A    
C16   O11   A    
C7    H16   S    
C22   H32   S    
C23   H2    S    
C4    O9    A    
C48   N3    A    
C1    C33   S    
C51   C52   A    
C24   C25   A    
C56   O6    S    
C4    C6    S    
C47   H6    S    
Cu2   O3    S    
C36   H7    S    
C44   H4    S    
C40   C52   A    
Cu1   O2    S    
H19   N5    S    
C8    H17   S    
Cu2   O8    S    
C43   C44   A    
C46   H10   S    
C37   C38   A    
C3    C9    A    
C41   N4    A    
C30   N7    S    
C23   C34   A    
C50   C51   A    
C47   N3    A    
C13   C28   S    
C34   C45   A    
C2    N2    A    
C29   H28   S    
C20   C33   A    
Cu1   O9    S    
H24   N7    S    
C22   C24   A    
C18   C32   A    
C42   C43   A    
C25   C30   A    
C15   C17   A    
C54   C55   A    
C31   H30   S    
Cu2   O12   S    
C18   C27   A    
C3    C5    A    
C2    C53   A    
C49   O5    S    
C12   C50   A    
C6    C7    A    
C21   N6    S    
C20   H31   S    
C2    O7    S    
C18   H29   S    
H26   N8    S    
C3    H14   S    
Cu2   N4    S    
H21   N6    S    
C11   C13   A    
Cu1   Cu2   S    
C5    C6    A    
C54   H11   S    
C16   C19   S    
C32   H27   S    
C37   H9    S    
Cu2   O10   S    
C42   C47   A    
C40   N1    A    
C5    H15   S    
C10   C11   A    
C40   O4    S    
C36   N4    A    
C56   N2    A    
C20   C21   A    
C39   C41   A    
C49   C50   A    
C45   C51   A    
C14   C15   A    
C35   H5    S    
C21   C22   A    
C55   H13   S    
C25   C33   A    
