data_mof_unit_14150.cif
_audit_creation_date              2012-12-11T17:39:22-0500
_audit_creation_method            fapswitch 2.2
_symmetry_space_group_name_H-M    P1
_symmetry_Int_Tables_number       1
_space_group_crystal_system       triclinic
_cell_length_a                    24.934387
_cell_length_b                    7.231884
_cell_length_c                    22.62952
_cell_angle_alpha                 89.999971
_cell_angle_beta                  96.618266
_cell_angle_gamma                 89.999975
_cell_volume                      4053.4208439

loop_
_atom_site_label
_atom_site_type_symbol
_atom_type_description
_atom_site_fract_x
_atom_site_fract_y
_atom_site_fract_z
_atom_type_partial_charge
O1    O     O_R   0.801910 0.607900 0.699140 -0.537406
O2    O     O_R   0.198090 0.392100 0.300860 -0.537365
O3    O     O_R   0.698090 0.107900 0.800860 -0.537406
O4    O     O_R   0.301910 0.892100 0.199140 -0.537364
O5    O     O_R   0.692320 0.276320 0.686350 -0.532477
O6    O     O_R   0.307680 0.723680 0.313650 -0.532418
O7    O     O_R   0.807680 0.776320 0.813650 -0.532477
O8    O     O_R   0.192320 0.223680 0.186350 -0.532419
C1    C     C_R   0.673949 0.446530 0.671303 0.703881
C2    C     C_R   0.326129 0.553480 0.328593 0.707831
C3    C     C_R   0.826051 0.946530 0.828697 0.703881
C4    C     C_R   0.173871 0.053480 0.171407 0.707831
O9    O     O_R   0.801140 0.278070 0.692060 -0.536517
O10   O     O_R   0.198860 0.721930 0.307940 -0.536723
O11   O     O_R   0.698860 0.778070 0.807940 -0.536517
O12   O     O_R   0.301140 0.221930 0.192060 -0.536723
O13   O     O_R   0.807690 0.109570 0.806600 -0.530671
O14   O     O_R   0.192310 0.890430 0.193400 -0.530175
O15   O     O_R   0.692310 0.609570 0.693400 -0.530672
O16   O     O_R   0.307690 0.390430 0.306600 -0.530175
C5    C     C_R   0.818441 0.445429 0.678509 0.703205
C6    C     C_R   0.181226 0.554670 0.321056 0.704724
C7    C     C_R   0.681559 0.945429 0.821490 0.703205
C8    C     C_R   0.318774 0.054670 0.178944 0.704723
O17   O     O_3   0.752020 0.441970 0.787570 -0.373226
O18   O     O_3   0.247980 0.558030 0.212430 -0.375012
O19   O     O_3   0.747980 0.941970 0.712430 -0.373226
O20   O     O_3   0.252020 0.058030 0.287570 -0.375011
V1    V     V_3+5 0.749620 0.166420 0.743030 1.388444
V2    V     V_3+5 0.250380 0.833580 0.256970 1.390238
V3    V     V_3+5 0.750380 0.666420 0.756970 1.388444
V4    V     V_3+5 0.249620 0.333580 0.243030 1.390238
C9    C     C_R   0.423754 0.198355 0.073863 0.305529
C10   C     C_R   0.575507 0.803206 0.925611 0.305492
C11   C     C_R   0.076246 0.698354 0.426137 0.305529
C12   C     C_R   0.924492 0.303206 0.574389 0.305491
C13   C     C_R   0.386417 0.212409 0.116119 0.259137
C14   C     C_R   0.617833 0.788495 0.889369 0.257416
C15   C     C_R   0.113583 0.712409 0.383881 0.259137
C16   C     C_R   0.882167 0.288495 0.610631 0.257416
C17   C     C_R   0.361266 0.050114 0.136562 -0.178628
C18   C     C_R   0.639079 0.950392 0.863945 -0.179040
C19   C     C_R   0.138734 0.550114 0.363438 -0.178628
C20   C     C_R   0.860921 0.450392 0.636055 -0.179040
C21   C     C_R   0.378020 0.878338 0.116198 -0.217273
C22   C     C_R   0.618587 0.122379 0.879611 -0.218105
C23   C     C_R   0.121979 0.378337 0.383802 -0.217273
C24   C     C_R   0.881413 0.622379 0.620389 -0.218105
C25   C     C_R   0.418726 0.865192 0.078757 -0.187975
C26   C     C_R   0.580286 0.136217 0.919923 -0.189035
C27   C     C_R   0.081274 0.365191 0.421243 -0.187976
C28   C     C_R   0.919714 0.636216 0.580077 -0.189035
C29   C     C_R   0.441246 0.023791 0.056532 -0.009338
C30   C     C_R   0.557818 0.978022 0.942440 -0.008561
C31   C     C_R   0.058754 0.523790 0.443468 -0.009338
C32   C     C_R   0.942182 0.478022 0.557559 -0.008561
C33   C     C_1   0.481907 0.006882 0.015728 -0.040270
C34   C     C_1   0.516252 0.995446 0.982131 -0.040166
C35   C     C_1   0.018093 0.506881 0.484271 -0.040269
C36   C     C_1   0.983748 0.495446 0.517869 -0.040166
C37   C     C_3   0.954745 0.969716 0.027310 -0.233741
C38   C     C_3   0.044798 0.030178 0.973293 -0.233284
C39   C     C_3   0.545255 0.469716 0.472690 -0.233741
C40   C     C_3   0.455202 0.530178 0.526707 -0.233283
C41   C     C_3   0.992178 0.139828 0.035206 0.368476
C42   C     C_3   0.007372 0.860069 0.965403 0.368638
C43   C     C_3   0.507822 0.639828 0.464794 0.368476
C44   C     C_3   0.492628 0.360069 0.534597 0.368638
C45   C     C_1   0.128099 0.044121 0.125569 -0.185295
C46   C     C_1   0.871653 0.955870 0.874759 -0.182499
C47   C     C_1   0.371901 0.544120 0.374431 -0.185295
C48   C     C_1   0.628347 0.455870 0.625241 -0.182499
C49   C     C_3   0.005787 0.843110 0.033111 -0.202895
C50   C     C_3   0.993763 0.156787 0.967497 -0.202544
C51   C     C_3   0.494213 0.343110 0.466889 -0.202895
C52   C     C_3   0.506237 0.656787 0.532502 -0.202544
C53   C     C_3   0.042484 0.016480 0.041345 0.067764
C54   C     C_3   0.957065 0.983417 0.959256 0.067553
C55   C     C_3   0.457516 0.516480 0.458655 0.067764
C56   C     C_3   0.542935 0.483417 0.540744 0.067553
C57   C     C_1   0.089588 0.033423 0.087533 -0.033278
C58   C     C_1   0.910041 0.966517 0.912957 -0.033867
C59   C     C_1   0.410412 0.533422 0.412467 -0.033277
C60   C     C_1   0.589959 0.466517 0.587043 -0.033867
N1    N     N_2   0.441955 0.362504 0.047679 -0.509510
H1    H     H_    0.481811 0.360161 0.039592 0.255578
C61   C     C_3   0.406050 0.424578 0.996711 -0.584027
H2    H     H_    0.421469 0.555111 0.979260 0.198307
H3    H     H_    0.365072 0.451419 0.009576 0.211947
H4    H     H_    0.403489 0.318936 0.960810 0.193375
N2    N     N_2   0.549708 0.639401 0.942906 -0.509891
H5    H     H_    0.538511 0.642164 0.985364 0.255295
C62   C     C_3   0.506510 0.577646 0.899120 -0.583092
H6    H     H_    0.488978 0.447395 0.914238 0.198235
H7    H     H_    0.522142 0.550423 0.855902 0.211699
H8    H     H_    0.474061 0.683635 0.892876 0.193518
N3    N     N_2   0.058044 0.862504 0.452321 -0.509511
H9    H     H_    0.018188 0.860160 0.460408 0.255579
C63   C     C_3   0.093950 0.924578 0.503288 -0.584025
H10   H     H_    0.078530 0.055110 0.520740 0.198307
H11   H     H_    0.134928 0.951418 0.490424 0.211946
H12   H     H_    0.096510 0.818935 0.539189 0.193375
N4    N     N_2   0.950292 0.139401 0.557094 -0.509892
H13   H     H_    0.961489 0.142164 0.514636 0.255296
C64   C     C_3   0.993489 0.077645 0.600880 -0.583093
H14   H     H_    0.011022 0.947395 0.585762 0.198236
H15   H     H_    0.977858 0.050422 0.644098 0.211699
H16   H     H_    0.025939 0.183634 0.607125 0.193518
N5    N     N_2   0.377323 0.391472 0.138821 -0.506712
H17   H     H_    0.338027 0.437734 0.133261 0.262520
C65   C     C_3   0.408179 0.432794 0.195485 -0.489812
H18   H     H_    0.398676 0.574332 0.210047 0.175836
H19   H     H_    0.452067 0.425493 0.191199 0.194409
H20   H     H_    0.398473 0.333620 0.230176 0.183247
N6    N     N_2   0.639055 0.608978 0.881547 -0.507851
H21   H     H_    0.638910 0.564542 0.838311 0.257620
C66   C     C_3   0.686667 0.564453 0.921927 -0.476103
H22   H     H_    0.700966 0.423268 0.912732 0.183163
H23   H     H_    0.676978 0.569073 0.968608 0.191081
H24   H     H_    0.719820 0.663545 0.916689 0.182933
N7    N     N_2   0.122677 0.891472 0.361179 -0.506711
H25   H     H_    0.161973 0.937734 0.366739 0.262520
C67   C     C_3   0.091820 0.932794 0.304514 -0.489815
H26   H     H_    0.101324 0.074332 0.289953 0.175837
H27   H     H_    0.047933 0.925493 0.308801 0.194409
H28   H     H_    0.101526 0.833620 0.269824 0.183248
N8    N     N_2   0.860945 0.108978 0.618453 -0.507851
H29   H     H_    0.861090 0.064542 0.661689 0.257620
C68   C     C_3   0.813333 0.064453 0.578073 -0.476101
H30   H     H_    0.799034 0.923269 0.587268 0.183162
H31   H     H_    0.823022 0.069072 0.531392 0.191081
H32   H     H_    0.780180 0.163546 0.583311 0.182932
H33   H     H_    0.359746 0.752709 0.129658 0.174035
H34   H     H_    0.632473 0.247749 0.860754 0.172810
H35   H     H_    0.140254 0.252709 0.370341 0.174035
H36   H     H_    0.867527 0.747749 0.639245 0.172811
H37   H     H_    0.432335 0.730377 0.066694 0.190256
H38   H     H_    0.567732 0.271255 0.933045 0.190364
H39   H     H_    0.067665 0.230377 0.433305 0.190256
H40   H     H_    0.932267 0.771254 0.566955 0.190364
N9    N     N_2   0.984711 0.293404 0.074393 -0.522919
H41   H     H_    0.990293 0.256829 0.118705 0.251808
C69   C     C_3   0.936064 0.399684 0.058616 -0.567788
H42   H     H_    0.934481 0.515992 0.090393 0.192900
H43   H     H_    0.899831 0.311419 0.060538 0.191060
H44   H     H_    0.935749 0.458398 0.013220 0.223224
N10   N     N_2   0.014851 0.706475 0.926227 -0.522830
H45   H     H_    0.009299 0.743044 0.881914 0.251721
C70   C     C_3   0.063486 0.600161 0.942038 -0.567857
H46   H     H_    0.065085 0.483865 0.910260 0.192605
H47   H     H_    0.063766 0.541426 0.987428 0.223540
H48   H     H_    0.099728 0.688406 0.940151 0.190965
N11   N     N_2   0.515289 0.793404 0.425606 -0.522918
H49   H     H_    0.509707 0.756828 0.381295 0.251808
C71   C     C_3   0.563936 0.899683 0.441383 -0.567790
H50   H     H_    0.565518 0.015991 0.409606 0.192900
H51   H     H_    0.600169 0.811419 0.439462 0.191060
H52   H     H_    0.564251 0.958398 0.486779 0.223224
N12   N     N_2   0.485149 0.206476 0.573774 -0.522830
H53   H     H_    0.490701 0.243046 0.618086 0.251721
C72   C     C_3   0.436514 0.100162 0.557963 -0.567858
H54   H     H_    0.434915 0.983865 0.589740 0.192605
H55   H     H_    0.436234 0.041427 0.512573 0.223540
H56   H     H_    0.400272 0.188407 0.559849 0.190965
H57   H     H_    0.917903 0.947904 0.049673 0.124163
H58   H     H_    0.081638 0.051988 0.950926 0.124110
H59   H     H_    0.582097 0.447904 0.450326 0.124163
H60   H     H_    0.418362 0.551989 0.549074 0.124110
H61   H     H_    0.987946 0.285871 0.941070 0.152910
H62   H     H_    0.011605 0.714043 0.059546 0.152612
H63   H     H_    0.512054 0.785871 0.558929 0.152910
H64   H     H_    0.488395 0.214042 0.440454 0.152612

loop_
_geom_bond_atom_site_label_1
_geom_bond_atom_site_label_2
_ccdc_geom_bond_type
C44   C56   S    
C69   H44   S    
C61   H2    S    
O1    C5    A    
C62   H6    S    
C31   C35   S    
O19   V1    S    
C66   H22   S    
O13   V1    S    
C38   C53   S    
O3    C7    A    
C65   H18   S    
C1    C48   S    
C56   C60   S    
O15   V3    S    
C72   H54   S    
C3    C46   S    
C67   H26   S    
N1    H1    S    
C44   C51   S    
O7    C3    A    
C64   H15   S    
C26   C30   A    
C7    C18   S    
C12   N4    S    
C40   C44   S    
O9    V1    S    
N10   C70   S    
C14   C18   A    
C25   H37   S    
C70   H47   S    
C30   C34   S    
O4    C8    A    
C67   H27   S    
C22   H34   S    
N6    H21   S    
O1    V3    S    
O2    V4    S    
C18   C22   A    
O3    V1    S    
C9    N1    S    
C10   N2    S    
C50   H61   S    
N5    C65   S    
N3    C63   S    
C1    O15   A    
N10   H45   S    
C2    O16   A    
N6    C66   S    
O2    C6    A    
N12   C72   S    
O14   V2    S    
C21   C25   A    
N11   C71   S    
C44   N12   S    
C16   C20   A    
C13   N5    S    
C68   H32   S    
C23   H35   S    
C2    C47   S    
O11   C7    A    
C35   C36   T    
C62   H7    S    
C71   H52   S    
C8    C17   S    
O10   V2    S    
C39   H59   S    
C72   H55   S    
N3    H9    S    
C47   C59   T    
C39   C56   S    
N1    C61   S    
C9    C29   A    
C42   C54   S    
C64   H16   S    
C39   C43   S    
C71   H50   S    
C41   C53   S    
C38   C42   S    
C11   C31   A    
O8    V4    S    
C12   C16   A    
O7    V3    S    
C65   H19   S    
N5    H17   S    
C70   H48   S    
N2    H5    S    
C29   C33   S    
O18   V4    S    
C67   H28   S    
C15   C19   A    
C27   C31   A    
C37   C49   S    
C42   C49   S    
C9    C13   A    
C41   C50   S    
C32   C36   S    
N9    C69   S    
C52   H63   S    
C11   C15   A    
N8    C68   S    
O5    C1    A    
C12   C32   A    
C37   C41   S    
N2    C62   S    
C5    C20   S    
C41   N9    S    
C54   C58   S    
N12   H53   S    
C53   C57   S    
C37   C54   S    
O8    C4    A    
C40   C52   S    
O9    C5    A    
N4    C64   S    
C71   H51   S    
N7    H25   S    
C48   C60   T    
C42   N10   S    
C38   H58   S    
C4    C45   S    
C10   C30   A    
C62   H8    S    
C61   H3    S    
C40   C55   S    
C66   H24   S    
C51   C55   S    
N8    H29   S    
O5    V1    S    
C51   H64   S    
C72   H56   S    
C68   H30   S    
O16   V4    S    
C69   H43   S    
C3    O13   A    
C49   C53   S    
O6    V2    S    
C10   C14   A    
O17   V3    S    
C24   H36   S    
C52   C56   S    
C6    C19   S    
O6    C2    A    
C23   C27   A    
C26   H38   S    
O11   V3    S    
O12   V4    S    
C64   H14   S    
C22   C26   A    
C21   H33   S    
C15   N7    S    
C63   H10   S    
C43   N11   S    
O10   C6    A    
C66   H23   S    
C69   H42   S    
C49   H62   S    
C40   H60   S    
C11   N3    S    
C70   H46   S    
C55   C59   S    
C14   N6    S    
C16   N8    S    
C33   C34   T    
C39   C51   S    
C25   C29   A    
O20   V2    S    
C28   H40   S    
C65   H20   S    
C37   H57   S    
C13   C17   A    
C46   C58   T    
N7    C67   S    
C45   C57   T    
C28   C32   A    
C24   C28   A    
C63   H12   S    
O12   C8    A    
C50   C54   S    
C61   H4    S    
C4    O14   A    
N4    H13   S    
C17   C21   A    
C38   C50   S    
C43   C52   S    
N11   H49   S    
N9    H41   S    
C19   C23   A    
C63   H11   S    
C43   C55   S    
O4    V2    S    
C20   C24   A    
C68   H31   S    
C27   H39   S    
