data_mof_unit_13410.cif
_audit_creation_date              2012-12-10T19:42:56-0500
_audit_creation_method            fapswitch 2.2
_symmetry_space_group_name_H-M    P1
_symmetry_Int_Tables_number       1
_space_group_crystal_system       triclinic
_cell_length_a                    11.107522
_cell_length_b                    13.181702
_cell_length_c                    11.925404
_cell_angle_alpha                 96.252933
_cell_angle_beta                  95.681025
_cell_angle_gamma                 95.651549
_cell_volume                      1716.58919293

loop_
_atom_site_label
_atom_site_type_symbol
_atom_type_description
_atom_site_fract_x
_atom_site_fract_y
_atom_site_fract_z
_atom_type_partial_charge
C1    C     C_R   0.502429 0.299993 0.481743 0.854483
C2    C     C_R   0.499311 0.700115 0.518433 0.841253
C3    C     C_R   0.870883 0.488139 0.502028 -0.147668
C4    C     C_R   0.127132 0.500880 0.493070 -0.143772
C5    C     C_R   0.953539 0.514333 0.601881 -0.084833
C6    C     C_R   0.044771 0.461970 0.395185 -0.065957
C7    C     C_R   0.507045 0.813842 0.528183 -0.157391
C8    C     C_R   0.518209 0.188609 0.474350 -0.121557
C9    C     C_R   0.532990 0.030567 0.353217 0.221671
C10   C     C_R   0.558966 0.974400 0.650693 0.205773
C11   C     C_R   0.538534 0.137178 0.369686 -0.245409
C12   C     C_R   0.540587 0.868653 0.635567 -0.199634
C13   C     C_R   0.514047 0.131517 0.567766 0.135757
C14   C     C_R   0.481885 0.869569 0.435757 0.195637
C15   C     C_R   0.539621 0.029011 0.556661 -0.006665
C16   C     C_R   0.524890 0.974638 0.446892 -0.001672
C17   C     C_R   0.436791 0.372938 0.026223 0.136277
C18   C     C_R   0.597498 0.617719 0.976090 0.183732
C19   C     C_R   0.431260 0.387996 0.145146 0.253130
C20   C     C_R   0.597365 0.599889 0.855495 0.253916
C21   C     C_R   0.515250 0.559877 0.150605 0.309489
C22   C     C_R   0.457298 0.451765 0.848337 0.353869
C23   C     C_R   0.262213 0.500328 0.497546 0.867058
C24   C     C_R   0.737120 0.495749 0.501372 0.846662
C25   C     C_R   0.536305 0.543008 0.033566 -0.130743
C26   C     C_R   0.480990 0.453511 0.968717 -0.116851
C27   C     C_R   0.130374 0.476663 0.097925 -0.275188
C28   C     C_R   0.829841 0.377876 0.837475 -0.198108
C29   C     C_R   0.116659 0.508529 0.211958 0.295398
C30   C     C_R   0.867545 0.393401 0.730419 0.332771
C31   C     C_R   0.083591 0.433080 0.282450 0.117268
C32   C     C_R   0.916459 0.493063 0.713654 0.047100
C33   C     C_R   0.054651 0.330273 0.235175 -0.235724
C34   C     C_R   0.938099 0.570359 0.804877 -0.191289
C35   C     C_R   0.054043 0.301300 0.118542 0.311705
C36   C     C_R   0.911490 0.552203 0.913470 0.339883
C37   C     C_R   0.096102 0.374934 0.050943 -0.150006
C38   C     C_R   0.852380 0.456369 0.927944 -0.249571
C39   C     C_R   0.917597 0.456860 0.399503 0.181929
C40   C     C_R   0.079001 0.536107 0.593034 0.209170
Cu1   Cu    Cu3+1 0.509250 0.507730 0.615930 1.031095
Cu2   Cu    Cu3+1 0.490750 0.492270 0.384070 1.009400
H1    H     H_    0.104330 0.353469 0.962308 0.184253
H2    H     H_    0.825626 0.441751 0.010080 0.138593
H3    H     H_    0.162606 0.531585 0.043571 0.173855
H4    H     H_    0.786123 0.304868 0.853344 0.163057
H5    H     H_    0.027069 0.273107 0.289148 0.157629
H6    H     H_    0.974303 0.645942 0.789574 0.174826
H7    H     H_    0.550123 0.830105 0.710153 0.218349
H8    H     H_    0.549893 0.178509 0.297500 0.188670
N1    N     N_R   0.523180 0.519350 0.790130 -0.236237
N2    N     N_R   0.476820 0.480650 0.209870 -0.234853
O1    O     O_R   0.506570 0.354460 0.582000 -0.548986
O2    O     O_R   0.493430 0.645540 0.418000 -0.549780
O3    O     O_R   0.490940 0.341410 0.386200 -0.583495
O4    O     O_R   0.509060 0.658590 0.613800 -0.571561
O5    O     O_R   0.327460 0.506540 0.597900 -0.528307
O6    O     O_R   0.672540 0.493460 0.402100 -0.560811
O7    O     O_R   0.311830 0.493480 0.402100 -0.557124
O8    O     O_R   0.688170 0.506520 0.597900 -0.564646
I1    I     I_    0.275587 0.389946 0.783550 -0.357917
I2    I     I_    0.432788 0.693759 0.180447 -0.313999
I3    I     I_    0.717885 0.705124 0.784215 -0.375040
I4    I     I_    0.325882 0.262121 0.203898 -0.359789
N3    N     N_2   0.411958 0.272768 0.966034 -0.394462
H9    H     H_    0.325240 0.237500 0.967750 0.303717
C41   C     C_3   0.507294 0.207680 0.986621 -0.524905
H10   H     H_    0.589286 0.236332 0.948292 0.233017
H11   H     H_    0.474522 0.128054 0.948706 0.279756
H12   H     H_    0.532642 0.206071 0.078748 0.213555
N4    N     N_2   0.655428 0.712372 0.037293 -0.386893
H13   H     H_    0.654861 0.779323 0.000133 0.304679
C42   C     C_3   0.739426 0.712969 0.138544 -0.563083
H14   H     H_    0.826738 0.757937 0.129286 0.238036
H15   H     H_    0.756002 0.634018 0.155288 0.200894
H16   H     H_    0.702614 0.751699 0.212909 0.248117
N5    N     N_2   0.137324 0.615488 0.253716 -0.394487
H17   H     H_    0.176462 0.660144 0.198626 0.291428
C43   C     C_3   0.039764 0.663212 0.304282 -0.669424
H18   H     H_    0.060398 0.675063 0.397941 0.256584
H19   H     H_    0.950289 0.617198 0.280359 0.201785
H20   H     H_    0.031744 0.739819 0.275592 0.234686
N6    N     N_2   0.859460 0.311708 0.639233 -0.456818
H21   H     H_    0.932006 0.313110 0.591510 0.261160
C44   C     C_3   0.810170 0.209473 0.654216 -0.667510
H22   H     H_    0.799330 0.159981 0.571525 0.235231
H23   H     H_    0.719425 0.211949 0.684186 0.261709
H24   H     H_    0.872425 0.176216 0.715220 0.248906
N7    N     N_2   0.026713 0.195832 0.073720 -0.409332
H25   H     H_    0.014275 0.146027 0.133655 0.268911
C45   C     C_3   0.936362 0.173589 0.976172 -0.646145
H26   H     H_    0.848299 0.199157 0.998082 0.224301
H27   H     H_    0.923015 0.089538 0.949377 0.263440
H28   H     H_    0.967175 0.211509 0.903985 0.234482
N8    N     N_2   0.938728 0.630115 0.007769 -0.431349
H29   H     H_    0.941319 0.603256 0.085470 0.251404
C46   C     C_3   0.026957 0.717563 0.001303 -0.667338
H30   H     H_    0.044625 0.765734 0.084606 0.235695
H31   H     H_    0.990578 0.766833 0.939165 0.257548
H32   H     H_    0.114262 0.691662 0.977753 0.225567
N9    N     N_2   0.836313 0.421278 0.298680 -0.409654
H33   H     H_    0.857951 0.444456 0.222669 0.234025
C47   C     C_3   0.772000 0.319164 0.290774 -0.635857
H34   H     H_    0.811973 0.265008 0.230982 0.209925
H35   H     H_    0.676100 0.321829 0.256453 0.243942
H36   H     H_    0.773997 0.289965 0.374906 0.223754
N10   N     N_2   0.158350 0.595628 0.683181 -0.406748
H37   H     H_    0.152579 0.579215 0.764839 0.267402
C48   C     C_3   0.182497 0.703434 0.670781 -0.619980
H38   H     H_    0.097577 0.741242 0.673451 0.221535
H39   H     H_    0.219947 0.713021 0.589062 0.236650
H40   H     H_    0.250869 0.741342 0.740898 0.240219
I5    I     I_    0.293492 0.851806 0.377034 -0.339680
I6    I     I_    0.399200 0.166761 0.692580 -0.291658
I7    I     I_    0.549497 0.964635 0.186603 -0.335609
I8    I     I_    0.649076 0.037468 0.811573 -0.470204

loop_
_geom_bond_atom_site_label_1
_geom_bond_atom_site_label_2
_ccdc_geom_bond_type
N9    H33   S    
C27   C29   A    
C1    C8    S    
C42   H15   S    
Cu1   Cu2   S    
C2    C7    S    
Cu2   O6    S    
C46   H30   S    
N5    H17   S    
C23   O7    A    
C28   H4    S    
C8    C13   A    
C17   C26   A    
C35   C37   A    
C9    C16   A    
C20   N1    A    
C10   C15   A    
C48   H39   S    
C15   C16   A    
C42   H14   S    
C30   N6    S    
C1    O1    A    
C33   C35   A    
C19   N2    A    
C7    C14   A    
C4    C40   A    
N3    C41   S    
N10   H37   S    
C31   C33   A    
N7    C45   S    
C18   C20   A    
C13   I6    S    
C5    C32   S    
C27   H3    S    
N5    C43   S    
C6    C31   S    
C3    C39   A    
N9    C47   S    
N10   C48   S    
C3    C24   S    
C18   C25   A    
C46   H31   S    
C39   N9    S    
C44   H23   S    
C7    C12   A    
C12   H7    S    
C41   H10   S    
C9    I7    S    
C4    C6    A    
C2    O2    A    
C48   H40   S    
C45   H26   S    
N4    C42   S    
C4    C23   S    
C25   C26   A    
C44   H22   S    
C41   H11   S    
C32   C34   A    
C37   H1    S    
Cu1   O4    S    
C38   H2    S    
Cu2   O3    S    
C45   H27   S    
N6    H21   S    
C28   C38   A    
C19   I4    S    
C24   O8    A    
C47   H35   S    
C9    C11   A    
Cu1   O1    S    
C21   I2    S    
C10   C12   A    
C40   N10   S    
C35   N7    S    
N6    C44   S    
C13   C15   A    
C33   H5    S    
C42   H16   S    
C14   C16   A    
C34   H6    S    
C47   H34   S    
C46   H32   S    
C10   I8    S    
C43   H19   S    
C44   H24   S    
C18   N4    S    
C23   O5    A    
C21   C25   A    
Cu1   O8    S    
C3    C5    A    
Cu2   O7    S    
C43   H20   S    
N8    C46   S    
C14   I5    S    
C17   N3    S    
C41   H12   S    
C20   I3    S    
C36   C38   A    
C1    O3    A    
Cu1   O5    S    
N4    H13   S    
C29   C31   A    
C11   H8    S    
C2    O4    A    
C48   H38   S    
Cu2   O2    S    
C45   H28   S    
C30   C32   A    
C36   N8    S    
C27   C37   A    
C8    C11   A    
C28   C30   A    
C17   C19   A    
C47   H36   S    
C34   C36   A    
C43   H18   S    
C29   N5    S    
C24   O6    A    
N3    H9    S    
C22   C26   A    
C5    C40   A    
N8    H29   S    
C6    C39   A    
N7    H25   S    
Cu1   N1    S    
C21   N2    A    
Cu2   N2    S    
C22   N1    A    
C22   I1    S    
