data_mof_unit_62010.cif
_audit_creation_date              2013-03-05T15:40:17-0500
_audit_creation_method            fapswitch 2.2
_symmetry_space_group_name_H-M    P1
_symmetry_Int_Tables_number       1
_space_group_crystal_system       triclinic
_cell_length_a                    19.081554
_cell_length_b                    18.6368
_cell_length_c                    19.045765
_cell_angle_alpha                 109.487268
_cell_angle_beta                  110.407916
_cell_angle_gamma                 109.570867
_cell_volume                      5144.75189451

loop_
_atom_site_label
_atom_site_type_symbol
_atom_site_description
_atom_site_fract_x
_atom_site_fract_y
_atom_site_fract_z
_atom_type_partial_charge
O1    O     O_R   0.409870 0.358470 0.449260 -0.575667
O2    O     O_R   0.409230 0.460600 0.550770 -0.638062
C1    C     C_R   0.383276 0.379244 0.501108 0.833344
O3    O     O_R   0.591360 0.448940 0.540280 -0.623194
O4    O     O_R   0.590720 0.551070 0.641790 -0.626346
C2    C     C_R   0.619312 0.500300 0.619556 0.866951
Zn1   Zn    Zn3+2 0.500430 0.431810 0.432220 0.997148
Zn2   Zn    Zn3+2 0.499570 0.568190 0.567780 0.952779
O5    O     O_R   0.590770 0.539400 0.449230 -0.615252
O6    O     O_R   0.590130 0.641530 0.550740 -0.630442
O7    O     O_R   0.409280 0.448930 0.358210 -0.616487
O8    O     O_R   0.408640 0.551060 0.459720 -0.615643
C3    C     C_R   0.616863 0.620286 0.498919 0.922787
C4    C     C_R   0.378107 0.497362 0.379634 0.940367
H1    H     H_    0.529251 0.194759 0.549429 0.162329
C5    C     C_R   0.775131 0.664337 0.761035 -0.148091
C6    C     C_R   0.843840 0.744187 0.835873 -0.143795
C7    C     C_R   0.897802 0.744072 0.906989 -0.138639
C8    C     C_R   0.886062 0.664099 0.901554 -0.145939
C9    C     C_R   0.819415 0.582068 0.823968 0.075079
C10   C     C_R   0.759154 0.582202 0.756172 0.077046
C11   C     C_R   0.811716 0.500153 0.812137 -0.202871
C12   C     C_R   0.740709 0.418369 0.737949 0.074335
C13   C     C_R   0.672565 0.418603 0.678358 0.064845
C14   C     C_R   0.684535 0.500435 0.685776 -0.200967
C15   C     C_R   0.735558 0.336104 0.721769 -0.143582
C16   C     C_R   0.660157 0.256336 0.653787 -0.150303
C17   C     C_R   0.588783 0.256670 0.600724 -0.120581
C18   C     C_R   0.594490 0.336733 0.612504 -0.133346
H2    H     H_    0.735567 0.668258 0.707421 0.149017
H3    H     H_    0.854399 0.806295 0.839090 0.138477
H4    H     H_    0.949706 0.806089 0.966126 0.144649
H5    H     H_    0.929413 0.667817 0.959039 0.150802
H6    H     H_    0.789394 0.332057 0.760614 0.150590
H7    H     H_    0.656735 0.194141 0.643108 0.143115
H8    H     H_    0.536898 0.333297 0.569812 0.156356
C19   C     C_2   0.262747 0.252999 0.580342 -0.106576
C20   C     C_2   0.182010 0.198591 0.511208 -0.253292
H9    H     H_    0.282866 0.246844 0.637831 0.166634
H10   H     H_    0.160546 0.211650 0.458332 0.168967
C21   C     C_2   0.324563 0.323256 0.578159 -0.301729
C22   C     C_2   0.327824 0.307360 0.505359 0.145814
H11   H     H_    0.366119 0.388867 0.636015 0.160809
C23   C     C_2   0.173958 0.493232 0.249410 -0.151976
C24   C     C_2   0.185573 0.510309 0.190200 -0.332558
H12   H     H_    0.112368 0.474800 0.246866 0.164631
H13   H     H_    0.249711 0.538410 0.198300 0.158126
C25   C     C_2   0.246659 0.504769 0.322122 -0.145542
C26   C     C_2   0.306188 0.488493 0.310655 -0.327094
H14   H     H_    0.249180 0.522978 0.383779 0.166153
H15   H     H_    0.298234 0.460608 0.246483 0.157744
C27   C     C_2   0.738625 0.748663 0.423099 -0.154552
C28   C     C_2   0.817169 0.807386 0.494735 -0.333918
H16   H     H_    0.721178 0.751154 0.363578 0.167793
H17   H     H_    0.837978 0.798919 0.550809 0.157650
C29   C     C_2   0.676943 0.676377 0.422974 -0.149505
C30   C     C_2   0.675535 0.689982 0.495848 -0.335104
H18   H     H_    0.631236 0.613045 0.362649 0.165898
H19   H     H_    0.714099 0.755806 0.553287 0.154467
O9    O     O_R   0.946350 0.358500 0.906960 -0.629827
O10   O     O_R   0.048480 0.460610 0.906920 -0.612455
C31   C     C_R   0.994043 0.379690 0.876095 0.929024
O11   O     O_R   0.854760 0.448970 0.905840 -0.622365
O12   O     O_R   0.956890 0.551080 0.905790 -0.626685
C32   C     C_R   0.877527 0.499971 0.877518 0.872664
Zn3   Zn    Zn3+2 0.928680 0.431850 0.996880 0.955040
Zn4   Zn    Zn3+2 0.065060 0.568210 0.996820 0.961690
O13   O     O_R   0.945260 0.539450 0.086770 -0.615522
O14   O     O_R   0.047380 0.641560 0.086730 -0.626926
O15   O     O_R   0.036850 0.448980 0.087900 -0.618207
O16   O     O_R   0.138970 0.551100 0.087860 -0.619666
C33   C     C_R   0.999712 0.620347 0.117587 0.921235
C34   C     C_R   0.117016 0.502314 0.118630 0.936230
O17   O     O_R   0.050830 0.090460 0.641300 -0.627861
O18   O     O_R   0.948030 0.090450 0.538510 -0.617439
C35   C     C_R   0.001695 0.121067 0.618793 0.923129
O19   O     O_R   0.141850 0.090470 0.551380 -0.608799
O20   O     O_R   0.039050 0.090460 0.448590 -0.625898
C36   C     C_R   0.118702 0.123022 0.503807 0.934865
Zn5   Zn    Zn3+2 0.068640 0.000010 0.568630 0.966469
Zn6   Zn    Zn3+2 0.931360 0.999990 0.431370 0.963289
O21   O     O_R   0.051970 0.909550 0.461490 -0.610943
O22   O     O_R   0.949170 0.909540 0.358700 -0.623572
O23   O     O_R   0.960950 0.909540 0.551410 -0.626997
O24   O     O_R   0.858150 0.909530 0.448620 -0.616092
C37   C     C_R   0.998355 0.879052 0.381169 0.946974
C38   C     C_R   0.881146 0.878972 0.498266 0.928874
C39   C     C_2   0.989423 0.251094 0.673253 -0.155193
C40   C     C_2   0.009512 0.192919 0.686819 -0.332941
H20   H     H_    0.969539 0.248084 0.611003 0.168027
H21   H     H_    0.038654 0.201831 0.751594 0.159739
C41   C     C_2   0.999285 0.323318 0.744805 -0.154293
C42   C     C_2   0.983463 0.309883 0.803724 -0.342880
H22   H     H_    0.016965 0.386437 0.747581 0.168234
H23   H     H_    0.956186 0.244187 0.795430 0.158656
C43   C     C_2   0.011388 0.749563 0.324982 -0.154584
C44   C     C_2   0.990421 0.807676 0.312619 -0.321220
H24   H     H_    0.032999 0.752492 0.387252 0.167365
H25   H     H_    0.959597 0.798715 0.247973 0.158875
C45   C     C_2   0.999539 0.677180 0.251784 -0.151170
C46   C     C_2   0.011404 0.690068 0.190851 -0.326963
H26   H     H_    0.983625 0.614357 0.249335 0.163489
H27   H     H_    0.037330 0.755528 0.198488 0.162164
N1    N     N_R   0.286960 0.218225 0.434714 0.215893
O25   O     O_R   0.250326 0.200267 0.354467 -0.387306
O26   O     O_R   0.296473 0.158321 0.450655 -0.379768

loop_
_geom_bond_atom_site_label_1
_geom_bond_atom_site_label_2
_geom_bond_distance
_ccdc_geom_bond_type
Zn3   O13   1.989742 S    
O11   C32   1.269654 A    
C1    C22   1.450306 S    
C5    C10   1.420480 A    
C21   C22   1.346301 D    
C8    C9    1.420466 A    
O23   C38   1.275576 A    
Zn5   O23   2.003217 S    
N1    O26   1.301913 A    
C23   C24   1.337379 D    
Zn1   O7    2.018878 S    
C18   H8    1.080681 S    
C15   C16   1.392894 A    
O17   C35   1.276436 A    
C24   C34   1.442874 S    
C17   C18   1.392594 A    
O4    C2    1.269610 A    
O7    C4    1.272117 A    
C30   H19   1.087014 S    
C4    C26   1.443029 S    
C3    C30   1.437392 S    
C20   C36   1.439338 S    
C5    H2    1.080317 S    
C29   C30   1.336846 D    
O9    C31   1.271582 A    
C7    C8    1.392659 A    
C12   C15   1.420510 A    
C37   C44   1.437179 S    
O5    C3    1.277759 A    
C13   C18   1.420505 A    
C41   C42   1.336456 D    
Zn6   O22   2.006957 S    
C15   H6    1.080484 S    
C39   C41   1.460115 S    
C27   H16   1.086436 S    
C5    C6    1.392679 A    
C26   H15   1.086686 S    
C43   H24   1.086388 S    
C12   C13   1.398862 A    
C40   H21   1.087082 S    
O13   C33   1.277476 A    
C35   C40   1.438013 S    
C24   H13   1.086706 S    
O11   Zn3   2.015638 S    
O9    Zn3   2.016157 S    
C42   H23   1.087030 S    
O17   Zn5   2.006958 S    
C21   H11   1.086394 S    
O3    Zn1   2.012038 S    
C41   H22   1.086552 S    
N1    O25   1.301328 A    
C44   H25   1.087060 S    
C23   H12   1.086396 S    
C28   H17   1.087115 S    
O24   C38   1.283843 A    
O12   Zn4   2.015355 S    
C13   C14   1.413634 A    
O3    C2    1.269840 A    
C8    H5    1.080340 S    
O16   C34   1.271671 A    
O20   C36   1.275085 A    
O18   Zn6   2.000023 S    
C16   H7    1.082553 S    
O21   C37   1.284039 A    
O1    C1    1.268287 A    
O14   C33   1.271180 A    
O18   C35   1.283220 A    
C11   C32   1.429230 S    
C19   C20   1.335402 D    
O10   Zn4   1.989830 S    
Zn2   O8    2.012038 S    
C43   C44   1.335371 D    
O15   C34   1.280369 A    
C45   H26   1.086602 S    
C6    C7    1.387657 A    
O19   C36   1.285006 A    
C28   C38   1.437534 S    
C39   C40   1.336211 D    
Zn5   O21   2.000023 S    
C25   C26   1.337774 D    
C9    C11   1.414258 A    
C6    H3    1.082568 S    
C7    H4    1.082567 S    
C27   C28   1.335766 D    
O19   Zn5   2.003363 S    
Zn1   O5    1.989609 S    
C10   C14   1.413856 A    
O1    Zn1   2.016020 S    
Zn2   O6    2.016017 S    
O2    Zn2   1.989609 S    
C39   H20   1.086465 S    
O6    C3    1.271525 A    
C22   N1    1.444710 S    
O4    Zn2   2.018878 S    
O12   C32   1.270150 A    
O2    C1    1.285390 A    
O8    C4    1.280106 A    
C19   H9    1.086083 S    
C20   H10   1.088021 S    
O20   Zn6   2.003217 S    
H1    C17   1.082595 S    
Zn3   O15   2.015269 S    
C43   C45   1.461349 S    
C25   H14   1.086392 S    
C45   C46   1.337341 D    
C29   H18   1.086543 S    
Zn4   O16   2.015426 S    
C19   C21   1.464002 S    
O10   C31   1.277697 A    
C2    C14   1.428522 S    
C23   C25   1.466367 S    
O22   C37   1.275225 A    
C9    C10   1.399313 A    
C46   H27   1.086884 S    
C33   C46   1.436741 S    
C31   C42   1.437614 S    
C16   C17   1.387890 A    
C11   C12   1.414169 A    
Zn4   O14   2.016158 S    
Zn6   O24   2.003364 S    
C27   C29   1.460764 S    
