data_mof_unit_54078.cif
_audit_creation_date              2012-12-11T15:35:39-0500
_audit_creation_method            fapswitch 2.2
_symmetry_space_group_name_H-M    P1
_symmetry_Int_Tables_number       1
_space_group_crystal_system       triclinic
_cell_length_a                    17.533175
_cell_length_b                    24.451065
_cell_length_c                    14.791831
_cell_angle_alpha                 89.952968
_cell_angle_beta                  124.482907
_cell_angle_gamma                 89.989841
_cell_volume                      5227.12322787

loop_
_atom_site_label
_atom_site_type_symbol
_atom_type_description
_atom_site_fract_x
_atom_site_fract_y
_atom_site_fract_z
_atom_type_partial_charge
C1    C     C_R   0.311336 0.124858 0.910716 -0.050305
C2    C     C_R   0.559099 0.151865 0.909835 -0.120260
C3    C     C_R   0.267756 0.545937 0.268801 0.037789
C4    C     C_R   0.062830 0.349614 0.908836 -0.125249
C5    C     C_R   0.063232 0.650168 0.908541 -0.122583
C6    C     C_R   0.556960 0.999981 0.732478 0.097971
C7    C     C_R   0.922483 0.499718 0.626775 0.056098
C8    C     C_R   0.822289 0.999357 0.306706 0.149473
C9    C     C_R   0.321996 0.499386 0.310428 0.147073
C10   C     C_R   0.617852 0.182151 0.001561 0.049650
C11   C     C_R   0.617132 0.817567 0.001990 0.060508
C12   C     C_R   0.124227 0.680329 0.000176 0.033071
C13   C     C_R   0.311247 0.875349 0.910708 -0.052727
C14   C     C_R   0.123380 0.319309 0.000613 0.040122
C15   C     C_3   0.056324 0.941631 0.538001 -0.550057
C16   C     C_3   0.044938 0.040092 0.577094 -0.461298
C17   C     C_3   0.557081 0.441637 0.538104 -0.543863
C18   C     C_3   0.545986 0.539794 0.579182 -0.462032
C19   C     C_3   0.951426 0.942175 0.458690 0.329640
C20   C     C_3   0.945887 0.047778 0.478260 0.356128
C21   C     C_3   0.452098 0.442167 0.460428 0.324897
C22   C     C_3   0.446630 0.547711 0.481190 0.352716
C23   C     C_3   0.083911 0.015668 0.437812 0.670606
C24   C     C_R   0.813633 0.628153 0.908749 -0.026611
C25   C     C_3   0.582419 0.516538 0.437345 0.676706
C26   C     C_3   0.097310 0.999672 0.548704 -0.135521
C27   C     C_3   0.597629 0.499823 0.548891 -0.141879
C28   C     C_3   0.920677 0.999106 0.395488 -0.352901
C29   C     C_3   0.420555 0.499231 0.397875 -0.351757
C30   C     C_R   0.404383 0.876326 0.095403 -0.094299
C31   C     C_R   0.404560 0.123867 0.095429 -0.098970
C32   C     C_R   0.907990 0.369324 0.093384 -0.102060
C33   C     C_R   0.908363 0.631074 0.093359 -0.105685
C34   C     C_3   0.977628 0.007818 0.342128 0.569508
C35   C     C_R   0.813422 0.372185 0.908773 -0.028208
C36   C     C_3   0.476010 0.508388 0.342792 0.562139
C37   C     C_R   0.164105 0.822595 0.941697 0.395546
C38   C     C_R   0.164155 0.177333 0.942194 0.395095
C39   C     C_R   0.667745 0.320933 0.944452 0.400907
C40   C     C_R   0.668202 0.679076 0.945477 0.398586
C41   C     C_R   0.616228 0.277369 0.943873 0.418565
C42   C     C_R   0.616386 0.722390 0.945164 0.419468
C43   C     C_R   0.115407 0.776438 0.938127 0.407595
C44   C     C_R   0.115143 0.223281 0.938872 0.409711
C45   C     C_R   0.663770 0.230571 0.005172 -0.077250
C46   C     C_R   0.645396 0.151041 0.091854 0.412827
C47   C     C_R   0.663538 0.769323 0.005823 -0.062112
C48   C     C_R   0.165897 0.731288 0.004424 -0.080802
C49   C     C_R   0.165340 0.268394 0.005193 -0.064272
C50   C     C_R   0.759839 0.226932 0.067743 -0.067675
C51   C     C_R   0.759554 0.773342 0.067527 -0.089422
C52   C     C_R   0.261734 0.732741 0.076882 -0.076585
C53   C     C_R   0.261212 0.267060 0.077547 -0.094749
C54   C     C_R   0.308987 0.777813 0.081362 -0.157543
C55   C     C_R   0.308775 0.222223 0.081617 -0.164168
C56   C     C_R   0.809971 0.269202 0.068132 -0.144687
C57   C     C_R   0.644868 0.848773 0.092081 0.395444
C58   C     C_R   0.809965 0.731334 0.067505 -0.152976
C59   C     C_R   0.261276 0.822046 0.012078 -0.118653
C60   C     C_R   0.261320 0.178077 0.012204 -0.106538
C61   C     C_R   0.764557 0.315672 0.006150 -0.128211
C62   C     C_R   0.764875 0.684752 0.006105 -0.115980
C63   C     C_R   0.621142 0.950602 0.640783 0.455333
C64   C     C_R   0.621210 0.049271 0.640669 0.461109
C65   C     C_R   0.880834 0.449993 0.458999 0.485021
C66   C     C_R   0.878684 0.548598 0.457336 0.477285
C67   C     C_R   0.609707 0.950626 0.539830 -0.163705
C68   C     C_R   0.148345 0.650363 0.091233 0.421407
C69   C     C_R   0.609875 0.049229 0.539767 -0.184012
C70   C     C_R   0.915826 0.450148 0.395529 -0.230792
C71   C     C_R   0.913776 0.548901 0.393893 -0.241058
C72   C     C_R   0.593800 0.999934 0.483368 0.012710
C73   C     C_R   0.942091 0.499685 0.373175 0.000081
C74   C     C_R   0.545327 0.045206 0.303143 -0.084206
C75   C     C_R   0.545339 0.954735 0.303188 -0.076123
C76   C     C_R   0.007264 0.545338 0.277691 -0.067655
C77   C     C_R   0.007650 0.454544 0.277921 -0.053116
C78   C     C_R   0.609000 0.999950 0.680748 -0.125096
C79   C     C_R   0.147695 0.349399 0.091450 0.402550
C80   C     C_R   0.880621 0.499350 0.507965 -0.055360
C81   C     C_R   0.244834 0.954080 0.699196 -0.102486
C82   C     C_R   0.244028 0.045813 0.699117 -0.093561
C83   C     C_R   0.745391 0.454167 0.698594 -0.106185
C84   C     C_R   0.744563 0.545834 0.698653 -0.098761
C85   C     C_R   0.317660 0.138002 0.005931 0.152820
C86   C     C_R   0.317445 0.862284 0.005895 0.152180
C87   C     C_R   0.822096 0.644984 0.002875 0.145877
C88   C     C_R   0.821652 0.355547 0.002907 0.144393
C89   C     C_R   0.559284 0.999952 0.366893 0.130315
C90   C     C_R   0.558786 0.847984 0.910130 -0.126783
C91   C     C_R   0.987721 0.499878 0.316390 0.116772
C92   C     C_R   0.194785 0.999845 0.641597 0.242689
C93   C     C_R   0.695541 0.499935 0.640689 0.245166
C94   C     C_R   0.521394 0.045411 0.753981 -0.050553
C95   C     C_R   0.521364 0.954571 0.753995 -0.058245
C96   C     C_R   0.945925 0.545027 0.693874 -0.067641
C97   C     C_R   0.946329 0.454684 0.694439 -0.068650
C98   C     C_R   0.767319 0.953485 0.263022 0.040687
C99   C     C_R   0.767906 0.045914 0.265817 0.036181
C100  C     C_R   0.267272 0.453469 0.265791 0.039871
Cl1   Cl    Cl    0.159787 0.975466 0.418080 -0.482076
Cl2   Cl    Cl    0.104772 0.119568 0.860342 -0.480428
Cl3   Cl    Cl    0.611976 0.381357 0.870248 -0.456939
Cl4   Cl    Cl    0.613056 0.618388 0.872474 -0.482846
Cl5   Cl    Cl    0.494422 0.281672 0.869247 -0.476259
Cl6   Cl    Cl    0.494706 0.717655 0.871631 -0.499368
Cl7   Cl    Cl    0.993199 0.775918 0.853810 -0.463745
Cl8   Cl    Cl    0.992931 0.223625 0.854810 -0.482340
Cl9   Cl    Cl    0.657133 0.889114 0.716321 -0.549810
Cl10  Cl    Cl    0.657139 0.110738 0.715989 -0.565238
Cl11  Cl    Cl    0.834370 0.388259 0.469293 -0.526932
Cl12  Cl    Cl    0.123048 0.085058 0.446184 -0.525777
Cl13  Cl    Cl    0.829315 0.609432 0.465790 -0.501341
Cl14  Cl    Cl    0.686074 0.178015 0.221789 -0.593433
Cl15  Cl    Cl    0.685096 0.821850 0.222137 -0.606027
Cl16  Cl    Cl    0.187954 0.678758 0.219907 -0.608300
Cl17  Cl    Cl    0.186494 0.321023 0.220094 -0.619043
Cl18  Cl    Cl    0.657113 0.477288 0.414799 -0.463184
Cl19  Cl    Cl    0.620378 0.586225 0.446002 -0.484593
Cl20  Cl    Cl    0.958422 0.950539 0.254080 -0.508614
Cl21  Cl    Cl    0.934003 0.064697 0.246774 -0.500661
Cl22  Cl    Cl    0.456175 0.451232 0.254140 -0.505668
Cl23  Cl    Cl    0.431301 0.565291 0.247447 -0.505336
Cl24  Cl    Cl    0.104267 0.880336 0.859568 -0.454360
H1    H     H_    0.254887 0.133625 0.827219 0.135805
H2    H     H_    0.946472 0.085609 0.436925 0.137807
H3    H     H_    0.435133 0.408860 0.401115 0.099684
H4    H     H_    0.446935 0.585626 0.439871 0.137956
H5    H     H_    0.796252 0.190217 0.113124 0.191457
H6    H     H_    0.795641 0.810163 0.112449 0.175246
H7    H     H_    0.300929 0.697755 0.127173 0.196057
H8    H     H_    0.300202 0.302013 0.127901 0.178457
H9    H     H_    0.383879 0.776170 0.134104 0.182874
H10   H     H_    0.383661 0.223985 0.134178 0.175013
H11   H     H_    0.884412 0.264428 0.113400 0.185095
H12   H     H_    0.254825 0.866650 0.827192 0.133145
H13   H     H_    0.884311 0.736339 0.112096 0.177640
H14   H     H_    0.432443 0.869319 0.180931 0.122875
H15   H     H_    0.432691 0.130868 0.180951 0.120575
H16   H     H_    0.938237 0.355966 0.176395 0.123531
H17   H     H_    0.938814 0.644515 0.176323 0.118134
H18   H     H_    0.610771 0.911935 0.505314 0.183176
H19   H     H_    0.611129 0.087904 0.505233 0.168876
H20   H     H_    0.922396 0.411591 0.364816 0.172033
H21   H     H_    0.918763 0.587483 0.361825 0.169509
H22   H     H_    0.563427 0.086996 0.330823 0.118899
H23   H     H_    0.757813 0.636555 0.824737 0.134890
H24   H     H_    0.563388 0.912916 0.330910 0.134659
H25   H     H_    0.012048 0.586965 0.303766 0.106512
H26   H     H_    0.013039 0.412892 0.304270 0.115656
H27   H     H_    0.232462 0.911915 0.672639 0.122884
H28   H     H_    0.230034 0.088032 0.673146 0.154606
H29   H     H_    0.733228 0.412030 0.671876 0.132794
H30   H     H_    0.730732 0.588056 0.672726 0.160858
H31   H     H_    0.528683 0.087820 0.741888 0.161815
H32   H     H_    0.528616 0.912155 0.741963 0.161648
H33   H     H_    0.931584 0.587354 0.670454 0.168607
H34   H     H_    0.757611 0.363879 0.824734 0.133200
H35   H     H_    0.932338 0.412294 0.671942 0.168131
H36   H     H_    0.787367 0.911206 0.276166 0.146450
H37   H     H_    0.789744 0.087906 0.283900 0.185218
H38   H     H_    0.287231 0.411186 0.279619 0.147621
H39   H     H_    0.289445 0.587913 0.287742 0.187537
H40   H     H_    0.519397 0.834064 0.825984 0.172270
H41   H     H_    0.519660 0.165799 0.825639 0.174779
H42   H     H_    0.024790 0.336730 0.824088 0.175221
H43   H     H_    0.025193 0.663033 0.823725 0.174610
H44   H     H_    0.085669 0.911941 0.508372 0.212486
H45   H     H_    0.076416 0.926507 0.619740 0.255582
H46   H     H_    0.077244 0.081248 0.601947 0.203297
H47   H     H_    0.585787 0.412318 0.507076 0.220261
H48   H     H_    0.578290 0.580937 0.604530 0.202926
H49   H     H_    0.903471 0.833144 0.498373 0.362228
H50   H     H_    0.783552 0.136629 0.491284 0.396532
H51   H     H_    0.405901 0.332956 0.500981 0.359323
H52   H     H_    0.287679 0.637220 0.499292 0.396135
H53   H     H_    0.047594 0.023519 0.648721 0.277922
H54   H     H_    0.578136 0.426077 0.619936 0.253846
H55   H     H_    0.549356 0.522760 0.650946 0.278508
H56   H     H_    0.935137 0.908733 0.399854 0.097701
N1    N     N_R   0.392140 0.102630 0.941800 -0.061707
N2    N     N_R   0.525160 0.972040 0.206160 -0.055590
N3    N     N_R   0.025160 0.527960 0.206160 -0.050642
N4    N     N_R   0.025160 0.472040 0.206160 -0.050152
N5    N     N_R   0.317870 0.971120 0.792790 -0.056681
N6    N     N_R   0.317870 0.028880 0.792790 -0.059603
N7    N     N_R   0.817870 0.471120 0.792790 -0.058277
N8    N     N_R   0.817870 0.528880 0.792790 -0.060874
N9    N     N_R   0.473480 0.027920 0.793480 -0.057800
N10   N     N_R   0.473480 0.972080 0.793480 -0.058459
N11   N     N_R   0.973480 0.527920 0.793480 -0.056750
N12   N     N_R   0.392140 0.897370 0.941800 -0.061730
N13   N     N_R   0.973480 0.472080 0.793480 -0.057079
N14   N     N_R   0.681610 0.971120 0.207570 -0.059824
N15   N     N_R   0.681610 0.028880 0.207570 -0.064320
N16   N     N_R   0.181610 0.471120 0.207570 -0.060737
N17   N     N_R   0.181610 0.528880 0.207570 -0.065397
N18   N     N_R   0.605410 0.102620 0.056870 -0.094831
N19   N     N_R   0.605410 0.897380 0.056870 -0.094146
N20   N     N_R   0.105410 0.602620 0.056870 -0.094725
N21   N     N_R   0.105410 0.397380 0.056870 -0.094007
N22   N     N_R   0.549680 0.896430 0.944180 -0.081168
N23   N     N_R   0.892140 0.602630 0.941800 -0.063580
N24   N     N_R   0.549680 0.103570 0.944180 -0.081889
N25   N     N_R   0.049680 0.396430 0.944180 -0.078887
N26   N     N_R   0.049680 0.603570 0.944180 -0.078981
N27   N     N_R   0.892140 0.397370 0.941800 -0.063704
N28   N     N_R   0.450890 0.896450 0.057150 -0.049417
N29   N     N_R   0.450890 0.103550 0.057150 -0.050956
N30   N     N_R   0.950890 0.396450 0.057150 -0.050247
N31   N     N_R   0.950890 0.603550 0.057150 -0.051378
N32   N     N_R   0.525160 0.027960 0.206160 -0.054906
Ni1   Ni    Ni4+2 0.433410 0.064680 0.868830 0.258213
Ni2   Ni    Ni4+2 0.433410 0.935320 0.868830 0.250546
Ni3   Ni    Ni4+2 0.933410 0.564680 0.868830 0.255398
Ni4   Ni    Ni4+2 0.933410 0.435320 0.868830 0.250399
Ni5   Ni    Ni4+2 0.565650 0.934380 0.131170 0.308296
Ni6   Ni    Ni4+2 0.565650 0.065620 0.131170 0.297258
Ni7   Ni    Ni4+2 0.065650 0.434380 0.131170 0.317902
Ni8   Ni    Ni4+2 0.065650 0.565620 0.131170 0.305668
O1    O     O_2   0.934276 0.951894 0.631575 -0.114289
O2    O     O_2   0.288398 0.529034 0.476892 -0.232640
O3    O     O_2   0.422270 0.565776 0.647151 -0.142440
O4    O     O_3   0.332600 0.630094 0.480251 -0.484050
O5    O     O_2   0.795674 0.920614 0.459283 -0.236969
O6    O     O_3   0.932401 0.853827 0.567916 -0.428363
O7    O     O_2   0.786541 0.029118 0.471763 -0.255754
O8    O     O_2   0.919400 0.065787 0.642745 -0.133638
O9    O     O_3   0.830993 0.130168 0.475971 -0.473807
O10   O     O_2   0.437425 0.451466 0.635230 -0.117287
O11   O     O_2   0.297951 0.420255 0.463708 -0.222103
O12   O     O_3   0.435058 0.353516 0.570689 -0.436244
S1    S     S_3+6 0.899537 0.919088 0.529586 0.079870
S2    S     S_3+6 0.869017 0.066123 0.520036 0.051867
S3    S     S_3+6 0.401814 0.418781 0.532887 0.079178
S4    S     S_3+6 0.370799 0.566059 0.524288 0.054777

loop_
_geom_bond_atom_site_label_1
_geom_bond_atom_site_label_2
_ccdc_geom_bond_type
C17   H54   S    
C58   C62   A    
N27   N30   A    
C53   H8    S    
C24   N23   A    
C37   C43   A    
N3    Ni8   S    
C31   C85   A    
C22   C29   S    
C53   C55   A    
C11   C47   S    
N19   Ni5   S    
C12   C48   S    
N23   N31   A    
C25   Cl18  S    
C56   H11   S    
O11   S3    D    
C82   C92   A    
C4    N25   A    
C57   Cl15  S    
N26   Ni3   S    
C23   Cl1   S    
C15   C19   S    
C7    C96   A    
C12   C68   A    
C29   C36   S    
O2    S4    D    
C32   C88   A    
O6    S1    S    
C41   Cl5   S    
C82   N6    A    
C30   H14   S    
N29   Ni6   S    
C97   H35   S    
C96   N11   A    
N23   Ni3   S    
C66   Cl13  S    
C8    C99   A    
C1    H1    S    
C32   H16   S    
H49   O6    S    
C49   C53   A    
C46   N18   A    
C14   C49   S    
C67   H18   S    
C26   C92   S    
C65   C70   A    
C83   C93   A    
N6    Ni1   S    
C99   N15   A    
C77   N4    A    
C40   C62   A    
N5    Ni2   S    
C98   N14   A    
C15   H45   S    
N1    N29   A    
C95   H32   S    
C23   C26   S    
C97   N13   A    
O9    S2    S    
C8    C98   A    
C65   Cl11  S    
C95   N10   A    
N11   Ni3   S    
C5    N26   A    
C99   H37   S    
C81   C92   A    
C84   H30   S    
C51   H6    S    
N4    Ni7   S    
C25   Cl19  S    
N25   Ni4   S    
C4    H42   S    
C94   H31   S    
C79   N21   A    
C13   C86   A    
C10   C46   A    
N19   N22   A    
C21   H3    S    
C76   N3    A    
C7    C97   A    
C43   C48   A    
O8    S2    D    
C3    H39   S    
C42   C47   A    
C44   Cl8   S    
C96   H33   S    
C28   C34   S    
C65   C80   A    
C55   C60   A    
C57   N19   A    
C16   C26   S    
N12   N28   A    
C83   N7    A    
N18   Ni6   S    
C10   C45   S    
C64   Cl10  S    
C19   S1    S    
C81   N5    A    
H50   O9    S    
N8    Ni3   S    
C52   C54   A    
C38   C44   A    
N14   Ni5   S    
C54   C59   A    
C100  N16   A    
C34   Cl20  S    
C39   C61   A    
C63   C67   A    
C18   H48   S    
C46   Cl14  S    
N21   N25   A    
C17   C27   S    
C67   C72   A    
C36   Cl23  S    
C2    N24   A    
N21   Ni7   S    
C5    C12   A    
C39   C41   A    
C71   C73   A    
C1    N1    A    
C15   C26   S    
C47   C51   A    
C20   C28   S    
C6    C94   A    
C64   C69   A    
C54   H9    S    
C21   C29   S    
N24   Ni1   S    
C44   C49   A    
C17   C21   S    
N30   Ni7   S    
C90   H40   S    
C76   C91   A    
C63   Cl9   S    
C69   C72   A    
C36   Cl22  S    
N3    N4    A    
N11   N13   A    
C20   H2    S    
C23   Cl12  S    
C50   H5    S    
C40   Cl4   S    
C37   Cl24  S    
C32   N30   A    
C35   C88   A    
O12   S3    S    
C22   H4    S    
C66   C71   A    
C31   N29   A    
N31   Ni8   S    
C16   C20   S    
C23   C34   S    
C30   N28   A    
C70   C73   A    
N2    N32   A    
O10   S3    D    
N12   Ni2   S    
C51   C58   A    
C43   Cl7   S    
C14   C79   A    
N22   Ni2   S    
C3    C9    A    
C42   Cl6   S    
C2    H41   S    
C73   C91   S    
C37   C59   A    
N9    Ni1   S    
C68   Cl16  S    
C22   S4    S    
C58   H13   S    
C35   N27   A    
C71   H21   S    
C98   H36   S    
C18   H55   S    
C34   Cl21  S    
C20   S2    S    
N10   Ni2   S    
C19   C28   S    
N20   Ni8   S    
C13   H12   S    
C38   C60   A    
C15   H44   S    
C27   C93   S    
C1    C85   A    
C25   C27   S    
C31   H15   S    
N17   Ni8   S    
C30   C86   A    
N16   Ni7   S    
C16   H53   S    
C74   C89   A    
N13   Ni4   S    
N28   Ni5   S    
O7    S2    D    
N7    Ni4   S    
C77   C91   A    
N20   N26   A    
H51   O12   S    
H52   O4    S    
O1    S1    D    
C18   C22   S    
C52   H7    S    
C64   C78   A    
C74   H22   S    
C18   C27   S    
N16   N17   A    
C24   H23   S    
C77   H26   S    
C100  H38   S    
C60   C85   S    
C17   H47   S    
C39   Cl3   S    
C35   H34   S    
C83   H29   S    
C9    C29   S    
C75   H24   S    
C69   H19   S    
C55   H10   S    
C66   C80   A    
C62   C87   S    
C6    C78   S    
C70   H20   S    
C68   N20   A    
C33   H17   S    
O4    S4    S    
C94   N9    A    
O5    S1    D    
N7    N8    A    
C38   Cl2   S    
C4    C14   A    
C81   H27   S    
N18   N24   A    
C72   C89   S    
C33   N31   A    
C11   C90   A    
N5    N6    A    
C21   S3    S    
N32   Ni6   S    
C76   H25   S    
C8    C28   S    
C79   Cl17  S    
C40   C42   A    
N27   Ni4   S    
C3    N17   A    
C9    C100  A    
N14   N15   A    
C13   N12   A    
C84   C93   A    
C5    H43   S    
C33   C87   A    
N9    N10   A    
C24   C87   A    
C50   C56   A    
C59   C86   S    
C84   N8    A    
O3    S4    D    
C75   C89   A    
C25   C36   S    
C16   H46   S    
C48   C52   A    
N2    Ni5   S    
C6    C95   A    
C74   N32   A    
C41   C45   A    
C56   C61   A    
C61   C88   S    
N1    Ni1   S    
C45   C50   A    
C11   C57   A    
C75   N2    A    
C19   H56   S    
N15   Ni6   S    
C82   H28   S    
C7    C80   S    
C90   N22   A    
C63   C78   A    
C2    C10   A    
