data_mof_unit_32213.cif
_audit_creation_date              2012-12-11T16:13:52-0500
_audit_creation_method            fapswitch 2.2
_symmetry_space_group_name_H-M    P1
_symmetry_Int_Tables_number       1
_space_group_crystal_system       triclinic
_cell_length_a                    26.161628
_cell_length_b                    7.248892
_cell_length_c                    23.86192
_cell_angle_alpha                 90.011816
_cell_angle_beta                  101.430064
_cell_angle_gamma                 90.002911
_cell_volume                      4435.49394368

loop_
_atom_site_label
_atom_site_type_symbol
_atom_type_description
_atom_site_fract_x
_atom_site_fract_y
_atom_site_fract_z
_atom_type_partial_charge
O1    O     O_R   0.192370 0.384760 0.193350 -0.541514
O2    O     O_R   0.807630 0.615240 0.806650 -0.540932
O3    O     O_R   0.307630 0.884760 0.306650 -0.541499
O4    O     O_R   0.692370 0.115240 0.693350 -0.541471
O5    O     O_R   0.296630 0.711620 0.196480 -0.501205
O6    O     O_R   0.703370 0.288380 0.803520 -0.500995
O7    O     O_R   0.203370 0.211620 0.303520 -0.501283
O8    O     O_R   0.796630 0.788380 0.696480 -0.501253
C1    C     C_R   0.312610 0.545778 0.184160 0.825526
C2    C     C_R   0.687389 0.454222 0.815839 0.826170
C3    C     C_R   0.187332 0.045801 0.315794 0.825553
C4    C     C_R   0.812562 0.954213 0.684065 0.824120
O9    O     O_R   0.192080 0.714290 0.186600 -0.534578
O10   O     O_R   0.807920 0.285710 0.813400 -0.534722
O11   O     O_R   0.307920 0.214290 0.313400 -0.534621
O12   O     O_R   0.692080 0.785710 0.686600 -0.535191
O13   O     O_R   0.202340 0.887460 0.296690 -0.508570
O14   O     O_R   0.797660 0.112540 0.703310 -0.508352
O15   O     O_R   0.297660 0.387460 0.203310 -0.508683
O16   O     O_R   0.702340 0.612540 0.796690 -0.508410
C5    C     C_R   0.173752 0.545878 0.171433 0.702299
C6    C     C_R   0.826250 0.454122 0.828565 0.702189
C7    C     C_R   0.326286 0.045923 0.328530 0.702250
C8    C     C_R   0.673761 0.954089 0.671425 0.700933
O17   O     O_3   0.253490 0.552180 0.286130 -0.369377
O18   O     O_3   0.746510 0.447820 0.713870 -0.369667
O19   O     O_3   0.246510 0.052180 0.213870 -0.369384
O20   O     O_3   0.753490 0.947820 0.786130 -0.368785
V1    V     V_3+5 0.249350 0.825920 0.243300 1.649833
V2    V     V_3+5 0.750650 0.174080 0.756700 1.648367
V3    V     V_3+5 0.250650 0.325920 0.256700 1.649765
V4    V     V_3+5 0.749350 0.674080 0.743300 1.646715
C9    C     C_3   0.540435 0.938093 0.477834 0.425373
C10   C     C_3   0.460002 0.061978 0.521730 0.426307
C11   C     C_3   0.959812 0.438338 0.022020 0.426582
C12   C     C_3   0.040209 0.561655 0.977954 0.426363
C13   C     C_3   0.509571 0.117628 0.460149 0.224266
C14   C     C_3   0.490870 0.882487 0.539404 0.223770
C15   C     C_3   0.990796 0.617672 0.039656 0.223607
C16   C     C_3   0.009224 0.382321 0.960317 0.223143
C17   C     C_1   0.372027 0.036729 0.374121 -0.138188
C18   C     C_1   0.628161 0.963325 0.625683 -0.139665
C19   C     C_1   0.128116 0.536547 0.125723 -0.138265
C20   C     C_1   0.871892 0.463451 0.874267 -0.139061
C21   C     C_3   0.488686 0.833692 0.475972 0.478683
C22   C     C_3   0.511742 0.166396 0.523586 0.478412
C23   C     C_3   0.011480 0.333589 0.023763 0.478323
C24   C     C_3   0.988540 0.666403 0.976211 0.478166
C25   C     C_3   0.457628 0.013590 0.457983 -0.294198
C26   C     C_3   0.542793 0.986538 0.541564 -0.293768
C27   C     C_3   0.042652 0.513292 0.041705 -0.293795
C28   C     C_3   0.957368 0.486702 0.958269 -0.293802
C29   C     C_1   0.410554 0.027182 0.411957 0.221589
C30   C     C_1   0.589758 0.972916 0.587704 0.221132
C31   C     C_1   0.089676 0.526890 0.087785 0.221666
C32   C     C_1   0.910339 0.473106 0.912197 0.221403
C33   C     C_R   0.876476 0.129298 0.636894 0.511397
C34   C     C_R   0.121334 0.872401 0.360323 0.521327
C35   C     C_R   0.621614 0.627565 0.860655 0.522209
C36   C     C_R   0.378382 0.372440 0.139338 0.522187
C37   C     C_R   0.912125 0.137629 0.600273 0.536673
C38   C     C_R   0.084680 0.864701 0.395796 0.533065
C39   C     C_R   0.585271 0.635480 0.896478 0.531899
C40   C     C_R   0.414721 0.364528 0.103510 0.531978
C41   C     C_R   0.922658 0.981255 0.569381 -0.413466
C42   C     C_R   0.074341 0.020362 0.427100 -0.409194
C43   C     C_R   0.575294 0.480154 0.928159 -0.409607
C44   C     C_R   0.424693 0.519854 0.071826 -0.409650
C45   C     C_R   0.895662 0.815354 0.575514 0.330956
C46   C     C_R   0.102465 0.184570 0.422614 0.318367
C47   C     C_R   0.603420 0.315936 0.923512 0.317194
C48   C     C_R   0.396566 0.684069 0.076476 0.317194
C49   C     C_R   0.861014 0.806360 0.613567 0.522896
C50   C     C_R   0.138666 0.192698 0.386226 0.520886
C51   C     C_R   0.639266 0.307651 0.886734 0.520342
C52   C     C_R   0.360726 0.692351 0.113259 0.520330
C53   C     C_R   0.850293 0.963493 0.644313 -0.483977
C54   C     C_R   0.148926 0.036648 0.354748 -0.480848
C55   C     C_R   0.649216 0.463450 0.855020 -0.480591
C56   C     C_R   0.350781 0.536552 0.144976 -0.480420
N1    N     N_R   0.988090 0.838220 0.520326 -0.235794
N2    N     N_R   0.008636 0.163741 0.475756 -0.216017
N3    N     N_R   0.511898 0.335884 0.979833 -0.227294
N4    N     N_R   0.488084 0.664129 0.020147 -0.227233
N5    N     N_R   0.023395 0.847479 0.487092 -0.237449
N6    N     N_R   0.973248 0.154436 0.508914 -0.209055
N7    N     N_R   0.476891 0.345313 0.013422 -0.234487
N8    N     N_R   0.523091 0.654699 0.986558 -0.234450
C57   C     C_R   0.034567 0.010448 0.464092 0.609992
C58   C     C_R   0.962109 0.991386 0.531955 0.606021
C59   C     C_R   0.464105 0.509659 0.034347 0.611881
C60   C     C_R   0.535877 0.490352 0.965633 0.611864
O21   O     O_3   0.516585 0.241800 0.416715 -0.516011
C61   C     C_3   0.567973 0.311411 0.428545 0.187887
H1    H     H_    0.596657 0.198018 0.428813 0.148431
H2    H     H_    0.576275 0.384140 0.470457 0.185815
C62   C     C_3   0.574481 0.448914 0.381953 -0.242724
H3    H     H_    0.564368 0.380774 0.339452 0.202663
H4    H     H_    0.547496 0.567061 0.382416 0.277517
C63   C     C_3   0.630387 0.520603 0.390785 -0.770935
H5    H     H_    0.641824 0.586924 0.433392 0.276488
H6    H     H_    0.633483 0.624156 0.357341 0.249588
H7    H     H_    0.657677 0.405451 0.387598 0.211486
O22   O     O_3   0.484019 0.758525 0.582944 -0.516464
C64   C     C_3   0.432745 0.687983 0.571199 0.189046
H8    H     H_    0.424609 0.614331 0.529441 0.187018
H9    H     H_    0.403880 0.800941 0.570662 0.148338
C65   C     C_3   0.426457 0.551278 0.618081 -0.244713
H10   H     H_    0.453686 0.433683 0.617916 0.276941
H11   H     H_    0.436391 0.620456 0.660430 0.202657
C66   C     C_3   0.370709 0.478209 0.609350 -0.768320
H12   H     H_    0.343147 0.592778 0.612232 0.213284
H13   H     H_    0.367816 0.375220 0.643018 0.248098
H14   H     H_    0.359471 0.410821 0.566889 0.277438
O23   O     O_3   0.984064 0.741742 0.083232 -0.516422
C67   C     C_3   0.932822 0.812551 0.071565 0.189161
H15   H     H_    0.903904 0.699737 0.070988 0.148458
H16   H     H_    0.924697 0.886379 0.029847 0.187284
C68   C     C_3   0.926621 0.949123 0.118529 -0.244572
H17   H     H_    0.936592 0.879810 0.160845 0.203381
H18   H     H_    0.953861 0.066695 0.118374 0.276766
C69   C     C_3   0.870888 0.022259 0.109911 -0.767020
H19   H     H_    0.859596 0.089668 0.067469 0.277222
H20   H     H_    0.868061 0.125240 0.143614 0.248758
H21   H     H_    0.843322 0.907720 0.112823 0.213414
O24   O     O_3   0.015954 0.258259 0.916738 -0.516784
C70   C     C_3   0.067194 0.187432 0.928401 0.189504
H22   H     H_    0.075309 0.113524 0.970106 0.187470
H23   H     H_    0.096116 0.300244 0.929005 0.148248
C71   C     C_3   0.073397 0.050951 0.881414 -0.245471
H24   H     H_    0.046158 0.933364 0.881548 0.276681
H25   H     H_    0.063426 0.120341 0.839110 0.202059
C72   C     C_3   0.129131 0.977826 0.890018 -0.768784
H26   H     H_    0.156697 0.092387 0.887133 0.213226
H27   H     H_    0.131959 0.874931 0.856291 0.247914
H28   H     H_    0.140420 0.910317 0.932445 0.277633
F1    F     F_    0.581658 0.871942 0.455375 -0.674816
F2    F     F_    0.418788 0.127934 0.544236 -0.674557
F3    F     F_    0.918608 0.372686 0.044597 -0.674507
F4    F     F_    0.081412 0.627314 0.955377 -0.674715
F5    F     F_    0.523265 0.337855 0.548275 -0.622226
F6    F     F_    0.477164 0.662224 0.451290 -0.621869
F7    F     F_    0.977059 0.837899 0.951562 -0.622579
F8    F     F_    0.022963 0.162093 0.048411 -0.622501
F9    F     F_    0.869172 0.283745 0.666513 -0.569592
F10   F     F_    0.128396 0.718891 0.330143 -0.572950
F11   F     F_    0.628373 0.780773 0.830213 -0.573207
F12   F     F_    0.371627 0.219232 0.169782 -0.573329
F13   F     F_    0.937847 0.298602 0.596882 -0.566427
F14   F     F_    0.057922 0.705129 0.397782 -0.570125
F15   F     F_    0.558526 0.795069 0.898466 -0.571892
F16   F     F_    0.441467 0.204941 0.101519 -0.571837
O25   O     O_3   0.904938 0.656415 0.546982 -0.476215
C73   C     C_3   0.874612 0.656824 0.490763 0.206945
H29   H     H_    0.898845 0.595296 0.462246 0.176422
H30   H     H_    0.863406 0.797642 0.473546 0.048745
C74   C     C_3   0.825816 0.537665 0.487942 -0.270942
H31   H     H_    0.837251 0.399543 0.506537 0.233390
H32   H     H_    0.799435 0.603699 0.513176 0.220434
C75   C     C_3   0.796256 0.513874 0.426497 -0.862317
H33   H     H_    0.783718 0.650210 0.407338 0.242238
H34   H     H_    0.761081 0.427734 0.426048 0.241258
H35   H     H_    0.821289 0.444333 0.400355 0.246542
O26   O     O_3   0.093168 0.341865 0.451769 -0.477224
C76   C     C_3   0.129319 0.348602 0.504192 0.174534
H36   H     H_    0.170047 0.354664 0.496792 0.128548
H37   H     H_    0.124950 0.225462 0.530861 0.078873
C77   C     C_3   0.118978 0.521879 0.536650 -0.200659
H38   H     H_    0.123357 0.645745 0.510550 0.216043
H39   H     H_    0.078363 0.518115 0.544096 0.251681
C78   C     C_3   0.156717 0.536895 0.594063 -0.866031
H40   H     H_    0.152385 0.416035 0.621357 0.246150
H41   H     H_    0.148135 0.664171 0.616402 0.248755
H42   H     H_    0.197568 0.544017 0.587581 0.233382
O27   O     O_3   0.594286 0.158461 0.952660 -0.478003
C79   C     C_3   0.630909 0.150646 0.004719 0.177312
H43   H     H_    0.627143 0.273885 0.031597 0.079779
H44   H     H_    0.671433 0.143410 0.996755 0.129212
C80   C     C_3   0.620520 0.977626 0.037257 -0.203580
H45   H     H_    0.580087 0.982522 0.045231 0.250833
H46   H     H_    0.624310 0.853654 0.010957 0.215444
C81   C     C_3   0.658740 0.961463 0.094308 -0.864237
H47   H     H_    0.699405 0.953056 0.087286 0.233324
H48   H     H_    0.650093 0.834468 0.116729 0.248644
H49   H     H_    0.655018 0.082469 0.121791 0.246479
O28   O     O_3   0.405690 0.841544 0.047321 -0.478005
C82   C     C_3   0.369068 0.849313 0.995261 0.177370
H50   H     H_    0.328534 0.856171 0.003214 0.128913
H51   H     H_    0.372913 0.726229 0.968350 0.079805
C83   C     C_3   0.379359 0.022585 0.962782 -0.203029
H52   H     H_    0.375480 0.146394 0.989117 0.215253
H53   H     H_    0.419801 0.018099 0.954824 0.250771
C84   C     C_3   0.341147 0.038681 0.905724 -0.865521
H54   H     H_    0.344990 0.917922 0.878189 0.246410
H55   H     H_    0.349692 0.165944 0.883368 0.248480
H56   H     H_    0.300467 0.046521 0.912726 0.233256
F17   F     F_    0.837728 0.642321 0.619761 -0.596442
F18   F     F_    0.164043 0.354428 0.382682 -0.595534
F19   F     F_    0.664586 0.145907 0.883011 -0.596163
F20   F     F_    0.335404 0.854092 0.116983 -0.596246

loop_
_geom_bond_atom_site_label_1
_geom_bond_atom_site_label_2
_ccdc_geom_bond_type
C34   C38   A    
C16   C23   S    
N3    N7    A    
C78   H40   S    
O1    C5    A    
C83   H52   S    
C33   F9    S    
O19   V1    S    
C8    C18   S    
O3    C7    A    
C66   H12   S    
C48   C52   A    
C11   C23   S    
C62   H3    S    
C76   H36   S    
C27   C31   S    
C65   H10   S    
C2    C55   S    
O7    C3    A    
N3    C60   A    
C78   H41   S    
O21   C61   S    
N2    C57   A    
C40   F16   S    
C40   C44   A    
O9    V1    S    
O26   C76   S    
N7    C59   A    
C46   C50   A    
C11   C15   S    
O4    C8    A    
C25   C29   S    
O23   C67   S    
O1    V3    S    
C44   C59   S    
C9    C21   S    
C67   H15   S    
O2    V4    S    
C33   C37   A    
O3    V1    S    
C81   H47   S    
C63   H5    S    
C82   C83   S    
C14   O22   S    
C83   C84   S    
C11   F3    S    
C15   C27   S    
C5    C19   S    
C35   C55   A    
C1    O15   A    
C77   C78   S    
C6    C20   S    
C50   F18   S    
C9    F1    S    
C84   H55   S    
C49   F17   S    
O2    C6    A    
C72   H28   S    
C45   C49   A    
C10   C22   S    
N4    C59   A    
C22   F5    S    
C14   C21   S    
C44   C48   A    
C80   C81   S    
C64   H9    S    
O11   C7    A    
O28   C82   S    
O15   V3    S    
O12   C8    A    
C74   H31   S    
O10   V2    S    
O22   C64   S    
C62   H4    S    
N1    N5    A    
C42   C57   S    
O5    V1    S    
C68   H18   S    
C41   C58   S    
C78   H42   S    
C39   C43   A    
O7    V3    S    
C38   C42   A    
C13   O21   S    
O8    V4    S    
C75   H35   S    
N8    C60   A    
C12   C16   S    
C73   C74   S    
C52   F20   S    
C2    O16   A    
N5    C57   A    
O18   V4    S    
C23   C27   S    
C61   C62   S    
C9    C26   S    
C16   C28   S    
C23   F8    S    
C10   F2    S    
C63   H7    S    
C9    C13   S    
C24   F7    S    
C46   O26   S    
C1    C56   S    
C75   H34   S    
C74   H32   S    
C71   H25   S    
C70   H23   S    
O5    C1    A    
C3    C54   S    
C33   C53   A    
C72   H26   S    
C13   C25   S    
C20   C32   T    
O27   C79   S    
C21   C25   S    
O8    C4    A    
C84   H56   S    
C39   F15   S    
C4    C53   S    
C63   H6    S    
O9    C5    A    
C66   H13   S    
C26   C30   S    
C64   C65   S    
C61   H2    S    
C12   F4    S    
C17   C29   T    
C73   H29   S    
C12   C27   S    
C67   H16   S    
O14   V2    S    
N1    C58   A    
C19   C31   T    
C77   H38   S    
O6    V2    S    
C76   C77   S    
C15   O23   S    
N6    C58   A    
C21   F6    S    
C71   C72   S    
C52   C56   A    
C69   H20   S    
C70   H22   S    
C62   C63   S    
C48   O28   S    
C45   O25   S    
O16   V4    S    
C68   C69   S    
C36   C56   A    
C10   C25   S    
C83   H53   S    
C38   F14   S    
C10   C14   S    
C73   H30   S    
O17   V3    S    
N4    N8    A    
C3    O13   A    
O6    C2    A    
C68   H17   S    
C67   C68   S    
O11   V3    S    
C14   C26   S    
C51   F19   S    
C74   C75   S    
O12   V4    S    
C64   H8    S    
C22   C26   S    
C35   C39   A    
C7    C17   S    
C65   C66   S    
C34   F10   S    
C36   C40   A    
C75   H33   S    
C79   C80   S    
C69   H21   S    
O20   V2    S    
C71   H24   S    
C69   H19   S    
C70   C71   S    
C82   H50   S    
N2    N6    A    
O13   V1    S    
C18   C30   T    
C47   C51   A    
O10   C6    A    
C42   C46   A    
C65   H11   S    
C51   C55   A    
O24   C70   S    
C41   C45   A    
C77   H39   S    
C43   C60   S    
C47   O27   S    
C12   C24   S    
C66   H14   S    
C43   C47   A    
C61   H1    S    
C81   H48   S    
C82   H51   S    
C34   C54   A    
C79   H43   S    
C80   H45   S    
C37   C41   A    
C24   C28   S    
C76   H37   S    
C84   H54   S    
C50   C54   A    
C4    O14   A    
C11   C28   S    
C72   H27   S    
C49   C53   A    
C16   O24   S    
C15   C24   S    
C36   F12   S    
C80   H46   S    
C13   C22   S    
C37   F13   S    
C81   H49   S    
O4    V2    S    
C28   C32   S    
C79   H44   S    
O25   C73   S    
C35   F11   S    
