data_mof_unit_34002.cif
_audit_creation_date              2012-12-10T21:34:56-0500
_audit_creation_method            fapswitch 2.2
_symmetry_space_group_name_H-M    P1
_symmetry_Int_Tables_number       1
_space_group_crystal_system       triclinic
_cell_length_a                    10.75401
_cell_length_b                    16.091687
_cell_length_c                    16.662724
_cell_angle_alpha                 90.128711
_cell_angle_beta                  91.106634
_cell_angle_gamma                 90.699288
_cell_volume                      2882.72567945

loop_
_atom_site_label
_atom_site_type_symbol
_atom_type_description
_atom_site_fract_x
_atom_site_fract_y
_atom_site_fract_z
_atom_type_partial_charge
Br1   Br    Br    0.130308 0.636028 0.378977 -0.541614
Br2   Br    Br    0.645030 0.323600 0.105657 -0.534053
Br3   Br    Br    0.684233 0.279047 0.607180 -0.529581
Br4   Br    Br    0.331883 0.891784 0.371874 -0.494780
Br5   Br    Br    0.121267 0.341503 0.609217 -0.514572
C1    C     C_R   0.510410 0.490461 0.653462 0.864939
C2    C     C_R   0.554594 0.405173 0.772970 -0.206810
C3    C     C_R   0.586059 0.428126 0.145118 0.288272
C4    C     C_R   0.741737 0.498695 0.502482 0.891928
C5    C     C_R   0.583956 0.438093 0.227601 -0.283930
C6    C     C_R   0.537101 0.491552 0.095846 0.258582
C7    C     C_R   0.529726 0.508356 0.261679 -0.103784
C8    C     C_R   0.482810 0.571476 0.213078 -0.198616
C9    C     C_R   0.485889 0.562534 0.130274 -0.214290
C10   C     C_R   0.437435 0.757654 0.458417 -0.032623
C11   C     C_R   0.440345 0.844688 0.452129 0.185738
C12   C     C_3   0.118747 0.503108 0.507153 -0.068139
C13   C     C_R   0.526093 0.890978 0.501062 0.243570
C14   C     C_R   0.610562 0.846242 0.549140 -0.351763
C15   C     C_R   0.604780 0.759185 0.552033 -0.007834
C16   C     C_R   0.511987 0.508893 0.347510 0.870770
C17   C     C_R   0.553173 0.147045 0.529493 -0.311797
C18   C     C_R   0.562961 0.233678 0.534094 0.387037
C19   C     C_R   0.458889 0.108802 0.482135 0.239171
C20   C     C_R   0.391879 0.248080 0.444163 -0.077433
C21   C     C_R   0.374393 0.160975 0.440657 -0.096978
C22   C     C_R   0.256669 0.501238 0.503453 0.835045
C23   C     C_3   0.064233 0.529068 0.419323 0.190439
C24   C     C_3   0.925117 0.408173 0.512916 -0.407752
C25   C     C_3   0.066893 0.410039 0.518590 0.067311
C26   C     C_3   0.923005 0.541181 0.428497 -0.405877
C27   C     C_3   0.922903 0.544627 0.581304 -0.440724
C28   C     C_3   0.876360 0.497719 0.505266 0.006145
C29   C     C_R   0.091087 0.660093 0.563588 0.158866
C30   C     C_R   0.998144 0.716950 0.537111 -0.127401
C31   C     C_R   0.022599 0.802189 0.531407 -0.102739
C32   C     C_R   0.137978 0.834558 0.554766 -0.069078
C33   C     C_R   0.228964 0.781797 0.584529 -0.164267
C34   C     C_3   0.066032 0.564693 0.578602 0.043291
C35   C     C_R   0.206648 0.696210 0.588615 -0.094524
C36   C     C_R   0.665420 0.614616 0.917895 0.143217
C37   C     C_R   0.579276 0.673834 0.942923 -0.125728
C38   C     C_R   0.617679 0.739463 0.992974 -0.137493
C39   C     C_R   0.741791 0.745974 0.018928 -0.086739
C40   C     C_R   0.827563 0.686610 0.995183 -0.132826
C41   C     C_R   0.789471 0.620876 0.945157 -0.154738
C42   C     C_R   0.573122 0.642473 0.757103 0.181722
C43   C     C_R   0.681016 0.691966 0.750610 -0.163178
C44   C     C_R   0.672104 0.778278 0.744018 -0.159523
C45   C     C_R   0.546258 0.485075 0.739097 -0.128143
C46   C     C_R   0.555444 0.815630 0.742569 -0.089539
C47   C     C_R   0.447684 0.766670 0.747240 -0.165854
C48   C     C_R   0.456246 0.680414 0.754197 -0.153023
C49   C     C_R   0.264930 0.126675 0.396019 0.149989
C50   C     C_R   0.241191 0.150147 0.316042 -0.141800
C51   C     C_R   0.135372 0.119958 0.274919 -0.122957
C52   C     C_R   0.052221 0.066587 0.313357 -0.076340
C53   C     C_R   0.074528 0.043476 0.393084 -0.092590
C54   C     C_R   0.180154 0.073576 0.434450 -0.066547
C55   C     C_R   0.090535 0.464176 0.351420 0.092667
C56   C     C_R   0.583231 0.555626 0.785986 -0.080278
C57   C     C_R   0.000475 0.406640 0.319464 -0.165871
C58   C     C_R   0.030877 0.348887 0.260488 -0.098834
C59   C     C_R   0.150661 0.346842 0.230878 -0.128336
C60   C     C_R   0.240105 0.402783 0.260010 -0.147626
C61   C     C_R   0.210207 0.460662 0.319126 -0.079841
C62   C     C_R   0.111630 0.551974 0.667450 0.089681
C63   C     C_R   0.212002 0.502281 0.691986 -0.102492
C64   C     C_R   0.240920 0.490621 0.773453 -0.120486
C65   C     C_R   0.178273 0.534314 0.832060 -0.117197
C66   C     C_R   0.085489 0.589359 0.809399 -0.142940
C67   C     C_R   0.625508 0.543601 0.865691 -0.053693
C68   C     C_R   0.052288 0.597953 0.728514 -0.163248
C69   C     C_R   0.623708 0.463375 0.898873 0.265055
C70   C     C_R   0.592206 0.394577 0.852133 -0.165008
H1    H     H_    0.891755 0.367600 0.463041 0.179214
H2    H     H_    0.681203 0.878994 0.584463 0.160992
H3    H     H_    0.672738 0.725205 0.586900 0.144755
H4    H     H_    0.328210 0.288386 0.412152 0.159032
H5    H     H_    0.373171 0.721865 0.421150 0.212524
H6    H     H_    0.099971 0.370386 0.468995 0.164444
H7    H     H_    0.867318 0.523802 0.374372 0.148099
H8    H     H_    0.866136 0.599168 0.596121 0.145494
H9    H     H_    0.901373 0.503500 0.633246 0.195809
H10   H     H_    0.904590 0.698781 0.521104 0.125517
H11   H     H_    0.950564 0.843533 0.510017 0.128040
H12   H     H_    0.901212 0.607664 0.431457 0.213936
H13   H     H_    0.156294 0.900708 0.550984 0.135242
H14   H     H_    0.317680 0.807451 0.604363 0.141299
H15   H     H_    0.279231 0.658717 0.615038 0.158284
H16   H     H_    0.482443 0.668604 0.924406 0.127929
H17   H     H_    0.551073 0.785006 0.011999 0.141740
H18   H     H_    0.771346 0.796747 0.057794 0.139920
H19   H     H_    0.923483 0.691382 0.015724 0.139589
H20   H     H_    0.856294 0.574779 0.927634 0.134577
H21   H     H_    0.771820 0.663990 0.755044 0.117135
H22   H     H_    0.755621 0.816205 0.740581 0.134140
H23   H     H_    0.619929 0.388831 0.265415 0.188906
H24   H     H_    0.548576 0.882484 0.737806 0.136724
H25   H     H_    0.357525 0.795748 0.747684 0.134765
H26   H     H_    0.372373 0.643860 0.761923 0.136731
H27   H     H_    0.304735 0.191562 0.285533 0.135765
H28   H     H_    0.117689 0.138094 0.213276 0.136782
H29   H     H_    0.970325 0.043343 0.281441 0.139099
H30   H     H_    0.009820 0.002415 0.422942 0.131119
H31   H     H_    0.195197 0.056101 0.496582 0.129712
H32   H     H_    0.905829 0.403489 0.338857 0.126149
H33   H     H_    0.960953 0.305465 0.237727 0.157834
H34   H     H_    0.589763 0.333134 0.878518 0.184244
H35   H     H_    0.174077 0.302145 0.185122 0.140330
H36   H     H_    0.332568 0.401215 0.236233 0.160378
H37   H     H_    0.279941 0.504421 0.339120 0.157030
H38   H     H_    0.267532 0.470575 0.649589 0.161088
H39   H     H_    0.312699 0.447899 0.791427 0.155825
H40   H     H_    0.202869 0.526341 0.894845 0.139302
H41   H     H_    0.038781 0.625304 0.854447 0.127927
H42   H     H_    0.979790 0.641437 0.713223 0.118223
H43   H     H_    0.527478 0.350222 0.739078 0.216141
H44   H     H_    0.439584 0.625522 0.238911 0.188013
H45   H     H_    0.447508 0.610887 0.092435 0.158700
H46   H     H_    0.887365 0.379563 0.567911 0.262041
H47   H     H_    0.617383 0.110143 0.564837 0.191112
N1    N     N_2   0.628614 0.454664 0.982541 -0.123750
N2    N     N_2   0.535493 0.487506 0.011699 -0.184354
N3    N     N_R   0.515460 0.716920 0.509720 -0.120921
N4    N     N_2   0.536687 0.980040 0.503149 -0.168577
N5    N     N_2   0.445326 0.019817 0.476849 -0.118725
N6    N     N_R   0.484530 0.283060 0.490290 -0.109514
O1    O     O_R   0.494470 0.422540 0.612660 -0.573513
O2    O     O_R   0.504400 0.561840 0.618900 -0.629320
O3    O     O_R   0.680240 0.430340 0.496890 -0.596382
O4    O     O_R   0.690170 0.569650 0.503130 -0.641075
O5    O     O_R   0.495600 0.438160 0.381100 -0.631205
O6    O     O_R   0.505530 0.577460 0.387340 -0.605410
O7    O     O_R   0.309830 0.430350 0.496870 -0.605664
O8    O     O_R   0.319760 0.569660 0.503110 -0.604332
Zn1   Zn    Zn3+2 0.493370 0.406980 0.495830 0.990656
Zn2   Zn    Zn3+2 0.506630 0.593020 0.504170 0.950824

loop_
_geom_bond_atom_site_label_1
_geom_bond_atom_site_label_2
_ccdc_geom_bond_type
C50   C51   A    
O5    Zn1   S    
N4    N5    D    
C36   C37   A    
C32   H13   S    
Br3   C18   S    
C30   C31   A    
C1    O2    A    
N1    N2    D    
C24   H1    S    
C40   C41   A    
C39   C40   A    
C50   H27   S    
C32   C33   A    
C26   H7    S    
C29   C35   A    
C22   O8    A    
C31   C32   A    
C20   N6    A    
C19   C21   A    
C13   C14   A    
C52   H29   S    
C6    C9    A    
O4    Zn2   S    
C10   C11   A    
C24   C28   S    
C51   C52   A    
C55   C57   A    
C29   C30   A    
C12   C34   S    
C27   C34   S    
C14   H2    S    
C60   H36   S    
C39   H18   S    
C29   C34   S    
C41   H20   S    
C10   H5    S    
C48   H26   S    
C63   C64   A    
C44   C46   A    
C24   H46   S    
Br1   C23   S    
C36   C41   A    
C26   C28   S    
C65   C66   A    
C62   C68   A    
C63   H38   S    
C42   C48   A    
C4    O3    A    
C69   N1    S    
C55   C61   A    
C8    C9    A    
C4    C28   S    
C12   C25   S    
C2    H43   S    
C1    O1    A    
C35   H15   S    
C40   H19   S    
C21   C49   S    
C16   O5    A    
C8    H44   S    
C17   H47   S    
C49   C54   A    
C23   C55   S    
C46   H24   S    
C27   H9    S    
C64   H39   S    
C70   H34   S    
C54   H31   S    
C68   H42   S    
C69   C70   A    
C62   C63   A    
C12   C22   S    
C26   H12   S    
C51   H28   S    
C67   C69   A    
C66   C68   A    
C2    C70   A    
C57   H32   S    
C31   H11   S    
C53   C54   A    
C7    C16   S    
C47   H25   S    
C46   C47   A    
Br4   C11   S    
C38   C39   A    
O6    Zn2   S    
C24   C25   S    
O3    Zn1   S    
C19   N5    S    
C59   H35   S    
C42   C43   A    
C33   H14   S    
C57   C58   A    
C11   C13   A    
C1    C45   S    
C5    C7    A    
N6    Zn1   S    
C56   C67   A    
O8    Zn2   S    
C43   C44   A    
C9    H45   S    
C36   C67   S    
C65   H40   S    
C17   C19   A    
C37   C38   A    
O2    Zn2   S    
C16   O6    A    
C47   C48   A    
Br5   C25   S    
C4    O4    A    
O7    Zn1   S    
C27   H8    S    
C49   C50   A    
C43   H21   S    
C20   H4    S    
C12   C23   S    
C34   C62   S    
C23   C26   S    
Br2   C3    S    
C2    C45   A    
C42   C56   S    
N3    Zn2   S    
C5    H23   S    
C38   H17   S    
C15   H3    S    
C53   H30   S    
C22   O7    A    
C27   C28   S    
C14   C15   A    
C20   C21   A    
C15   N3    A    
C59   C60   A    
C33   C35   A    
C30   H10   S    
C52   C53   A    
C25   H6    S    
C3    C6    A    
C66   H41   S    
C64   C65   A    
C44   H22   S    
C58   C59   A    
O1    Zn1   S    
C7    C8    A    
C3    C5    A    
C60   C61   A    
C10   N3    A    
C45   C56   A    
C17   C18   A    
C6    N2    S    
C61   H37   S    
C58   H33   S    
C13   N4    S    
C37   H16   S    
C18   N6    A    
