data_mof_unit_42446.cif
_audit_creation_date              2012-12-10T19:26:38-0500
_audit_creation_method            fapswitch 2.2
_symmetry_space_group_name_H-M    P1
_symmetry_Int_Tables_number       1
_space_group_crystal_system       triclinic
_cell_length_a                    19.122155
_cell_length_b                    10.502755
_cell_length_c                    9.89873
_cell_angle_alpha                 91.458813
_cell_angle_beta                  88.20069
_cell_angle_gamma                 90.276629
_cell_volume                      1986.37410917

loop_
_atom_site_label
_atom_site_type_symbol
_atom_type_description
_atom_site_fract_x
_atom_site_fract_y
_atom_site_fract_z
_atom_type_partial_charge
C1    C     C_R   0.501103 0.258122 0.499131 0.945884
C2    C     C_3   0.557904 0.035808 0.438532 0.536888
C3    C     C_3   0.498084 0.385725 0.043951 0.033167
C4    C     C_3   0.501614 0.614501 0.954971 0.021451
C5    C     C_3   0.553769 0.440994 0.945591 -0.279254
C6    C     C_3   0.446213 0.560370 0.054088 -0.224606
C7    C     C_3   0.444858 0.445706 0.954478 0.531555
C8    C     C_3   0.554866 0.555103 0.044800 0.538498
C9    C     C_R   0.366176 0.500009 0.501450 0.915285
C10   C     C_R   0.633835 0.500076 0.498497 0.923721
C11   C     C_R   0.251439 0.418102 0.577766 -0.090196
C12   C     C_R   0.498605 0.741799 0.501817 0.952494
C13   C     C_R   0.748348 0.581028 0.419722 -0.085331
C14   C     C_R   0.179260 0.418868 0.571925 -0.162974
C15   C     C_R   0.820575 0.579857 0.423957 -0.165490
C16   C     C_R   0.146087 0.505296 0.489744 -0.083363
C17   C     C_R   0.854069 0.493992 0.506257 -0.080838
C18   C     C_R   0.185891 0.590917 0.410324 0.458353
C19   C     C_R   0.814572 0.409434 0.587515 0.452969
C20   C     C_R   0.258393 0.589776 0.418420 -0.169112
C21   C     C_R   0.741985 0.411208 0.581332 -0.175455
C22   C     C_R   0.290832 0.504335 0.502242 -0.080642
C23   C     C_3   0.498788 0.047061 0.631450 -0.231499
C24   C     C_R   0.709206 0.495981 0.497251 -0.084585
C25   C     C_R   0.929798 0.496295 0.504293 0.354890
C26   C     C_R   0.070359 0.502989 0.490559 0.355539
C27   C     C_3   0.507654 0.247503 0.084207 -0.324018
C28   C     C_3   0.439355 0.183000 0.125875 -0.720131
C29   C     C_3   0.500774 0.748119 0.897593 -0.274271
C30   C     C_3   0.497643 0.852725 0.006078 -0.822527
C31   C     C_3   0.500503 0.953069 0.376064 -0.260840
C32   C     C_3   0.555981 0.957882 0.567936 -0.294815
C33   C     C_3   0.443215 0.041663 0.439533 -0.321129
C34   C     C_3   0.497836 0.876834 0.505831 -0.178245
C35   C     C_3   0.501495 0.123012 0.500208 -0.172750
C36   C     C_3   0.441466 0.963689 0.568701 0.528126
H1    H     H_    0.276383 0.348307 0.638277 0.223526
H2    H     H_    0.501894 0.910712 0.273259 0.200447
H3    H     H_    0.599477 0.391459 0.896670 0.202787
H4    H     H_    0.400648 0.610421 0.102842 0.196935
H5    H     H_    0.271871 0.299031 0.996304 0.399964
H6    H     H_    0.714249 0.744155 0.006127 0.401581
H7    H     H_    0.184485 0.803520 0.123797 0.402005
H8    H     H_    0.817472 0.197972 0.874874 0.406235
H9    H     H_    0.324958 0.923793 0.864474 0.400284
H10   H     H_    0.745055 0.018830 0.355368 0.403682
H11   H     H_    0.409715 0.241493 0.202858 0.289965
H12   H     H_    0.723208 0.650316 0.358912 0.225657
H13   H     H_    0.407340 0.164322 0.036157 0.309574
H14   H     H_    0.450936 0.089094 0.167139 0.225186
H15   H     H_    0.530542 0.192595 0.996202 0.200821
H16   H     H_    0.545957 0.243951 0.165328 0.283887
H17   H     H_    0.451321 0.838952 0.074657 0.252207
H18   H     H_    0.546393 0.853845 0.063366 0.315937
H19   H     H_    0.493060 0.946352 0.957677 0.268600
H20   H     H_    0.548529 0.762271 0.832989 0.246409
H21   H     H_    0.453454 0.756287 0.836736 0.276289
H22   H     H_    0.149127 0.352061 0.632090 0.199439
H23   H     H_    0.850495 0.645911 0.362467 0.196237
H24   H     H_    0.290003 0.654788 0.358756 0.200789
H25   H     H_    0.710602 0.346950 0.642342 0.204132
H26   H     H_    0.601685 0.920017 0.620293 0.208696
H27   H     H_    0.396495 0.078454 0.389741 0.197962
H28   H     H_    0.497836 0.087845 0.736120 0.207156
N1    N     N_R   0.033572 0.612175 0.508776 -0.065333
N2    N     N_R   0.966574 0.387107 0.485989 -0.067624
N3    N     N_R   0.964200 0.608982 0.514561 -0.121192
N4    N     N_R   0.035950 0.390304 0.480194 -0.120980
N5    N     N_3   0.499950 0.500030 0.863290 -0.171233
N6    N     N_3   0.500050 0.499970 0.136710 -0.160442
O1    O     O_R   0.500000 0.313960 0.616610 -0.601055
O2    O     O_2   0.372810 0.282293 0.797245 -0.308816
O3    O     O_3   0.315379 0.334048 0.034626 -0.567526
O4    O     O_2   0.620622 0.716481 0.215268 -0.313579
O5    O     O_2   0.683068 0.521745 0.138766 -0.272462
O6    O     O_3   0.671737 0.704168 0.968845 -0.554542
O7    O     O_2   0.090480 0.627877 0.221704 -0.265261
O8    O     O_2   0.118775 0.808905 0.372118 -0.236729
O9    O     O_3   0.209261 0.744221 0.181887 -0.542462
O10   O     O_2   0.881763 0.191459 0.625280 -0.247244
O11   O     O_2   0.911042 0.372992 0.774229 -0.262856
O12   O     O_R   0.500000 0.686040 0.383390 -0.594133
O13   O     O_3   0.792387 0.257110 0.817095 -0.531152
O14   O     O_2   0.302048 0.989638 0.598204 -0.250004
O15   O     O_2   0.350059 0.778860 0.640215 -0.324202
O16   O     O_3   0.367706 0.959769 0.820810 -0.566729
O17   O     O_2   0.630155 0.051299 0.201844 -0.303575
O18   O     O_2   0.652721 0.217220 0.374379 -0.326257
O19   O     O_3   0.702982 0.991042 0.407807 -0.524080
O20   O     O_R   0.500030 0.313950 0.383350 -0.624280
O21   O     O_R   0.499970 0.686050 0.616650 -0.645226
O22   O     O_R   0.398120 0.499990 0.616660 -0.521338
O23   O     O_R   0.601880 0.500010 0.383340 -0.527768
O24   O     O_R   0.398150 0.499980 0.383410 -0.635673
O25   O     O_R   0.601850 0.500020 0.616590 -0.630998
O26   O     O_2   0.322425 0.495703 0.843427 -0.269507
S1    S     S_3+6 0.362161 0.387828 0.901090 0.028803
S2    S     S_3+6 0.634592 0.625276 0.098340 0.035935
S3    S     S_3+6 0.148161 0.695051 0.295190 0.069297
S4    S     S_3+6 0.852881 0.305678 0.702302 0.067304
S5    S     S_3+6 0.362166 0.919745 0.655971 0.033449
S6    S     S_3+6 0.637186 0.078336 0.350611 0.032669
Zn1   Zn    Zn3+2 0.499980 0.500010 0.655740 1.034606
Zn2   Zn    Zn3+2 0.500020 0.499990 0.344260 1.039050

loop_
_geom_bond_atom_site_label_1
_geom_bond_atom_site_label_2
_ccdc_geom_bond_type
C2    C35   S    
N2    N4    A    
C28   H11   S    
C1    O20   A    
O19   S6    S    
C12   O21   A    
C25   N3    A    
C4    C8    S    
H8    O13   S    
H6    O6    S    
O4    S2    D    
H10   O19   S    
O3    S1    S    
C30   H18   S    
C1    O1    A    
O9    S3    S    
C19   C21   A    
C3    C7    S    
C11   C14   A    
N6    Zn2   S    
C9    C22   S    
C2    S6    S    
O6    S2    S    
C33   C36   S    
O23   Zn2   S    
C2    C32   S    
C11   H1    S    
C8    S2    S    
C5    N5    S    
O22   Zn1   S    
C17   C19   A    
C28   H14   S    
O25   Zn1   S    
N1    N3    A    
C31   C33   S    
C20   H24   S    
C21   H25   S    
C4    C29   S    
O24   Zn2   S    
O10   S4    D    
O14   S5    D    
C9    O22   A    
C4    N5    S    
C27   H15   S    
O2    S1    D    
N5    Zn1   S    
C16   C26   S    
C14   H22   S    
C30   H17   S    
C3    N6    S    
C4    C6    S    
O21   Zn1   S    
C10   O23   A    
C10   C24   S    
H5    O3    S    
O5    S2    D    
C13   C24   A    
C36   S5    S    
C32   C34   S    
C29   C30   S    
C13   H12   S    
O17   S6    D    
C28   H13   S    
C33   H27   S    
O26   S1    D    
C31   C34   S    
C12   O12   A    
O20   Zn2   S    
C6    H4    S    
C23   H28   S    
C29   H20   S    
C20   C22   A    
C23   C35   S    
O13   S4    S    
C13   C15   A    
C14   C16   A    
C18   S3    S    
C12   C34   S    
O8    S3    D    
O15   S5    D    
C27   H16   S    
C1    C35   S    
C6    N6    S    
O1    Zn1   S    
C7    S1    S    
C26   N1    A    
C15   H23   S    
C25   N2    A    
C29   H21   S    
C3    C5    S    
C7    N5    S    
C5    C8    S    
O18   S6    D    
C19   S4    S    
C15   C17   A    
C6    C7    S    
O11   S4    D    
C30   H19   S    
C11   C22   A    
C8    N6    S    
C31   H2    S    
C26   N4    A    
C23   C32   S    
C5    H3    S    
H9    O16   S    
C17   C25   S    
C10   O25   A    
C3    C27   S    
C33   C35   S    
C34   C36   S    
O7    S3    D    
C18   C20   A    
C32   H26   S    
C16   C18   A    
C23   C36   S    
C21   C24   A    
C27   C28   S    
O12   Zn2   S    
C2    C31   S    
O16   S5    S    
H7    O9    S    
C9    O24   A    
