data_mof_unit_17145.cif
_audit_creation_date              2013-03-05T16:09:06-0500
_audit_creation_method            fapswitch 2.2
_symmetry_space_group_name_H-M    P1
_symmetry_Int_Tables_number       1
_space_group_crystal_system       triclinic
_cell_length_a                    18.223107
_cell_length_b                    7.089521
_cell_length_c                    12.975614
_cell_angle_alpha                 90.178323
_cell_angle_beta                  72.25777
_cell_angle_gamma                 90.01563
_cell_volume                      1596.61918337

loop_
_atom_site_label
_atom_site_type_symbol
_atom_site_description
_atom_site_fract_x
_atom_site_fract_y
_atom_site_fract_z
_atom_type_partial_charge
O1    O     O_R   0.453880 0.506200 0.150010 -0.571667
O2    O     O_R   0.546120 0.006200 0.849990 -0.596921
O3    O     O_R   0.604080 0.177770 0.007280 -0.596032
O4    O     O_R   0.395920 0.677770 0.992720 -0.585539
C1    C     C_R   0.636018 0.344498 0.001621 1.030553
C2    C     C_R   0.363940 0.844469 0.998543 1.044148
O5    O     O_R   0.458010 0.176640 0.159130 -0.597370
O6    O     O_R   0.541990 0.676640 0.840870 -0.580668
O7    O     O_R   0.399010 0.004010 0.002930 -0.581084
O8    O     O_R   0.600990 0.504010 0.997070 -0.566665
C3    C     C_R   0.444086 0.345870 0.202039 1.129065
C4    C     C_R   0.556349 0.844933 0.798029 1.142517
O9    O     O_3   0.480810 0.338440 0.948570 -0.289502
O10   O     O_3   0.519190 0.838440 0.051430 -0.280816
V1    V     V_3+5 0.503560 0.064490 0.009540 1.278470
V2    V     V_3+5 0.496440 0.564490 0.990460 1.298021
C5    C     C_R   0.585283 0.880425 0.498348 -0.165071
C6    C     C_R   0.414559 0.393006 0.501520 -0.153454
H1    H     H_    0.664329 0.867113 0.290657 0.152334
H2    H     H_    0.335729 0.379416 0.709391 0.149087
H3    H     H_    0.551064 0.891139 0.443320 0.177059
H4    H     H_    0.448520 0.412363 0.556369 0.177804
C7    C     C_R   0.592899 0.852372 0.680631 -0.432843
C8    C     C_R   0.407193 0.357812 0.319335 -0.429719
C9    C     C_R   0.956629 0.882985 0.387356 0.301544
C10   C     C_R   0.043499 0.377246 0.612560 0.301556
C11   C     C_R   0.922507 0.912735 0.498157 -0.137485
C12   C     C_R   0.077491 0.403715 0.501566 -0.135726
C13   C     C_R   0.842898 0.910663 0.543589 -0.065194
C14   C     C_R   0.157104 0.402374 0.456087 -0.063181
C15   C     C_R   0.793763 0.870022 0.480758 0.113302
C16   C     C_R   0.206396 0.366669 0.519247 0.113433
C17   C     C_R   0.827379 0.858611 0.366447 0.063502
C18   C     C_R   0.172806 0.358142 0.633619 0.063203
C19   C     C_R   0.711771 0.856511 0.526863 -0.034008
C20   C     C_R   0.288467 0.356261 0.473290 -0.038216
C21   C     C_R   0.665537 0.867912 0.456670 0.098584
C22   C     C_R   0.334543 0.373926 0.543389 0.099808
C23   C     C_R   0.699522 0.863967 0.344619 -0.063285
C24   C     C_R   0.300585 0.371636 0.655458 -0.054080
C25   C     C_R   0.778892 0.852392 0.300217 -0.192065
C26   C     C_R   0.221307 0.356729 0.699893 -0.193386
C27   C     C_R   0.673757 0.830865 0.639465 0.237711
C28   C     C_R   0.326738 0.328882 0.360830 0.241703
C29   C     C_R   0.548190 0.877412 0.609796 0.305857
C30   C     C_R   0.451369 0.393099 0.389972 0.300307
C31   C     C_R   0.908792 0.862393 0.320216 -0.331253
C32   C     C_R   0.091373 0.360311 0.679807 -0.330676
H5    H     H_    0.821121 0.949788 0.627688 0.194459
H6    H     H_    0.178753 0.438469 0.371652 0.192286
H7    H     H_    0.957824 0.938881 0.550401 0.185676
H8    H     H_    0.042041 0.426587 0.449216 0.184003
H9    H     H_    0.801852 0.845593 0.212913 0.120416
H10   H     H_    0.198356 0.351922 0.787222 0.119765
C33   C     C_1   0.216304 0.858813 0.000380 -0.167156
C34   C     C_1   0.783683 0.358790 0.999693 -0.166277
C35   C     C_1   0.283550 0.852557 0.999351 -0.129851
C36   C     C_1   0.716419 0.352599 0.000779 -0.133503
O11   O     O_R   0.899030 0.205490 0.002790 -0.585976
O12   O     O_R   0.100970 0.705490 0.997210 -0.586225
O13   O     O_R   0.042000 0.536370 0.840840 -0.600082
O14   O     O_R   0.958000 0.036370 0.159160 -0.600856
C37   C     C_R   0.056845 0.367959 0.797977 1.029311
C38   C     C_R   0.943201 0.868488 0.202040 1.029645
O15   O     O_R   0.895930 0.535070 0.992690 -0.591919
O16   O     O_R   0.104070 0.035070 0.007310 -0.592579
O17   O     O_R   0.953870 0.707520 0.150040 -0.582721
O18   O     O_R   0.046130 0.207520 0.849960 -0.582195
C39   C     C_R   0.864089 0.366775 0.998852 1.025543
C40   C     C_R   0.135917 0.866791 0.001155 1.026689
O19   O     O_3   0.019200 0.374340 0.051340 -0.278761
O20   O     O_3   0.980800 0.874340 0.948660 -0.277722
V3    V     V_3+5 0.996440 0.648350 0.990470 1.241989
V4    V     V_3+5 0.003560 0.148350 0.009530 1.241593
N1    N     N_R   0.465272 0.891295 0.648519 0.226709
O21   O     O_R   0.428310 0.974557 0.589994 -0.410870
O22   O     O_R   0.425642 0.802008 0.735020 -0.470195
N2    N     N_R   0.533707 0.419832 0.350796 0.220424
O23   O     O_R   0.576344 0.373678 0.411077 -0.408629
O24   O     O_R   0.565696 0.508134 0.260528 -0.455206
N3    N     N_R   0.714268 0.755496 0.709557 0.217487
O25   O     O_R   0.711266 0.839600 0.800082 -0.412992
O26   O     O_R   0.752160 0.597866 0.684448 -0.336245
N4    N     N_R   0.287143 0.246152 0.291339 0.218968
O27   O     O_R   0.289405 0.325224 0.200008 -0.413972
O28   O     O_R   0.250362 0.087671 0.318251 -0.336976
N5    N     N_R   0.039504 0.880520 0.344190 0.229743
O29   O     O_R   0.081294 0.964093 0.396087 -0.364811
O30   O     O_R   0.073807 0.775434 0.261102 -0.419124
N6    N     N_R   0.960660 0.374700 0.655816 0.228529
O31   O     O_R   0.918783 0.459229 0.604640 -0.362786
O32   O     O_R   0.926513 0.269050 0.738303 -0.419269

loop_
_geom_bond_atom_site_label_1
_geom_bond_atom_site_label_2
_geom_bond_distance
_ccdc_geom_bond_type
C14   C16   1.411612 A    
N5    O29   1.301643 A    
C7    C29   1.413363 A    
C11   C13   1.389666 A    
O12   V3    1.975130 S    
O1    C3    1.308001 A    
O2    C4    1.309654 A    
C2    O7    1.308573 A    
N3    O25   1.301812 A    
O15   V3    1.991925 S    
C23   C25   1.386555 A    
C13   H5    1.076787 S    
O5    C3    1.312899 A    
C4    C7    1.465949 S    
C1    C36   1.462988 S    
C16   C20   1.433187 A    
C19   C21   1.419193 A    
N4    O28   1.301133 A    
H2    C24   1.084363 S    
N2    O24   1.300716 A    
O18   V4    2.022646 S    
O16   V4    1.992253 S    
C3    C8    1.466691 S    
C9    N5    1.441954 S    
C7    C27   1.414095 A    
O13   C37   1.308577 A    
O14   C38   1.308193 A    
C18   C26   1.408568 A    
C15   C17   1.423847 A    
O17   V3    2.020062 S    
C19   C27   1.425630 A    
C9    C31   1.415003 A    
C10   C32   1.414765 A    
C24   C26   1.386859 A    
C14   H6    1.076910 S    
O6    V2    2.028799 S    
C2    C35   1.462931 S    
C6    C30   1.397572 A    
N3    O26   1.301091 A    
C11   H7    1.083125 S    
C38   O17   1.307956 A    
N4    O27   1.301816 A    
O20   V4    2.181562 S    
C31   C38   1.469959 S    
C30   N2    1.442643 S    
N2    O23   1.301801 A    
C32   C37   1.470186 S    
O5    V1    2.024235 S    
O13   V3    2.024219 S    
C5    H3    1.084514 S    
C16   C18   1.423944 A    
O4    V2    1.992283 S    
N1    O21   1.301370 A    
N6    O32   1.301008 A    
O12   C40   1.317191 A    
O6    C4    1.310084 A    
O1    V2    2.021095 S    
C5    C21   1.398901 A    
O2    V1    2.018545 S    
N1    O22   1.300832 A    
O11   V4    1.975454 S    
C25   H9    1.082339 S    
H1    C23   1.084359 S    
O11   C39   1.317598 A    
O4    C2    1.309584 A    
C8    C28   1.414553 A    
C33   C35   1.222254 T    
C9    C11   1.396948 A    
C17   C31   1.421011 A    
C15   C19   1.433529 A    
C20   C28   1.425304 A    
C18   C32   1.421091 A    
O3    V1    1.991953 S    
O19   V3    2.186136 S    
C37   O18   1.308144 A    
C27   N3    1.438797 S    
C6    H4    1.084506 S    
C5    C29   1.397502 A    
O20   V3    1.744237 S    
O3    C1    1.309740 A    
O19   V4    1.740989 S    
C10   N6    1.441466 S    
C10   C12   1.396790 A    
C28   N4    1.438980 S    
C29   N1    1.443048 S    
C8    C30   1.413824 A    
C12   C14   1.389717 A    
C6    C22   1.398976 A    
C17   C25   1.408456 A    
C1    O8    1.309030 A    
C21   C23   1.396149 A    
O8    V2    1.980243 S    
C26   H10   1.082358 S    
C22   C24   1.396241 A    
C12   H8    1.083168 S    
N6    O31   1.301538 A    
O16   C40   1.318332 A    
O15   C39   1.318548 A    
C20   C22   1.418716 A    
C34   C36   1.222306 T    
O7    V1    1.979899 S    
C33   C40   1.462974 S    
C13   C15   1.411645 A    
C34   C39   1.463053 S    
O9    V2    1.741706 S    
N5    O30   1.301023 A    
O10   V1    1.744959 S    
O14   V4    2.028778 S    
