data_mof_unit_7502.cif
_audit_creation_date              2013-03-05T16:02:40-0500
_audit_creation_method            fapswitch 2.2
_symmetry_space_group_name_H-M    P1
_symmetry_Int_Tables_number       1
_space_group_crystal_system       triclinic
_cell_length_a                    6.954981
_cell_length_b                    17.134149
_cell_length_c                    19.05127
_cell_angle_alpha                 105.835428
_cell_angle_beta                  89.71871
_cell_angle_gamma                 90.522943
_cell_volume                      2184.03881351

loop_
_atom_site_label
_atom_site_type_symbol
_atom_site_description
_atom_site_fract_x
_atom_site_fract_y
_atom_site_fract_z
_atom_type_partial_charge
O1    O     O_R   0.494360 0.415680 0.413760 -0.589560
O2    O     O_R   0.818810 0.432910 0.557230 -0.580428
O3    O     O_R   0.994290 0.584320 0.586240 -0.611187
C1    C     C_R   0.649833 0.415807 0.580491 0.935202
O4    O     O_R   0.823740 0.406440 0.412520 -0.550079
O5    O     O_R   0.999250 0.557660 0.440500 -0.536633
C2    C     C_R   0.654983 0.384617 0.384488 0.967160
O6    O     O_R   0.489400 0.442340 0.559500 -0.581457
O7    O     O_3   0.662500 0.549650 0.509350 -0.244264
V1    V     V_3+5 0.935340 0.490790 0.498270 1.238285
O8    O     O_R   0.329270 0.567090 0.442770 -0.545096
C3    C     C_R   0.161656 0.583249 0.418721 1.051607
O9    O     O_R   0.324340 0.593560 0.587480 -0.563644
C4    C     C_R   0.155527 0.619272 0.612927 0.933642
V2    V     V_3+5 0.435970 0.509210 0.501730 1.245835
O10   O     O_3   0.158940 0.450350 0.490650 -0.269268
H1    H     H_    0.974449 0.886881 0.569805 0.133888
C5    C     C_R   0.267438 0.593050 0.747660 -0.171730
C6    C     C_R   0.321748 0.574787 0.811026 -0.186342
C7    C     C_R   0.301606 0.631971 0.877317 -0.134518
C8    C     C_R   0.227224 0.708734 0.881576 0.350638
C9    C     C_R   0.181626 0.731891 0.816844 -0.051988
C10   C     C_R   0.199569 0.671168 0.748434 0.103451
C11   C     C_R   0.119273 0.811877 0.817831 -0.264893
C12   C     C_R   0.075145 0.829008 0.750629 0.078067
C13   C     C_R   0.098158 0.768730 0.682264 0.090708
C14   C     C_R   0.150703 0.687923 0.681756 -0.255304
C15   C     C_R   0.014012 0.907791 0.750632 -0.189452
C16   C     C_R   0.972696 0.927657 0.686098 0.022852
C17   C     C_R   0.996767 0.869735 0.619965 -0.251832
C18   C     C_R   0.069738 0.793219 0.616962 -0.012064
H2    H     H_    0.281660 0.544526 0.698025 0.127287
H3    H     H_    0.375325 0.515016 0.808831 0.153742
H4    H     H_    0.336580 0.615211 0.926600 0.167268
H5    H     H_    0.998107 0.955375 0.800848 0.144948
C19   C     C_1   0.110908 0.865915 0.134401 -0.053490
C20   C     C_1   0.118586 0.823031 0.177680 0.126128
C21   C     C_1   0.128585 0.772101 0.228918 0.029219
C22   C     C_1   0.137184 0.729123 0.272104 0.027666
C23   C     C_1   0.147144 0.678158 0.323314 0.103754
C24   C     C_1   0.154716 0.635188 0.366517 -0.180185
C25   C     C_1   0.640881 0.363506 0.632230 -0.261419
C26   C     C_1   0.635619 0.320427 0.675387 0.121356
C27   C     C_1   0.630671 0.269426 0.726624 0.036634
C28   C     C_1   0.627091 0.226408 0.769843 0.059734
C29   C     C_1   0.623427 0.175281 0.820976 0.190189
C30   C     C_1   0.620733 0.131933 0.863923 -0.129105
C31   C     C_R   0.690643 0.415643 0.242004 0.358401
C32   C     C_R   0.649456 0.437275 0.178968 -0.353042
C33   C     C_R   0.601341 0.379393 0.115466 -0.157499
C34   C     C_R   0.601559 0.296457 0.114710 0.345690
C35   C     C_R   0.625437 0.271931 0.180486 -0.075319
C36   C     C_R   0.656949 0.335000 0.246469 -0.042700
C37   C     C_R   0.619028 0.188175 0.183054 -0.253525
C38   C     C_R   0.607635 0.171638 0.253118 -0.019444
C39   C     C_R   0.605988 0.237447 0.318085 0.080205
C40   C     C_R   0.644990 0.317677 0.315190 -0.204539
C41   C     C_R   0.589670 0.091382 0.261581 0.268956
C42   C     C_R   0.543922 0.079047 0.329311 -0.289648
C43   C     C_R   0.528597 0.143764 0.391685 0.379091
C44   C     C_R   0.565970 0.221989 0.386092 -0.316944
H6    H     H_    0.669635 0.499959 0.178377 0.178008
H7    H     H_    0.528761 0.017498 0.333510 0.205060
H8    H     H_    0.560901 0.270960 0.435768 0.150835
O11   O     O_R   0.775690 0.057750 0.940570 -0.569060
O12   O     O_R   0.441200 0.093570 0.087490 -0.573430
O13   O     O_R   0.265840 0.942320 0.059480 -0.546829
C45   C     C_R   0.610096 0.118577 0.114246 1.037177
O14   O     O_R   0.446270 0.067110 0.942790 -0.557773
O15   O     O_R   0.270950 0.915660 0.913750 -0.605534
C46   C     C_R   0.614183 0.080260 0.916361 1.008349
O16   O     O_R   0.770580 0.084400 0.086300 -0.555902
O17   O     O_3   0.602640 0.950400 0.990690 -0.248730
V3    V     V_3+5 0.329740 0.009200 0.001730 1.293531
O18   O     O_R   0.940900 0.906360 0.912450 -0.590539
C47   C     C_R   0.110330 0.880347 0.887085 0.977407
O19   O     O_R   0.935830 0.932820 0.057160 -0.529619
C48   C     C_R   0.103555 0.917645 0.081998 1.096653
V4    V     V_3+5 0.829130 0.990680 0.998180 1.305106
O20   O     O_3   0.106100 0.049590 0.009310 -0.260167
N1    N     N_R   0.799749 0.472888 0.295526 0.217378
O21   O     O_R   0.734250 0.545907 0.322515 -0.423583
O22   O     O_R   0.982792 0.459698 0.299200 -0.432551
C49   C     C_2   0.567195 0.409256 0.049978 0.684643
H9    H     H_    0.584807 0.473421 0.054182 -0.030299
O23   O     O_2   0.517417 0.364473 0.991335 -0.521023
N2    N     N_R   0.589406 0.238778 0.045928 0.200173
O24   O     O_R   0.742059 0.229132 0.004884 -0.420825
O25   O     O_R   0.420578 0.221863 0.016284 -0.372401
N3    N     N_R   0.645347 0.021289 0.205831 0.220565
O26   O     O_R   0.523024 0.961969 0.183313 -0.415038
O27   O     O_R   0.827881 0.006122 0.197558 -0.442418
N4    N     N_R   0.183697 0.758043 0.952818 0.185006
O28   O     O_R   0.316817 0.769839 0.002450 -0.430225
O29   O     O_R   0.004276 0.764855 0.973014 -0.445603
C50   C     C_2   0.917961 0.010887 0.686402 0.501430
H10   H     H_    0.865650 0.023069 0.636865 0.054235
O30   O     O_2   0.935867 0.067220 0.741274 -0.606334
C51   C     C_2   0.142926 0.749043 0.544878 0.442776
H11   H     H_    0.049220 0.738796 0.497909 -0.005093
O31   O     O_2   0.312890 0.731673 0.536570 -0.572062
N5    N     N_R   0.482527 0.129795 0.461138 0.249403
O32   O     O_R   0.453942 0.056477 0.466562 -0.387433
O33   O     O_R   0.465079 0.190283 0.519395 -0.410267

loop_
_geom_bond_atom_site_label_1
_geom_bond_atom_site_label_2
_geom_bond_distance
_ccdc_geom_bond_type
O12   C45   1.304129 A    
C38   C39   1.428952 A    
N4    O28   1.301157 A    
O11   V4    1.833993 S    
O17   V3    2.139408 S    
C6    C7    1.378429 A    
C1    O6    1.313194 A    
N1    O21   1.301613 A    
C33   C49   1.492764 S    
V1    O10   1.697700 S    
O19   C48   1.315443 A    
C31   N1    1.423300 S    
C12   C15   1.418930 A    
C13   C14   1.432677 A    
C20   C21   1.478483 S    
C8    N4    1.422108 S    
C15   C16   1.394150 A    
C49   O23   1.219806 D    
O16   V4    2.024053 S    
O5    C3    1.313729 A    
C17   C18   1.396642 A    
C37   C45   1.513497 S    
V2    O10   2.150889 S    
O12   V3    2.015721 S    
C39   C40   1.414492 A    
C5    C6    1.382297 A    
O14   C46   1.311280 A    
C29   C30   1.246068 T    
O8    V2    1.850815 S    
C15   H5    1.080340 S    
C50   O30   1.219991 D    
O15   V3    2.018416 S    
O1    V2    2.020226 S    
C10   C14   1.420079 A    
C4    C14   1.504226 S    
O7    V1    2.139475 S    
C7    H4    1.083448 S    
C13   C18   1.432366 A    
N4    O29   1.300877 A    
V3    O20   1.697643 S    
O9    C4    1.301884 A    
H1    C17   1.085867 S    
O13   C48   1.312343 A    
C43   N5    1.441520 S    
N1    O22   1.300550 A    
C35   C37   1.449469 A    
O19   V4    1.850861 S    
C31   C36   1.424582 A    
C5    C10   1.419586 A    
C11   C12   1.424805 A    
C6    H3    1.082994 S    
C34   N2    1.412000 S    
C22   C23   1.478475 S    
O4    C2    1.300670 A    
C36   C40   1.421144 A    
C11   C47   1.508885 S    
C41   C42   1.398024 A    
C28   C29   1.477194 S    
C34   C35   1.437074 A    
C43   C44   1.395232 A    
C44   H8    1.080631 S    
O2    C1    1.312588 A    
O18   C47   1.306600 A    
C16   C17   1.385253 A    
N3    O27   1.298370 A    
C51   H11   1.083589 S    
C45   O16   1.306957 A    
C50   H10   1.085742 S    
C33   C34   1.417183 A    
O17   V4    1.704895 S    
O14   V3    1.867269 S    
O13   V3    1.842579 S    
C49   H9    1.086134 S    
N5    O33   1.301501 A    
C41   N3    1.424323 S    
C30   C46   1.505170 S    
O3    C4    1.304553 A    
C23   C24   1.246657 T    
C51   O31   1.220596 D    
O6    V2    1.833616 S    
C18   C51   1.466577 S    
O9    V2    2.019863 S    
C26   C27   1.477265 S    
O15   C47   1.302913 A    
C9    C11   1.436448 A    
C5    H2    1.080150 S    
C25   C26   1.246020 T    
O2    V1    1.867198 S    
C35   C36   1.432849 A    
C3    C24   1.505883 S    
C37   C38   1.439882 A    
C19   C20   1.246730 T    
C32   H6    1.084985 S    
O1    C2    1.298075 A    
C9    C10   1.434375 A    
C27   C28   1.245994 T    
O5    V1    1.842754 S    
C16   C50   1.477852 S    
O8    C3    1.313746 A    
C42   H7    1.083330 S    
N2    O25   1.301016 A    
C12   C13   1.433702 A    
O4    V1    2.015804 S    
O3    V1    2.018428 S    
O11   C46   1.316546 A    
N3    O26   1.300274 A    
C21   C22   1.246868 T    
C1    C25   1.503006 S    
C31   C32   1.381967 A    
O7    V2    1.706122 S    
N5    O32   1.301712 A    
V4    O20   2.150864 S    
C42   C43   1.390980 A    
C7    C8    1.399239 A    
N2    O24   1.300173 A    
C32   C33   1.379232 A    
C38   C41   1.431864 A    
C39   C44   1.417269 A    
C19   C48   1.506395 S    
C8    C9    1.432497 A    
O18   V4    2.019752 S    
C2    C40   1.495447 S    
