data_mof_unit_48883.cif
_audit_creation_date              2012-12-11T14:19:37-0500
_audit_creation_method            fapswitch 2.2
_symmetry_space_group_name_H-M    P1
_symmetry_Int_Tables_number       1
_space_group_crystal_system       triclinic
_cell_length_a                    19.436523
_cell_length_b                    7.227683
_cell_length_c                    17.806474
_cell_angle_alpha                 89.999916
_cell_angle_beta                  107.605349
_cell_angle_gamma                 89.999784
_cell_volume                      2384.3089068

loop_
_atom_site_label
_atom_site_type_symbol
_atom_type_description
_atom_site_fract_x
_atom_site_fract_y
_atom_site_fract_z
_atom_type_partial_charge
O1    O     O_R   0.414820 0.494320 0.416790 -0.520823
O2    O     O_R   0.585180 0.994320 0.583210 -0.520825
O3    O     O_R   0.560270 0.819500 0.430140 -0.546801
O4    O     O_R   0.439730 0.319500 0.569860 -0.546800
C1    C     C_R   0.581597 0.655639 0.415364 0.731120
C2    C     C_R   0.418403 0.155639 0.584636 0.731129
O5    O     O_R   0.413840 0.823740 0.407440 -0.535469
O6    O     O_R   0.586160 0.323740 0.592560 -0.535468
O7    O     O_R   0.437710 0.998590 0.560350 -0.538879
O8    O     O_R   0.562290 0.498590 0.439650 -0.538878
C3    C     C_R   0.385817 0.655037 0.388073 0.699106
C4    C     C_R   0.614183 0.155035 0.611927 0.699103
O9    O     O_3   0.508000 0.662290 0.550200 -0.379454
O10   O     O_3   0.492000 0.162290 0.449800 -0.379456
V1    V     V_3+5 0.498520 0.935380 0.490690 1.526092
V2    V     V_3+5 0.501480 0.435380 0.509310 1.526095
C5    C     C_2   0.783959 0.272795 0.785714 0.454269
C6    C     C_2   0.216046 0.772793 0.214280 0.454272
C7    C     C_2   0.817125 0.116625 0.822007 -0.350433
C8    C     C_2   0.182875 0.616622 0.177992 -0.350430
H1    H     H_    0.789712 0.984937 0.806027 0.146040
H2    H     H_    0.210285 0.484930 0.193979 0.146046
C9    C     C_2   0.711057 0.267921 0.726580 -0.218045
C10   C     C_2   0.288948 0.767913 0.273415 -0.218051
C11   C     C_2   0.688387 0.142728 0.667841 -0.210762
C12   C     C_2   0.311613 0.642734 0.332161 -0.210756
H3    H     H_    0.674409 0.378047 0.731010 0.174807
H4    H     H_    0.325599 0.878023 0.268979 0.174795
C13   C     C_R   0.320731 0.293427 0.631451 -0.103173
C14   C     C_R   0.679269 0.793426 0.368550 -0.103180
C15   C     C_R   0.369226 0.148555 0.633910 -0.111292
C16   C     C_R   0.630774 0.648554 0.366090 -0.111290
C17   C     C_R   0.370935 0.997801 0.683520 -0.133472
C18   C     C_R   0.629064 0.497802 0.316479 -0.133469
C19   C     C_R   0.327326 0.993420 0.733925 0.088893
C20   C     C_R   0.672674 0.493422 0.266074 0.088893
C21   C     C_R   0.275983 0.137055 0.728619 0.043472
C22   C     C_R   0.724016 0.637056 0.271380 0.043471
C23   C     C_R   0.272429 0.287783 0.676668 0.046831
C24   C     C_R   0.727571 0.787782 0.323331 0.046830
C25   C     C_R   0.332750 0.847593 0.788456 -0.010258
C26   C     C_R   0.667248 0.347598 0.211542 -0.010260
C27   C     C_R   0.285558 0.843002 0.834075 -0.177131
C28   C     C_R   0.714441 0.343007 0.165923 -0.177131
C29   C     C_R   0.233154 0.981298 0.828475 0.074723
C30   C     C_R   0.766845 0.481301 0.171524 0.074724
C31   C     C_R   0.228439 0.129962 0.775272 0.072655
C32   C     C_R   0.771560 0.629963 0.224727 0.072654
C33   C     C_R   0.176539 0.271508 0.769026 -0.013933
C34   C     C_R   0.823460 0.771508 0.230974 -0.013933
C35   C     C_R   0.171609 0.419110 0.715029 -0.095240
C36   C     C_R   0.828391 0.919108 0.284971 -0.095237
C37   C     C_R   0.220512 0.428724 0.670367 0.327421
C38   C     C_R   0.779488 0.928723 0.329633 0.327421
C39   C     C_R   0.186483 0.975243 0.876257 -0.018558
C40   C     C_R   0.813516 0.475246 0.123742 -0.018558
C41   C     C_R   0.134629 0.116957 0.870162 -0.140920
C42   C     C_R   0.865371 0.616958 0.129837 -0.140918
C43   C     C_R   0.131217 0.263666 0.817753 -0.102894
C44   C     C_R   0.868783 0.763665 0.182247 -0.102898
H5    H     H_    0.320030 0.408018 0.592176 0.176419
H6    H     H_    0.679970 0.908014 0.407826 0.176415
H7    H     H_    0.407081 0.885005 0.682483 0.154595
H8    H     H_    0.592917 0.385008 0.317515 0.154593
H9    H     H_    0.291664 0.730672 0.875729 0.165896
H10   H     H_    0.708334 0.230679 0.124268 0.165898
H11   H     H_    0.092255 0.371961 0.815404 0.165473
H12   H     H_    0.907745 0.871959 0.184597 0.165468
O11   O     O_R   0.937810 0.773680 0.060480 -0.535414
O12   O     O_R   0.062190 0.273680 0.939520 -0.535412
O13   O     O_R   0.086190 0.439740 0.092580 -0.528945
O14   O     O_R   0.913810 0.939740 0.907420 -0.528944
C45   C     C_R   0.112875 0.609096 0.114205 0.769983
C46   C     C_R   0.887125 0.109097 0.885795 0.769985
O15   O     O_R   0.939760 0.444210 0.069890 -0.539795
O16   O     O_R   0.060240 0.944210 0.930110 -0.539794
O17   O     O_R   0.914790 0.269640 0.916760 -0.506090
O18   O     O_R   0.085210 0.769640 0.083240 -0.506088
C47   C     C_R   0.917543 0.611847 0.083172 0.718201
C48   C     C_R   0.082457 0.111847 0.916828 0.718207
O19   O     O_3   0.992050 0.601530 0.949880 -0.365218
O20   O     O_3   0.007950 0.101530 0.050120 -0.365221
V3    V     V_3+5 0.001480 0.328340 0.009300 1.630192
V4    V     V_3+5 0.998520 0.828340 0.990700 1.630193
Cl1   Cl    Cl    0.820246 0.497237 0.808727 -0.581076
Cl2   Cl    Cl    0.179767 0.997240 0.191257 -0.581086
C49   C     C_2   0.113306 0.559632 0.701960 0.883979
O21   O     O_2   0.128164 0.724302 0.708780 -0.520942
O22   O     O_R   0.041196 0.502840 0.680713 -0.643033
H13   H     H_    0.006459 0.610727 0.673518 0.321215
C50   C     C_2   0.886694 0.059630 0.298040 0.883977
O23   O     O_2   0.871835 0.224300 0.291218 -0.520943
O24   O     O_R   0.958803 0.002838 0.319287 -0.643034
H14   H     H_    0.993540 0.110725 0.326482 0.321213
Cl3   Cl    Cl    0.213668 0.614319 0.603096 -0.598520
Cl4   Cl    Cl    0.786332 0.114316 0.396905 -0.598516
C51   C     C_2   0.738578 0.004254 0.650705 0.818384
O25   O     O_2   0.717582 0.847426 0.630073 -0.531527
O26   O     O_R   0.809315 0.055190 0.655942 -0.629111
H15   H     H_    0.837909 0.949672 0.642520 0.329711
C52   C     C_2   0.261417 0.504285 0.349304 0.818384
O27   O     O_2   0.282410 0.347463 0.369953 -0.531530
O28   O     O_R   0.190680 0.555239 0.344057 -0.629114
H16   H     H_    0.162082 0.449739 0.357487 0.329709
C53   C     C_2   0.389081 0.701336 0.802852 0.755409
O29   O     O_2   0.373617 0.541116 0.812903 -0.555715
O30   O     O_R   0.460499 0.747633 0.809297 -0.664793
H17   H     H_    0.493667 0.636049 0.820054 0.307202
C54   C     C_2   0.610917 0.201344 0.197145 0.755409
O31   O     O_2   0.626381 0.041122 0.187095 -0.555714
O32   O     O_R   0.539499 0.247644 0.190699 -0.664793
H18   H     H_    0.506331 0.136063 0.179941 0.307203
C55   C     C_2   0.195197 0.827867 0.936309 0.744988
O33   O     O_2   0.179596 0.667818 0.915891 -0.568017
O34   O     O_R   0.221410 0.873414 0.016114 -0.644258
H19   H     H_    0.228057 0.760496 0.051252 0.292931
C56   C     C_2   0.804802 0.327873 0.063688 0.744979
O35   O     O_2   0.820399 0.167821 0.084106 -0.568015
O36   O     O_R   0.778593 0.373428 0.983883 -0.644263
H20   H     H_    0.771945 0.260512 0.948744 0.292927

loop_
_geom_bond_atom_site_label_1
_geom_bond_atom_site_label_2
_ccdc_geom_bond_type
C14   C16   A    
C49   O21   D    
O24   H14   S    
C37   Cl3   S    
C40   C56   S    
C20   C26   A    
O32   H18   S    
O1    C3    A    
O2    C4    A    
O16   V4    S    
C2    O7    A    
C51   O25   D    
C31   C33   A    
O5    C3    A    
C53   O30   S    
C5    C9    S    
C25   C53   S    
C5    Cl1   S    
C7    H1    S    
C26   C54   S    
C10   C12   D    
C32   C34   A    
C54   O32   S    
C12   C52   S    
C17   C19   A    
C41   C43   A    
O17   V3    S    
C42   C44   A    
O34   H19   S    
O6    V2    S    
C43   H11   S    
C28   H10   S    
O13   V3    S    
C36   C38   A    
C33   C35   A    
C46   O17   A    
C34   C36   A    
O30   H17   S    
C15   C17   A    
C9    H3    S    
C21   C31   A    
C22   C32   A    
C27   H9    S    
C1    C16   S    
O5    V1    S    
C2    C15   S    
C52   O28   S    
C25   C27   A    
C41   C48   S    
C26   C28   A    
C51   O26   S    
C28   C30   A    
C30   C32   A    
C29   C31   A    
C13   H5    S    
C17   H7    S    
O12   C48   A    
C52   O27   D    
C10   H4    S    
O4    C2    A    
C35   C49   S    
C50   O23   D    
O13   C45   A    
C39   C55   S    
C3    C12   S    
C45   O18   A    
C35   C37   A    
C16   C18   A    
O4    V2    S    
C39   C41   A    
O12   V3    S    
C50   O24   S    
O26   H15   S    
O6    C4    A    
C13   C23   A    
C18   H8    S    
C14   C24   A    
O1    V2    S    
C6    Cl2   S    
O2    V1    S    
C27   C29   A    
C29   C39   A    
O14   V4    S    
C42   C47   S    
O14   C46   A    
C8    H2    S    
C24   C38   A    
C14   H6    S    
C6    C10   S    
O11   C47   A    
O19   V4    S    
O3    V1    S    
C55   O33   D    
C11   C51   S    
C19   C21   A    
C38   Cl4   S    
C7    C46   S    
O16   C48   A    
O3    C1    A    
O36   H20   S    
C53   O29   D    
C33   C43   A    
C4    C11   S    
C34   C44   A    
C56   O36   S    
O7    V1    S    
C1    O8    A    
C21   C23   A    
O11   V4    S    
O8    V2    S    
C56   O35   D    
C22   C24   A    
O15   V3    S    
C23   C37   A    
C20   C22   A    
C5    C7    D    
C18   C20   A    
C40   C42   A    
C8    C45   S    
C6    C8    D    
C9    C11   D    
C19   C25   A    
O18   V4    S    
C44   H12   S    
C13   C15   A    
O20   V3    S    
O9    V2    S    
C30   C40   A    
O28   H16   S    
C49   O22   S    
O10   V1    S    
C36   C50   S    
O22   H13   S    
C54   O31   D    
O15   C47   A    
C55   O34   S    
