data_mof_unit_60217.cif
_audit_creation_date              2012-10-26T17:19:28-0400
_audit_creation_method            fapswitch 2.2
_symmetry_space_group_name_H-M    P1
_symmetry_Int_Tables_number       1
_space_group_crystal_system       triclinic
_cell_length_a                    36.959461
_cell_length_b                    30.209596
_cell_length_c                    21.403403
_cell_angle_alpha                 89.999493
_cell_angle_beta                  54.79889
_cell_angle_gamma                 89.999859
_cell_volume                      19527.4940225

loop_
_atom_site_label
_atom_site_type_symbol
_atom_type_description
_atom_site_fract_x
_atom_site_fract_y
_atom_site_fract_z
_atom_type_partial_charge
C1    C     C_R   0.085710 0.499978 0.414362 0.561145
C2    C     C_R   0.656681 0.460972 0.867846 0.069731
C3    C     C_R   0.986198 0.157181 0.960606 -0.111060
C4    C     C_R   0.500000 0.634065 0.999999 -0.038030
C5    C     C_R   0.000001 0.134065 0.999999 -0.038037
C6    C     C_R   0.485854 0.703470 0.960452 0.028523
C7    C     C_R   0.514143 0.703469 0.039551 0.028497
C8    C     C_R   0.985833 0.203470 0.960485 0.028532
C9    C     C_R   0.014169 0.203469 0.039513 0.028533
C10   C     C_R   0.499998 0.726884 0.000002 -0.022680
C11   C     C_R   0.000001 0.226884 1.000000 -0.022694
C12   C     C_R   0.471789 0.726682 0.921182 0.271332
C13   C     C_R   0.843319 0.960965 0.132179 0.069722
C14   C     C_R   0.528206 0.726682 0.078823 0.271332
C15   C     C_R   0.971744 0.226682 0.921252 0.271333
C16   C     C_R   0.028258 0.226680 0.078746 0.271333
C17   C     C_R   0.970357 0.272858 0.923694 -0.079597
C18   C     C_R   0.029646 0.272856 0.076303 -0.079596
C19   C     C_R   0.470402 0.772858 0.923622 -0.079584
C20   C     C_R   0.529593 0.772857 0.076385 -0.079557
C21   C     C_R   0.984787 0.296850 0.961838 -0.011289
C22   C     C_R   0.015216 0.296850 0.038159 -0.011292
C23   C     C_R   0.484808 0.796850 0.961805 -0.011289
C24   C     C_R   0.156681 0.960967 0.867828 0.069723
C25   C     C_R   0.515188 0.796850 0.038200 -0.011302
C26   C     C_3   0.028362 0.469127 0.742756 -0.101596
C27   C     C_3   0.971788 0.468994 0.257099 -0.101483
C28   C     C_3   0.528336 0.969106 0.742780 -0.101568
C29   C     C_3   0.471623 0.969144 0.257261 -0.101598
C30   C     C_R   0.000001 0.273609 1.000000 -0.004631
C31   C     C_R   0.499998 0.773609 0.000002 -0.004630
C32   C     C_R   0.984446 0.343433 0.962539 0.047847
C33   C     C_R   0.015558 0.343432 0.037457 0.047827
C34   C     C_R   0.484465 0.843433 0.962508 0.047835
C35   C     C_R   0.366284 0.497751 0.133526 -0.000219
C36   C     C_R   0.515531 0.843432 0.037496 0.047836
C37   C     C_R   0.000001 0.366293 1.000000 0.036535
C38   C     C_R   0.499999 0.866293 0.000000 0.036552
C39   C     C_R   0.530212 0.343149 0.932586 -0.088735
C40   C     C_R   0.469789 0.343149 0.067415 -0.088733
C41   C     C_R   0.030199 0.843148 0.932578 -0.088728
C42   C     C_R   0.969802 0.843148 0.067424 -0.088728
C43   C     C_R   0.500000 0.366071 0.000000 0.007148
C44   C     C_R   0.000000 0.866070 0.000001 0.007151
C45   C     C_R   0.468609 0.296789 0.068053 0.028861
C46   C     C_R   0.633716 0.497751 0.866474 -0.000203
C47   C     C_R   0.531391 0.296790 0.931947 0.028860
C48   C     C_R   0.968623 0.796788 0.068064 0.028861
C49   C     C_R   0.031379 0.796789 0.931939 0.028859
C50   C     C_R   0.500000 0.273532 0.000000 0.020919
C51   C     C_R   0.000001 0.773531 0.000002 0.020920
C52   C     C_R   0.436918 0.272987 0.134673 0.095273
C53   C     C_R   0.563083 0.272988 0.865328 0.095270
C54   C     C_R   0.936944 0.772986 0.134693 0.095268
C55   C     C_R   0.063059 0.772987 0.865310 0.095270
C56   C     C_R   0.936748 0.726769 0.133317 -0.100575
C57   C     C_R   0.866285 0.997752 0.133526 -0.000221
C58   C     C_R   0.063254 0.726770 0.866686 -0.100552
C59   C     C_R   0.436724 0.226770 0.133296 -0.100550
C60   C     C_R   0.563277 0.226771 0.866704 -0.100560
C61   C     C_R   0.968001 0.703578 0.066781 -0.004715
C62   C     C_R   0.032001 0.703579 0.933222 -0.004712
C63   C     C_R   0.467988 0.203579 0.066769 -0.004711
C64   C     C_R   0.532012 0.203579 0.933231 -0.004713
C65   C     C_3   0.999807 0.500207 0.811346 -0.012174
C66   C     C_3   0.000193 0.500207 0.188654 -0.012172
C67   C     C_3   0.499808 0.000209 0.811345 -0.012171
C68   C     C_R   0.133715 0.997751 0.866474 -0.000230
C69   C     C_3   0.500192 0.000209 0.188655 -0.012173
C70   C     C_R   0.000001 0.726924 0.000002 0.049089
C71   C     C_R   0.500000 0.226925 0.000000 0.049091
C72   C     C_R   0.967799 0.657283 0.065999 -0.129555
C73   C     C_R   0.032202 0.657284 0.934004 -0.129519
C74   C     C_R   0.467788 0.157284 0.065988 -0.129519
C75   C     C_R   0.532213 0.157284 0.934012 -0.129533
C76   C     C_R   0.000000 0.634136 0.000001 -0.002744
C77   C     C_R   0.500000 0.134136 1.000000 -0.002751
C78   C     C_3   0.012696 0.540492 0.758189 -0.106113
C79   C     C_R   0.343494 0.533831 0.181264 -0.132489
C80   C     C_3   0.987116 0.540432 0.241997 -0.106156
C81   C     C_3   0.512727 0.040484 0.758156 -0.106174
C82   C     C_3   0.487325 0.040501 0.241790 -0.106125
C83   C     C_3   0.971990 0.530304 0.757834 0.266874
C84   C     C_3   0.027871 0.530439 0.242299 0.266866
C85   C     C_3   0.472012 0.030329 0.757813 0.266877
C86   C     C_3   0.528026 0.030292 0.242150 0.266879
C87   C     C_3   0.958585 0.490664 0.811988 -0.116948
C88   C     C_3   0.041461 0.490862 0.187962 -0.117003
C89   C     C_3   0.458577 0.990699 0.811997 -0.116903
C90   C     C_R   0.656507 0.533829 0.818731 -0.132549
C91   C     C_3   0.541410 0.990646 0.188017 -0.116929
C92   C     C_3   0.987348 0.459839 0.742059 -0.157974
C93   C     C_3   0.012847 0.459902 0.257748 -0.157956
C94   C     C_3   0.487314 0.959851 0.742093 -0.157960
C95   C     C_3   0.512632 0.959835 0.257962 -0.157965
C96   C     C_3   0.490206 0.704076 0.805264 -0.120198
C97   C     C_3   0.509764 0.704025 0.194731 -0.120207
C98   C     C_3   0.990098 0.204095 0.805362 -0.120182
C99   C     C_3   0.009908 0.204090 0.194633 -0.120182
C100  C     C_3   0.921908 0.585369 0.830125 -0.098273
C101  C     C_R   0.843494 0.033841 0.181238 -0.132453
C102  C     C_3   0.077675 0.585752 0.170266 -0.098282
C103  C     C_3   0.422028 0.085483 0.830009 -0.098304
C104  C     C_3   0.578126 0.085341 0.169839 -0.098270
C105  C     C_3   0.296969 0.606501 0.340329 -0.114822
C106  C     C_3   0.702944 0.606428 0.659740 -0.114844
C107  C     C_3   0.796917 0.106604 0.340287 -0.114767
C108  C     C_3   0.203120 0.106618 0.659651 -0.114767
C109  C     C_R   0.914290 0.499977 0.585637 0.561268
C110  C     C_R   0.156506 0.033838 0.818752 -0.132425
C111  C     C_R   0.297254 0.534671 0.227726 0.019126
C112  C     C_R   0.702747 0.534668 0.772264 0.019086
C113  C     C_R   0.797254 0.034683 0.227696 0.019156
C114  C     C_R   0.202747 0.034680 0.772296 0.019174
C115  C     C_R   0.273690 0.498078 0.226882 -0.000674
C116  C     C_R   0.726310 0.498077 0.773113 -0.000656
C117  C     C_R   0.773691 0.998081 0.226878 -0.000681
C118  C     C_R   0.226310 0.998080 0.773121 -0.000688
C119  C     C_R   0.296601 0.460930 0.179515 0.033150
C120  C     C_R   0.585710 0.999978 0.414361 0.561256
C121  C     C_R   0.703399 0.460931 0.820488 0.033154
C122  C     C_R   0.796602 0.960924 0.179537 0.033147
C123  C     C_R   0.203398 0.960926 0.820471 0.033146
C124  C     C_R   0.274128 0.571364 0.275244 0.280842
C125  C     C_R   0.725874 0.571358 0.724738 0.280841
C126  C     C_R   0.774128 0.071385 0.275184 0.280847
C127  C     C_R   0.225872 0.071380 0.724800 0.280846
C128  C     C_R   0.227768 0.572067 0.319534 -0.096233
C129  C     C_R   0.772233 0.572060 0.680443 -0.096197
C130  C     C_R   0.727768 0.072087 0.319472 -0.096268
C131  C     C_R   0.414290 0.999978 0.585638 0.561223
C132  C     C_R   0.272232 0.072082 0.680511 -0.096282
C133  C     C_R   0.204129 0.535924 0.319466 -0.026107
C134  C     C_R   0.795872 0.535920 0.680520 -0.026104
C135  C     C_R   0.704129 0.035934 0.319434 -0.026094
C136  C     C_R   0.295871 0.035931 0.680557 -0.026088
C137  C     C_R   0.999771 0.499981 0.620593 0.591220
C138  C     C_R   0.000234 0.499982 0.379402 0.591116
C139  C     C_R   0.499769 0.999981 0.620595 0.591210
C140  C     C_R   0.500229 0.999981 0.379407 0.591234
C141  C     C_R   0.227042 0.498642 0.273574 0.049799
C142  C     C_3   0.999926 0.499915 0.688895 0.058970
C143  C     C_R   0.772958 0.498640 0.726421 0.049813
C144  C     C_R   0.727043 0.998643 0.273570 0.049801
C145  C     C_R   0.272957 0.998643 0.726429 0.049796
C146  C     C_R   0.203236 0.461979 0.274155 0.025314
C147  C     C_R   0.796764 0.461979 0.725849 0.025329
C148  C     C_R   0.703236 0.961972 0.274178 0.025313
C149  C     C_R   0.296764 0.961974 0.725829 0.025312
C150  C     C_R   0.225936 0.425295 0.228013 -0.125303
C151  C     C_R   0.774064 0.425298 0.771998 -0.125288
C152  C     C_R   0.725937 0.925280 0.228061 -0.125297
C153  C     C_3   0.000081 0.499918 0.311098 0.058943
C154  C     C_R   0.274063 0.925284 0.771954 -0.125299
C155  C     C_R   0.272032 0.424790 0.181028 -0.094298
C156  C     C_R   0.727968 0.424793 0.818982 -0.094297
C157  C     C_R   0.772032 0.924775 0.181075 -0.094298
C158  C     C_R   0.227967 0.924779 0.818940 -0.094298
C159  C     C_R   0.157833 0.536445 0.364706 -0.104905
C160  C     C_R   0.842168 0.536441 0.635281 -0.104882
C161  C     C_R   0.657833 0.036454 0.364677 -0.104897
C162  C     C_R   0.342167 0.036452 0.635315 -0.104900
C163  C     C_R   0.134208 0.499765 0.365849 0.012781
C164  C     C_3   0.499923 0.999917 0.688897 0.058965
C165  C     C_R   0.865792 0.499764 0.634148 0.012882
C166  C     C_R   0.634208 0.999765 0.365847 0.012828
C167  C     C_R   0.365792 0.999765 0.634152 0.012804
C168  C     C_R   0.157018 0.462598 0.320778 -0.119363
C169  C     C_R   0.842982 0.462599 0.679227 -0.119266
C170  C     C_R   0.657019 0.962591 0.320801 -0.119310
C171  C     C_R   0.342981 0.962592 0.679206 -0.119333
C172  C     C_R   0.000000 0.414514 0.000001 0.601810
C173  C     C_R   0.500000 0.914514 1.000000 0.601834
C174  C     C_R   0.999939 0.500189 0.879651 0.567858
C175  C     C_3   0.500074 0.999917 0.311105 0.058973
C176  C     C_R   0.000061 0.500189 0.120348 0.567822
C177  C     C_R   0.499939 0.000190 0.879651 0.567861
C178  C     C_R   0.500061 0.000191 0.120349 0.567870
C179  C     C_R   1.000000 0.585726 0.000000 0.531457
C180  C     C_R   0.500000 0.085726 1.000000 0.531479
C181  C     C_3   0.040697 0.509196 0.688975 0.065173
C182  C     C_3   0.959265 0.509004 0.311065 0.065170
C183  C     C_3   0.540702 0.009165 0.688967 0.065166
C184  C     C_3   0.459308 0.009218 0.311021 0.065166
C185  C     C_R   0.500000 0.414350 0.000000 0.574826
C186  C     C_R   0.343318 0.460971 0.132158 0.069728
C187  C     C_R   0.000000 0.914350 0.000000 0.574836
C188  C     C_R   0.414475 0.499177 0.085486 0.565678
C189  C     C_R   0.585525 0.499177 0.914514 0.565677
C190  C     C_R   0.914475 0.999177 0.085486 0.565675
C191  C     C_R   0.085525 0.999177 0.914514 0.565674
C192  C     C_R   0.500000 0.585655 0.999999 0.538721
C193  C     C_R   0.000000 0.085655 1.000000 0.538712
C194  C     C_R   0.513782 0.657181 0.039424 -0.111114
C195  C     C_R   0.486218 0.657181 0.960574 -0.111078
C196  C     C_R   0.013804 0.157180 0.039393 -0.111061
Cu1   Cu    Cu3+1 0.000000 0.544460 0.500000 1.051515
Cu2   Cu    Cu3+1 0.499980 0.499960 0.937270 1.006935
Cu3   Cu    Cu3+1 0.000020 0.999960 0.062730 1.006970
Cu4   Cu    Cu3+1 0.999980 0.999960 0.937270 1.006977
Cu5   Cu    Cu3+1 0.500000 0.044460 0.500000 1.051527
Cu6   Cu    Cu3+1 0.000000 0.455520 0.500000 0.963629
Cu7   Cu    Cu3+1 0.500000 0.955520 0.500000 0.963586
Cu8   Cu    Cu3+1 0.955530 0.500030 0.044440 0.995128
Cu9   Cu    Cu3+1 0.044470 0.500030 0.955560 0.995169
Cu10  Cu    Cu3+1 0.455530 0.000030 0.044440 0.995122
Cu11  Cu    Cu3+1 0.544470 0.000030 0.955560 0.995106
Cu12  Cu    Cu3+1 0.500020 0.499960 0.062730 1.006941
H1    H     H_    0.051720 0.443914 0.737871 0.164523
H2    H     H_    0.859821 0.565051 0.599932 0.147108
H3    H     H_    0.640180 0.065072 0.399998 0.147181
H4    H     H_    0.359820 0.065068 0.599988 0.147212
H5    H     H_    0.138778 0.434351 0.321166 0.128843
H6    H     H_    0.861222 0.434354 0.678846 0.128856
H7    H     H_    0.638780 0.934338 0.321209 0.128876
H8    H     H_    0.361220 0.934341 0.678804 0.128869
H9    H     H_    0.207989 0.396943 0.227937 0.121108
H10   H     H_    0.792010 0.396947 0.772080 0.121118
H11   H     H_    0.707990 0.896921 0.228005 0.121116
H12   H     H_    0.948548 0.443670 0.261870 0.164589
H13   H     H_    0.292009 0.896927 0.772015 0.121112
H14   H     H_    0.287848 0.395727 0.146240 0.162066
H15   H     H_    0.712152 0.395732 0.853777 0.162066
H16   H     H_    0.787849 0.895706 0.146308 0.162067
H17   H     H_    0.212151 0.895711 0.853713 0.162064
H18   H     H_    0.524652 0.638924 0.069397 0.179905
H19   H     H_    0.475351 0.638925 0.930597 0.179935
H20   H     H_    0.024688 0.138923 0.069344 0.179938
H21   H     H_    0.975314 0.138924 0.930653 0.179939
H22   H     H_    0.957917 0.289221 0.894846 0.167415
H23   H     H_    0.551676 0.943874 0.737911 0.164549
H24   H     H_    0.042087 0.289219 0.105150 0.167414
H25   H     H_    0.457983 0.789221 0.894740 0.167428
H26   H     H_    0.542008 0.789219 0.105272 0.167470
H27   H     H_    0.553245 0.362019 0.881604 0.170601
H28   H     H_    0.446756 0.362018 0.118397 0.170603
H29   H     H_    0.053223 0.862018 0.881590 0.170611
H30   H     H_    0.946779 0.862017 0.118412 0.170616
H31   H     H_    0.912137 0.708906 0.184687 0.142286
H32   H     H_    0.087865 0.708907 0.815317 0.142321
H33   H     H_    0.412103 0.208907 0.184658 0.142320
H34   H     H_    0.448251 0.943941 0.262161 0.164532
H35   H     H_    0.587898 0.208909 0.815342 0.142310
H36   H     H_    0.943164 0.639189 0.117126 0.126378
H37   H     H_    0.056837 0.639190 0.882877 0.126435
H38   H     H_    0.443144 0.139190 0.117107 0.126451
H39   H     H_    0.556857 0.139191 0.882893 0.126434
H40   H     H_    0.022996 0.573365 0.765992 0.122483
H41   H     H_    0.976656 0.573255 0.234350 0.122488
H42   H     H_    0.523058 0.073348 0.765930 0.122447
H43   H     H_    0.477040 0.073379 0.233971 0.122475
H44   H     H_    0.924892 0.483194 0.863374 0.149165
H45   H     H_    0.210331 0.600941 0.354176 0.134747
H46   H     H_    0.075189 0.483551 0.136540 0.149037
H47   H     H_    0.424878 0.983258 0.863391 0.149178
H48   H     H_    0.575099 0.983159 0.136633 0.149183
H49   H     H_    0.977237 0.426868 0.734214 0.157035
H50   H     H_    0.023117 0.426980 0.265439 0.156989
H51   H     H_    0.477176 0.926887 0.734275 0.157040
H52   H     H_    0.522726 0.926858 0.265823 0.157058
H53   H     H_    0.362211 0.561542 0.181085 0.161595
H54   H     H_    0.637790 0.561541 0.818910 0.161540
H55   H     H_    0.862211 0.061557 0.181042 0.161618
H56   H     H_    0.789669 0.600931 0.645789 0.134771
H57   H     H_    0.137790 0.061552 0.818941 0.161649
H58   H     H_    0.478728 0.684353 0.776088 0.155524
H59   H     H_    0.520969 0.688230 0.792644 0.116390
H60   H     H_    0.497394 0.738133 0.781096 0.125227
H61   H     H_    0.521264 0.684352 0.223920 0.155537
H62   H     H_    0.479051 0.688093 0.207277 0.116404
H63   H     H_    0.502480 0.738073 0.218948 0.125189
H64   H     H_    0.978602 0.184363 0.776223 0.155528
H65   H     H_    0.020886 0.188265 0.792674 0.116400
H66   H     H_    0.997253 0.238155 0.781214 0.125220
H67   H     H_    0.710330 0.100969 0.354087 0.134678
H68   H     H_    0.021410 0.184366 0.223771 0.155532
H69   H     H_    0.979123 0.188253 0.207325 0.116403
H70   H     H_    0.002747 0.238151 0.218781 0.125221
H71   H     H_    0.946344 0.604221 0.834134 0.117671
H72   H     H_    0.902013 0.563072 0.880287 0.117858
H73   H     H_    0.898826 0.609699 0.831996 0.157017
H74   H     H_    0.053139 0.604501 0.166391 0.117621
H75   H     H_    0.097659 0.563556 0.119985 0.117810
H76   H     H_    0.100656 0.610182 0.168488 0.157037
H77   H     H_    0.446514 0.104376 0.833821 0.117723
H78   H     H_    0.289671 0.100963 0.645891 0.134658
H79   H     H_    0.402182 0.063236 0.880258 0.117826
H80   H     H_    0.398912 0.109781 0.831920 0.157017
H81   H     H_    0.553694 0.104223 0.165859 0.117693
H82   H     H_    0.597994 0.063040 0.119674 0.117850
H83   H     H_    0.601236 0.109645 0.167940 0.157012
H84   H     H_    0.312585 0.575504 0.342361 0.121750
H85   H     H_    0.262924 0.610081 0.393439 0.131291
H86   H     H_    0.316911 0.634694 0.338103 0.152966
H87   H     H_    0.687207 0.575460 0.657945 0.121747
H88   H     H_    0.736973 0.609879 0.606540 0.131248
H89   H     H_    0.140180 0.565057 0.400048 0.147216
H90   H     H_    0.683064 0.634663 0.661894 0.152977
H91   H     H_    0.812472 0.075601 0.342480 0.121749
H92   H     H_    0.762860 0.110261 0.393346 0.131267
H93   H     H_    0.816890 0.134785 0.338000 0.152976
H94   H     H_    0.187629 0.075596 0.657354 0.121758
H95   H     H_    0.237182 0.110339 0.606634 0.131289
H96   H     H_    0.183111 0.134772 0.661969 0.152962
I1    I     I_    0.962242 0.380351 0.904705 -0.415013
I2    I     I_    0.612548 0.303740 0.760239 -0.348076
I3    I     I_    0.887499 0.803737 0.239797 -0.348110
I4    I     I_    0.112504 0.803739 0.760207 -0.348068
I5    I     I_    0.380044 0.405359 0.060867 -0.345905
I6    I     I_    0.619955 0.405362 0.939143 -0.345894
I7    I     I_    0.880046 0.905345 0.060917 -0.345914
I8    I     I_    0.119954 0.905349 0.939099 -0.345929
I9    I     I_    0.037778 0.380349 0.095267 -0.414917
I10   I     I_    0.462279 0.880351 0.904647 -0.415019
I11   I     I_    0.537713 0.880349 0.095364 -0.415021
I12   I     I_    0.105665 0.523119 0.590122 -0.379398
I13   I     I_    0.894235 0.522624 0.409988 -0.379238
I14   I     I_    0.605681 0.023036 0.590098 -0.379362
I15   I     I_    0.394346 0.023172 0.409869 -0.379415
I16   I     I_    0.387453 0.303738 0.239761 -0.348091
O1    O     O_R   0.064870 0.537550 0.435160 -0.504345
O2    O     O_R   0.564910 0.499970 0.988060 -0.481854
O3    O     O_R   0.935090 0.999970 0.011940 -0.481870
O4    O     O_R   0.064910 0.999970 0.988060 -0.481867
O5    O     O_R   0.500060 0.564850 0.052930 -0.519281
O6    O     O_R   0.499940 0.564850 0.947070 -0.519278
O7    O     O_R   0.000060 0.064850 0.052930 -0.519272
O8    O     O_R   0.999940 0.064850 0.947070 -0.519269
O9    O     O_R   0.064850 0.462440 0.435150 -0.515588
O10   O     O_R   0.935150 0.462440 0.564850 -0.515500
O11   O     O_R   0.564850 0.962440 0.435150 -0.515560
O12   O     O_R   0.935130 0.537550 0.564840 -0.504373
O13   O     O_R   0.435150 0.962440 0.564850 -0.515582
O14   O     O_R   0.999990 0.537540 0.591580 -0.466459
O15   O     O_R   0.000010 0.537540 0.408420 -0.466416
O16   O     O_R   0.499990 0.037540 0.591580 -0.466471
O17   O     O_R   0.500010 0.037540 0.408420 -0.466475
O18   O     O_R   0.999980 0.462440 0.591580 -0.523844
O19   O     O_R   0.000020 0.462440 0.408420 -0.523762
O20   O     O_R   0.499980 0.962440 0.591580 -0.523821
O21   O     O_R   0.500020 0.962440 0.408420 -0.523844
O22   O     O_R   0.962450 0.435150 0.037500 -0.479808
O23   O     O_R   0.564870 0.037550 0.435160 -0.504332
O24   O     O_R   0.037550 0.435150 0.962500 -0.479804
O25   O     O_R   0.462450 0.935150 0.037500 -0.479815
O26   O     O_R   0.537550 0.935150 0.962500 -0.479817
O27   O     O_R   0.962450 0.500030 0.945950 -0.504278
O28   O     O_R   0.037550 0.500030 0.054050 -0.504236
O29   O     O_R   0.462450 0.000030 0.945950 -0.504279
O30   O     O_R   0.537550 0.000030 0.054050 -0.504290
O31   O     O_R   0.037540 0.500060 0.870890 -0.501210
O32   O     O_R   0.962460 0.500060 0.129110 -0.501205
O33   O     O_R   0.537540 0.000060 0.870890 -0.501201
O34   O     O_R   0.435130 0.037550 0.564840 -0.504322
O35   O     O_R   0.462460 0.000060 0.129110 -0.501203
O36   O     O_R   0.962440 0.564920 0.037550 -0.516938
O37   O     O_R   0.037560 0.564920 0.962450 -0.516927
O38   O     O_R   0.462440 0.064920 0.037550 -0.516927
O39   O     O_R   0.537560 0.064920 0.962450 -0.516930
O40   O     O_R   0.499970 0.435080 0.053010 -0.488776
O41   O     O_R   0.500030 0.435080 0.946990 -0.488777
O42   O     O_R   0.999970 0.935080 0.053010 -0.488784
O43   O     O_R   0.000030 0.935080 0.946990 -0.488783
O44   O     O_3   0.456485 0.704233 0.884390 -0.563998
O45   O     O_R   0.435150 0.499980 0.117890 -0.510232
O46   O     O_3   0.543510 0.704237 0.115618 -0.563986
O47   O     O_3   0.956412 0.204231 0.884505 -0.563998
O48   O     O_3   0.043593 0.204229 0.115489 -0.563998
O49   O     O_3   0.942790 0.561740 0.760872 -0.544426
O50   O     O_3   0.056925 0.562014 0.239396 -0.544324
O51   O     O_3   0.442829 0.061781 0.760837 -0.544413
O52   O     O_3   0.557244 0.061712 0.239093 -0.544435
O53   O     O_3   0.296841 0.607932 0.274618 -0.564207
O54   O     O_3   0.703166 0.607928 0.725350 -0.564183
O55   O     O_3   0.796844 0.107963 0.274518 -0.564213
O56   O     O_R   0.564850 0.499980 0.882110 -0.510242
O57   O     O_3   0.203152 0.107954 0.725462 -0.564228
O58   O     O_R   0.935150 0.999980 0.117890 -0.510209
O59   O     O_R   0.064850 0.999980 0.882110 -0.510206
O60   O     O_R   0.435090 0.499970 0.011940 -0.481852

loop_
_geom_bond_atom_site_label_1
_geom_bond_atom_site_label_2
_ccdc_geom_bond_type
C103  O51   S    
C196  H20   S    
C182  I13   S    
C139  O20   A    
C101  C113  A    
C83   C87   S    
C37   C172  S    
C115  C141  A    
C120  C166  S    
C144  C148  A    
C136  C162  A    
C4    C194  A    
C131  O34   A    
C156  H15   S    
C39   C47   A    
C139  C164  S    
C28   C183  S    
C154  C158  A    
C107  H92   S    
C99   H70   S    
C97   H62   S    
C73   H37   S    
C26   C92   S    
Cu2   O60   S    
C62   C70   A    
C28   C94   S    
Cu3   O42   S    
Cu10  O35   S    
C14   O46   S    
C95   C175  S    
C134  C143  A    
C146  C150  A    
C40   C43   A    
C49   C51   A    
C184  I15   S    
C157  H16   S    
C180  O39   A    
Cu6   O9    S    
Cu6   O19   S    
C47   C53   A    
C1    O9    A    
Cu3   Cu4   S    
C66   C176  S    
C42   C44   A    
C41   C49   A    
C65   C87   S    
C29   C69   S    
C165  C169  A    
C32   I1    S    
C77   C180  S    
C116  C121  A    
C105  H86   S    
Cu1   O12   S    
C3    C8    A    
Cu10  Cu11  S    
C167  C171  A    
C188  O45   A    
C17   C21   A    
Cu2   O56   S    
C23   C31   A    
C19   C23   A    
C69   C178  S    
C83   O49   S    
C108  O57   S    
C99   H68   S    
C68   C110  A    
C189  O56   A    
C106  H90   S    
Cu11  O39   S    
C112  C125  A    
C171  H8    S    
C108  H96   S    
Cu5   O17   S    
C181  I12   S    
C63   C71   A    
C27   C93   S    
C187  O42   A    
Cu11  O30   S    
C86   O52   S    
Cu6   O10   S    
C2    C121  A    
C120  O11   A    
C152  C157  A    
C60   H35   S    
C111  C124  A    
C102  H75   S    
Cu5   O16   S    
C84   C88   S    
Cu11  O26   S    
C17   H22   S    
C63   C74   A    
C59   C63   A    
C45   C52   A    
C195  H19   S    
C60   C64   A    
C93   C153  S    
C119  C186  A    
C27   C66   S    
C105  O53   S    
C45   C50   A    
Cu12  O5    S    
C107  O55   S    
C188  O60   A    
Cu1   O15   S    
C25   C36   A    
C125  C129  A    
C190  O58   A    
C153  C182  S    
C20   C25   A    
C124  O53   S    
C185  O40   A    
C191  O4    A    
C176  O32   A    
C110  H57   S    
C96   H60   S    
C134  C160  A    
C137  C142  S    
C121  C156  A    
Cu8   O36   S    
C76   C179  S    
C106  H87   S    
C92   H49   S    
C42   H30   S    
Cu8   O32   S    
C16   O48   S    
C52   C59   A    
C140  O17   A    
C66   C88   S    
C13   C57   A    
C43   C185  S    
C177  O33   A    
C82   C184  S    
C89   C94   S    
C103  H77   S    
C33   I9    S    
C69   C82   S    
C98   H66   S    
C177  O29   A    
C100  O49   S    
C35   C188  S    
C127  O57   S    
C74   C77   A    
C78   H40   S    
C62   C73   A    
C80   C182  S    
Cu10  O38   S    
C129  H56   S    
C110  C114  A    
C131  C167  S    
C135  C161  A    
C180  O38   A    
Cu12  O40   S    
C10   C31   A    
C53   C60   A    
C47   C50   A    
C95   H52   S    
Cu7   O20   S    
C138  O19   A    
C117  C144  A    
C54   I3    S    
C113  C126  A    
C68   C191  S    
C49   C55   A    
C24   C123  A    
C93   H50   S    
C13   I7    S    
Cu12  O45   S    
C147  C151  A    
C117  C122  A    
C26   C181  S    
C173  O25   A    
C132  C136  A    
C23   C34   A    
Cu1   Cu6   S    
C42   C48   A    
C32   C37   A    
C7    C194  A    
C75   C77   A    
C5    C196  A    
C113  C117  A    
C67   C81   S    
C115  C119  A    
C150  C155  A    
C100  H71   S    
Cu5   O34   S    
C46   C189  S    
C112  C116  A    
C104  H81   S    
C85   C164  S    
C178  O30   A    
C22   C30   A    
C149  C171  A    
C118  C145  A    
C187  O43   A    
C148  C152  A    
C166  C170  A    
C66   C80   S    
C163  C168  A    
C164  C183  S    
C107  H91   S    
C192  O5    A    
C99   H69   S    
C97   H61   S    
C35   C186  A    
C35   C79   A    
C64   C75   A    
Cu4   O59   S    
C90   H54   S    
C44   C187  S    
C91   C95   S    
C15   O47   S    
C27   H12   S    
Cu8   Cu9   S    
C179  O36   A    
C159  H89   S    
C69   C91   S    
C81   C85   S    
C61   C70   A    
C58   C62   A    
C7    C10   A    
C191  O59   A    
C138  O15   A    
C25   C31   A    
C102  O50   S    
C29   C184  S    
C65   C174  S    
C193  O8    A    
C4    C192  S    
C130  C135  A    
C81   H42   S    
C80   C84   S    
C3    H21   S    
C41   H29   S    
C186  I5    S    
C140  O21   A    
C105  H85   S    
C86   C91   S    
C6    C12   A    
C74   H38   S    
C139  O16   A    
C126  C130  A    
Cu8   O27   S    
C152  H11   S    
C86   C175  S    
C176  O28   A    
C64   C71   A    
C84   O50   S    
C98   O47   S    
C78   C83   S    
C11   C30   A    
C100  H73   S    
C29   H34   S    
Cu9   O28   S    
C24   I8    S    
C40   H28   S    
C124  C128  A    
C104  H83   S    
C18   C22   A    
C87   C92   S    
C96   H58   S    
C97   O46   S    
C190  O3    A    
C99   O48   S    
C6    C195  A    
C40   C45   A    
Cu10  O29   S    
C14   C20   A    
C34   I10   S    
C85   C89   S    
Cu5   O23   S    
C88   H46   S    
C98   H64   S    
C82   C86   S    
C189  O2    A    
Cu7   O21   S    
C33   C37   A    
C174  O31   A    
C133  C159  A    
C34   C38   A    
C143  C147  A    
C149  C154  A    
C102  H76   S    
C84   C153  S    
Cu5   Cu7   S    
C137  O18   A    
C160  C165  A    
C158  H17   S    
C125  O54   S    
C109  C165  S    
C141  C146  A    
Cu6   O18   S    
C172  O22   A    
C61   C72   A    
C8    C15   A    
C79   H53   S    
C41   C44   A    
C94   C164  S    
C75   H39   S    
C5    C193  S    
C2    I6    S    
C15   C17   A    
C146  C168  A    
Cu7   O11   S    
C65   C78   S    
C104  O52   S    
Cu9   O31   S    
C97   H63   S    
C3    C5    A    
C106  H88   S    
C6    C10   A    
C1    O1    A    
Cu3   O7    S    
C46   C90   A    
C160  H2    S    
C21   C30   A    
C133  C141  A    
Cu4   O43   S    
C194  H18   S    
C154  H13   S    
C36   C38   A    
C96   O44   S    
C106  O54   S    
C120  O23   A    
C114  C127  A    
C170  H7    S    
C140  C175  S    
C12   C19   A    
C122  C157  A    
C118  C123  A    
C103  H80   S    
C105  H84   S    
C24   C68   A    
C129  C134  A    
C108  H95   S    
Cu8   O22   S    
C142  C181  S    
C1    C163  S    
C55   C58   A    
C12   O44   S    
C56   C61   A    
C145  C149  A    
C175  C184  S    
C4    C195  A    
C173  O26   A    
C179  O37   A    
Cu7   O13   S    
C102  H74   S    
C56   H31   S    
C90   C112  A    
C50   C71   A    
Cu4   O3    S    
Cu1   O1    S    
C9    C196  A    
C2    C46   A    
C48   C54   A    
C169  H6    S    
C161  H3    S    
C9    C16   A    
C137  O14   A    
C91   H48   S    
C67   C89   S    
C127  C132  A    
C172  O24   A    
C150  H9    S    
C48   C51   A    
C132  H78   S    
C185  O41   A    
C51   C70   A    
C107  H93   S    
C55   I4    S    
Cu3   O58   S    
Cu9   O37   S    
C161  C166  A    
C96   H59   S    
C57   C101  A    
C100  H72   S    
C178  O35   A    
C58   H32   S    
C19   H25   S    
C109  O10   A    
C7    C14   A    
C104  H82   S    
C87   H44   S    
C21   C32   A    
C54   C56   A    
Cu2   Cu12  S    
C183  I14   S    
C82   H43   S    
C28   C67   S    
C67   C177  S    
C72   H36   S    
C29   C95   S    
C38   C173  S    
C39   C43   A    
C151  C156  A    
Cu9   O24   S    
C168  H5    S    
C98   H65   S    
C192  O6    A    
Cu4   O8    S    
C116  C143  A    
C148  C170  A    
C94   H51   S    
C36   I11   S    
C103  H79   S    
C128  H45   S    
Cu1   O14   S    
C151  H10   S    
C72   C76   A    
C9    C11   A    
C28   H23   S    
C114  C118  A    
C135  C144  A    
C20   H26   S    
C80   H41   S    
C101  H55   S    
Cu10  O25   S    
C52   I16   S    
C159  C163  A    
C81   C183  S    
C92   C142  S    
C138  C153  S    
C22   C33   A    
C88   C93   S    
C119  C155  A    
C174  O27   A    
C193  O7    A    
C26   C65   S    
C136  C145  A    
C83   C142  S    
C123  C158  A    
Cu12  O2    S    
C79   C111  A    
C59   H33   S    
C78   C181  S    
C53   I2    S    
C126  O55   S    
C27   C182  S    
C57   C190  S    
Cu2   O6    S    
C18   H24   S    
C128  C133  A    
C39   H27   S    
C13   C122  A    
Cu3   O4    S    
C162  H4    S    
C8    C11   A    
C73   C76   A    
C26   H1    S    
C162  C167  A    
C131  O13   A    
C85   O51   S    
C16   C18   A    
C89   H47   S    
C155  H14   S    
C111  C115  A    
C130  H67   S    
Cu11  O33   S    
C109  O12   A    
C147  C169  A    
Cu2   O41   S    
C108  H94   S    
