data_mof_unit_59889.cif
_audit_creation_date              2013-03-05T15:40:04-0500
_audit_creation_method            fapswitch 2.2
_symmetry_space_group_name_H-M    P1
_symmetry_Int_Tables_number       1
_space_group_crystal_system       triclinic
_cell_length_a                    7.799213
_cell_length_b                    8.570347
_cell_length_c                    10.588791
_cell_angle_alpha                 90.867642
_cell_angle_beta                  86.638413
_cell_angle_gamma                 93.259687
_cell_volume                      705.365066368

loop_
_atom_site_label
_atom_site_type_symbol
_atom_site_description
_atom_site_fract_x
_atom_site_fract_y
_atom_site_fract_z
_atom_type_partial_charge
O1    O     O_R   0.389250 0.738570 0.508180 -0.608756
O2    O     O_R   0.678390 0.711630 0.486820 -0.584166
C1    C     C_R   0.545380 0.794474 0.496943 0.969472
O3    O     O_R   0.355470 0.513470 0.691600 -0.589777
O4    O     O_R   0.644610 0.486520 0.670240 -0.573220
C2    C     C_R   0.504396 0.503741 0.737428 0.860424
Zn1   Zn    Zn3+2 0.306940 0.517990 0.514260 1.015972
Zn2   Zn    Zn3+2 0.693060 0.482010 0.485740 1.010728
O5    O     O_R   0.321610 0.288370 0.513180 -0.633143
O6    O     O_R   0.610750 0.261430 0.491820 -0.629120
O7    O     O_R   0.355390 0.513480 0.329760 -0.641817
O8    O     O_R   0.644530 0.486530 0.308400 -0.607746
C3    C     C_R   0.454650 0.205516 0.503423 0.923569
C4    C     C_R   0.493664 0.482363 0.263564 0.910557
C5    C     C_2   0.601182 0.379500 0.059775 0.245316
C6    C     C_2   0.475278 0.439895 0.133633 -0.382452
H1    H     H_    0.354081 0.466030 0.094882 0.167479
C7    C     C_2   0.584194 0.387096 0.923637 -0.184923
C8    C     C_2   0.519214 0.510679 0.870284 0.059188
H2    H     H_    0.622663 0.287962 0.865380 0.139718
C9    C     C_2   0.569398 0.957827 0.495407 -0.369789
H3    H     H_    0.700685 0.008155 0.485802 0.195586
C10   C     C_2   0.430698 0.042175 0.505504 -0.370975
H4    H     H_    0.299418 0.991838 0.515187 0.204756
N1    N     N_2   0.950320 0.457950 0.466680 -0.152891
H5    H     H_    0.012802 0.398932 0.393892 0.159898
N2    N     N_2   0.049680 0.542050 0.533320 0.037532
N3    N     N_2   0.745181 0.311562 0.111676 -0.283095
H6    H     H_    0.714243 0.239101 0.187600 0.227592
C11   C     C_3   0.882844 0.259198 0.026594 -0.745351
H7    H     H_    0.990816 0.225511 0.082409 0.228158
H8    H     H_    0.931797 0.354959 0.962323 0.289633
H9    H     H_    0.837087 0.155699 0.970872 0.232385
N4    N     N_2   0.486055 0.653510 0.936280 -0.323678
H10   H     H_    0.391624 0.714551 0.898091 0.239897
C12   C     C_3   0.638336 0.752787 0.957462 -0.708651
H11   H     H_    0.601708 0.857089 0.014125 0.220394
H12   H     H_    0.701159 0.792269 0.865612 0.262752
H13   H     H_    0.731066 0.689616 0.010561 0.270585
N5    N     N_R   0.973837 0.605545 0.642339 0.338077
O9    O     O_R   0.980822 0.532453 0.748465 -0.405550
O10   O     O_R   0.948404 0.754179 0.646223 -0.414567

loop_
_geom_bond_atom_site_label_1
_geom_bond_atom_site_label_2
_geom_bond_distance
_ccdc_geom_bond_type
O4    Zn2   1.968187 S    
C11   H8    1.110531 S    
C10   H4    1.088010 S    
O6    C3    1.282507 A    
C2    C8    1.418342 S    
N1    N2    1.266157 D    
C5    C7    1.458093 S    
C7    H2    1.088025 S    
N2    N5    1.384236 S    
Zn2   O8    1.938602 S    
N5    O10   1.299971 A    
O2    C1    1.288471 A    
N3    C11   1.447390 S    
C9    H3    1.087990 S    
Zn1   O7    1.968187 S    
Zn2   N1    2.026646 S    
C5    N3    1.434850 S    
O4    C2    1.283641 A    
C12   H11   1.110561 S    
O3    Zn1   1.938602 S    
C12   H12   1.111631 S    
N3    H6    1.032245 S    
O8    C4    1.292817 A    
N4    H10   1.031874 S    
N4    C12   1.447528 S    
C9    C10   1.333117 D    
C11   H7    1.110388 S    
O7    C4    1.289895 A    
C4    C6    1.431050 S    
C1    C9    1.402085 S    
C5    C6    1.341368 D    
Zn1   N2    2.026646 S    
C3    C10   1.402061 S    
O3    C2    1.292235 A    
C7    C8    1.345560 D    
Zn1   O5    1.977553 S    
O5    C3    1.288613 A    
N5    O9    1.300217 A    
C11   H9    1.111371 S    
N1    H5    1.029334 S    
O1    Zn1   1.962362 S    
C12   H13   1.110737 S    
Zn2   O6    1.962362 S    
O2    Zn2   1.977552 S    
C6    H1    1.088283 S    
O1    C1    1.282524 A    
C8    N4    1.429184 S    
