data_mof_unit_49071.cif
_audit_creation_date              2012-12-10T18:54:28-0500
_audit_creation_method            fapswitch 2.2
_symmetry_space_group_name_H-M    P1
_symmetry_Int_Tables_number       1
_space_group_crystal_system       triclinic
_cell_length_a                    19.270185
_cell_length_b                    18.231709
_cell_length_c                    9.036956
_cell_angle_alpha                 89.788136
_cell_angle_beta                  90.812462
_cell_angle_gamma                 89.821961
_cell_volume                      3174.58258802

loop_
_atom_site_label
_atom_site_type_symbol
_atom_type_description
_atom_site_fract_x
_atom_site_fract_y
_atom_site_fract_z
_atom_type_partial_charge
C1    C     C_R   0.367948 0.499990 0.498714 0.923275
C2    C     C_R   0.632087 0.499738 0.501562 0.922938
C3    C     C_R   0.454659 0.721077 0.408844 0.555457
C4    C     C_R   0.542836 0.278687 0.596145 0.549597
C5    C     C_R   0.545573 0.721224 0.589313 0.553353
C6    C     C_R   0.455776 0.279583 0.406365 0.550039
C7    C     C_R   0.456901 0.799162 0.399267 -0.207923
C8    C     C_R   0.543555 0.200444 0.597416 -0.207356
C9    C     C_R   0.543588 0.799435 0.595607 -0.205767
C10   C     C_R   0.455959 0.201475 0.402276 -0.204784
C11   C     C_R   0.500160 0.839216 0.496662 -0.120946
C12   C     C_R   0.498889 0.161085 0.501140 -0.123379
C13   C     C_R   0.469026 0.960854 0.613159 -0.166982
C14   C     C_R   0.528929 0.039441 0.381577 -0.161032
C15   C     C_R   0.528737 0.962185 0.379862 -0.178123
C16   C     C_R   0.468336 0.037992 0.613740 -0.177439
C17   C     C_R   0.499154 0.078326 0.499177 0.189833
C18   C     C_R   0.499296 0.921946 0.496381 0.181182
C19   C     C_R   0.499864 0.500079 0.220601 0.897981
C20   C     C_R   0.499945 0.499927 0.779390 0.890418
C21   C     C_1   0.499816 0.500112 0.065595 -0.145972
C22   C     C_1   0.499829 0.499915 0.934396 -0.168938
C23   C     C_R   0.742182 0.488550 0.368940 0.406507
C24   C     C_R   0.256666 0.507906 0.360580 0.379336
C25   C     C_R   0.257543 0.487516 0.629254 0.410925
C26   C     C_R   0.743923 0.503989 0.638487 0.416744
C27   C     C_R   0.814563 0.488035 0.369021 -0.238021
C28   C     C_R   0.183546 0.505395 0.361652 -0.264135
C29   C     C_R   0.185180 0.487383 0.628014 -0.236299
C30   C     C_R   0.817012 0.500577 0.636352 -0.263544
C31   C     C_R   0.851615 0.493836 0.502192 0.020221
C32   C     C_R   0.148626 0.495956 0.494732 0.029104
C33   C     C_R   0.707396 0.498429 0.502952 -0.204986
C34   C     C_R   0.292697 0.499418 0.496305 -0.224317
C35   C     C_R   0.963326 0.561335 0.513678 -0.061414
C36   C     C_R   0.037159 0.428082 0.482014 -0.062683
C37   C     C_R   0.036157 0.561893 0.509817 -0.061828
C38   C     C_R   0.964243 0.427437 0.485287 -0.060216
C39   C     C_R   0.072629 0.495299 0.494684 0.007152
C40   C     C_R   0.927709 0.494107 0.500841 0.008644
Cu1   Cu    Cu3+1 0.500000 0.573360 0.500000 1.043885
Cu2   Cu    Cu3+1 0.500000 0.426640 0.500000 1.022871
H1    H     H_    0.841925 0.483522 0.265494 0.139372
H2    H     H_    0.153012 0.509939 0.260649 0.131377
H3    H     H_    0.157427 0.480905 0.730672 0.136299
H4    H     H_    0.847676 0.502670 0.737458 0.133879
H5    H     H_    0.445411 0.931364 0.703501 0.124602
H6    H     H_    0.552426 0.069014 0.291142 0.121200
H7    H     H_    0.552193 0.933674 0.288235 0.125264
H8    H     H_    0.443329 0.066289 0.703565 0.116657
N1    N     N_R   0.500000 0.683620 0.500000 -0.256941
N2    N     N_R   0.500000 0.316380 0.500000 -0.258216
O1    O     O_R   0.400190 0.561980 0.499980 -0.556542
O2    O     O_R   0.599810 0.438020 0.500020 -0.547322
O3    O     O_R   0.599810 0.561980 0.500020 -0.564973
O4    O     O_R   0.400190 0.438020 0.499980 -0.574781
O5    O     O_R   0.500000 0.561940 0.288400 -0.548139
O6    O     O_R   0.500000 0.438060 0.711600 -0.574952
O7    O     O_R   0.500000 0.561940 0.711600 -0.543789
O8    O     O_R   0.500000 0.438060 0.288400 -0.553181
O9    O     O_3   0.704995 0.484717 0.237157 -0.607574
C41   C     C_3   0.706597 0.411787 0.185830 -0.329098
H9    H     H_    0.673071 0.408052 0.085399 0.194873
H10   H     H_    0.685689 0.372941 0.269417 0.176245
H11   H     H_    0.759929 0.395188 0.154016 0.162546
O10   O     O_3   0.295827 0.513651 0.232028 -0.588585
C42   C     C_3   0.260198 0.548828 0.114024 -0.271035
H12   H     H_    0.223637 0.510229 0.059010 0.167245
H13   H     H_    0.233066 0.599549 0.150302 0.133466
H14   H     H_    0.298751 0.565569 0.030509 0.228851
O11   O     O_3   0.294370 0.481652 0.761359 -0.601928
C43   C     C_3   0.292199 0.408212 0.810567 -0.331720
H15   H     H_    0.326016 0.402776 0.910436 0.210029
H16   H     H_    0.312436 0.369895 0.725555 0.161540
H17   H     H_    0.238806 0.392261 0.842678 0.154153
O12   O     O_3   0.705490 0.507840 0.768126 -0.583707
C44   C     C_3   0.740497 0.544946 0.883780 -0.283836
H18   H     H_    0.777804 0.507511 0.941013 0.170462
H19   H     H_    0.701652 0.562185 0.966210 0.230191
H20   H     H_    0.766880 0.595557 0.844643 0.138267
C45   C     C_R   0.923963 0.630612 0.533361 0.146264
C46   C     C_R   0.920966 0.663400 0.673408 -0.147531
C47   C     C_R   0.880115 0.725931 0.694414 -0.145037
C48   C     C_R   0.842141 0.756020 0.575894 -0.132224
C49   C     C_R   0.845214 0.723798 0.435994 -0.147564
C50   C     C_R   0.886051 0.661302 0.414515 -0.133803
H21   H     H_    0.949298 0.639802 0.766457 0.109370
H22   H     H_    0.877479 0.750746 0.802807 0.122617
H23   H     H_    0.810170 0.804136 0.592565 0.119745
H24   H     H_    0.815617 0.746991 0.344425 0.121937
H25   H     H_    0.887516 0.636277 0.306088 0.114293
C51   C     C_R   0.076972 0.358652 0.469488 0.147859
C52   C     C_R   0.086588 0.313227 0.593803 -0.139018
C53   C     C_R   0.127702 0.250105 0.584350 -0.144769
C54   C     C_R   0.159349 0.232070 0.450963 -0.124364
C55   C     C_R   0.149566 0.276890 0.326540 -0.150582
C56   C     C_R   0.108416 0.339981 0.335504 -0.142994
H26   H     H_    0.063090 0.327314 0.698138 0.110335
H27   H     H_    0.135414 0.215432 0.680688 0.118200
H28   H     H_    0.191512 0.183453 0.444051 0.115798
H29   H     H_    0.174183 0.262952 0.223416 0.121855
H30   H     H_    0.101593 0.374665 0.238812 0.109011
C57   C     C_R   0.074759 0.631999 0.516989 0.149530
C58   C     C_R   0.084396 0.673448 0.387827 -0.141830
C59   C     C_R   0.125033 0.736842 0.392113 -0.149639
C60   C     C_R   0.156063 0.759151 0.525226 -0.125330
C61   C     C_R   0.146253 0.718252 0.654411 -0.134805
C62   C     C_R   0.105739 0.654768 0.650500 -0.138766
H31   H     H_    0.061407 0.655954 0.283788 0.109671
H32   H     H_    0.132892 0.768383 0.292078 0.121100
H33   H     H_    0.187843 0.807994 0.528160 0.113749
H34   H     H_    0.170447 0.735453 0.757324 0.120891
H35   H     H_    0.099202 0.622863 0.750649 0.107499
C63   C     C_R   0.925802 0.357308 0.473395 0.141194
C64   C     C_R   0.921295 0.320475 0.337524 -0.144296
C65   C     C_R   0.882425 0.256077 0.325237 -0.141898
C66   C     C_R   0.847911 0.228235 0.448294 -0.120816
C67   C     C_R   0.852460 0.264605 0.583971 -0.130141
C68   C     C_R   0.891388 0.328858 0.596763 -0.133970
H36   H     H_    0.947151 0.342115 0.241170 0.111732
H37   H     H_    0.878751 0.227972 0.220151 0.120674
H38   H     H_    0.817608 0.178558 0.438488 0.112054
H39   H     H_    0.825672 0.243250 0.679199 0.128288
H40   H     H_    0.894348 0.356766 0.702249 0.114902
O13   O     O_3   0.408646 0.681324 0.321585 -0.539551
C69   C     C_3   0.339229 0.697504 0.360357 -0.248220
H41   H     H_    0.333370 0.721837 0.472697 0.118694
H42   H     H_    0.308929 0.646302 0.359480 0.205170
H43   H     H_    0.314986 0.733877 0.275553 0.162747
O14   O     O_3   0.589899 0.318139 0.681524 -0.541675
C70   C     C_3   0.574962 0.311460 0.833849 -0.251043
H44   H     H_    0.610558 0.271083 0.886985 0.160092
H45   H     H_    0.519880 0.297168 0.856997 0.126569
H46   H     H_    0.585858 0.364719 0.888016 0.188398
O15   O     O_3   0.591944 0.681638 0.677112 -0.542969
C71   C     C_3   0.660966 0.695851 0.633282 -0.251597
H47   H     H_    0.691719 0.644987 0.645527 0.201729
H48   H     H_    0.685484 0.736594 0.708086 0.161947
H49   H     H_    0.665726 0.713796 0.515633 0.123097
O16   O     O_3   0.415012 0.319913 0.307735 -0.549255
C72   C     C_3   0.343795 0.312502 0.341012 -0.256521
H50   H     H_    0.317015 0.364592 0.312498 0.206689
H51   H     H_    0.319431 0.270119 0.269993 0.161117
H52   H     H_    0.333743 0.300775 0.460059 0.124067
C73   C     C_R   0.414188 0.837762 0.286005 0.165736
C74   C     C_R   0.428476 0.828040 0.135687 -0.108991
C75   C     C_R   0.386164 0.860787 0.027191 -0.150619
C76   C     C_R   0.328510 0.902230 0.068447 -0.111187
C77   C     C_R   0.313486 0.911300 0.218206 -0.133774
C78   C     C_R   0.356723 0.880184 0.327028 -0.154932
H53   H     H_    0.471894 0.794319 0.103534 0.121197
H54   H     H_    0.397420 0.853024 0.911312 0.117782
H55   H     H_    0.295091 0.926661 0.984443 0.110576
H56   H     H_    0.267803 0.941588 0.250005 0.114993
H57   H     H_    0.344191 0.886936 0.442645 0.116719
C79   C     C_R   0.594965 0.160751 0.691056 0.180334
C80   C     C_R   0.664711 0.157680 0.648871 -0.101814
C81   C     C_R   0.714190 0.124166 0.741596 -0.175253
C82   C     C_R   0.694435 0.094250 0.877185 -0.121821
C83   C     C_R   0.624910 0.096310 0.918963 -0.121512
C84   C     C_R   0.575239 0.129427 0.826264 -0.166969
H58   H     H_    0.680731 0.181819 0.545162 0.118649
H59   H     H_    0.767919 0.121656 0.708810 0.116750
H60   H     H_    0.732964 0.068988 0.949378 0.111114
H61   H     H_    0.609628 0.072827 0.023693 0.121617
H62   H     H_    0.521968 0.132654 0.861714 0.110087
C85   C     C_R   0.586752 0.838477 0.706828 0.159829
C86   C     C_R   0.576552 0.825499 0.858017 -0.108827
C87   C     C_R   0.618814 0.859584 0.964012 -0.157793
C88   C     C_R   0.672248 0.905949 0.919391 -0.118652
C89   C     C_R   0.683113 0.918680 0.768792 -0.128055
C90   C     C_R   0.640315 0.885456 0.662629 -0.155475
H63   H     H_    0.536360 0.788257 0.892791 0.127562
H64   H     H_    0.610641 0.849396 0.080542 0.118731
H65   H     H_    0.705437 0.931688 0.001503 0.111263
H66   H     H_    0.725001 0.953901 0.734187 0.129134
H67   H     H_    0.649898 0.894871 0.546327 0.121312
C91   C     C_R   0.411915 0.162922 0.292427 0.176106
C92   C     C_R   0.351853 0.126332 0.337916 -0.160511
C93   C     C_R   0.306455 0.096371 0.232701 -0.148619
C94   C     C_R   0.321822 0.100621 0.082195 -0.102379
C95   C     C_R   0.382256 0.135754 0.036491 -0.156868
C96   C     C_R   0.427067 0.167308 0.141135 -0.116920
H68   H     H_    0.338983 0.123564 0.454089 0.114415
H69   H     H_    0.258917 0.070676 0.267868 0.111637
H70   H     H_    0.286646 0.077174 0.000958 0.109041
H71   H     H_    0.393722 0.139593 0.919875 0.108930
H72   H     H_    0.472983 0.195878 0.104526 0.115210

loop_
_geom_bond_atom_site_label_1
_geom_bond_atom_site_label_2
_ccdc_geom_bond_type
C90   H67   S    
C15   C18   A    
C44   H18   S    
C59   H32   S    
C11   C18   S    
C52   C53   A    
C47   H22   S    
C61   H34   S    
C54   C55   A    
C66   H38   S    
C4    C8    A    
C70   H46   S    
Cu2   O6    S    
C45   C46   A    
C35   C45   S    
C77   C78   A    
O15   C71   S    
C68   H40   S    
C19   O5    A    
C7    C11   A    
C69   H41   S    
C13   C18   A    
C4    N2    A    
C47   C48   A    
C79   C80   A    
C35   C37   A    
C1    O4    A    
C16   H8    S    
C92   H68   S    
C29   C32   A    
C3    C7    A    
C50   H25   S    
C72   H51   S    
C49   C50   A    
C58   H31   S    
C38   C63   S    
C88   C89   A    
C46   H21   S    
C65   C66   A    
Cu1   Cu2   S    
C32   C39   S    
C1    O1    A    
C95   C96   A    
Cu1   O3    S    
C41   H10   S    
Cu2   O4    S    
C31   C40   S    
C67   C68   A    
C73   C78   A    
C80   C81   A    
C75   C76   A    
C16   C17   A    
C23   C33   A    
C12   C17   S    
C1    C34   S    
C56   H30   S    
C26   O12   S    
C87   H64   S    
C57   C62   A    
C25   O11   S    
C23   C27   A    
C45   C50   A    
C24   O10   S    
C25   C34   A    
C60   H33   S    
C36   C51   S    
C15   H7    S    
O10   C42   S    
C21   C22   T    
C14   C17   A    
C53   C54   A    
C71   H49   S    
C75   H54   S    
C58   C59   A    
C51   C56   A    
C73   C74   A    
C88   H65   S    
C44   H19   S    
C25   C29   A    
C86   H63   S    
C65   H37   S    
C27   C31   A    
C42   H12   S    
C10   C91   S    
C87   C88   A    
C91   C92   A    
C9    C85   S    
C94   H70   S    
O16   C72   S    
Cu1   O7    S    
C71   H48   S    
C2    O2    A    
C72   H52   S    
Cu2   O8    S    
C85   C86   A    
C13   H5    S    
C3    N1    A    
C54   H28   S    
C71   H47   S    
C4    O14   S    
C69   H43   S    
C94   C95   A    
C28   H2    S    
C24   C34   A    
C74   H53   S    
C29   H3    S    
C42   H13   S    
C62   H35   S    
C91   C96   A    
C77   H56   S    
C96   H72   S    
C5    C9    A    
C41   H9    S    
C26   C33   A    
C82   C83   A    
C28   C32   A    
C30   C31   A    
C8    C12   A    
C55   C56   A    
C83   H61   S    
C48   C49   A    
C20   O7    A    
C67   H39   S    
C9    C11   A    
C89   C90   A    
Cu1   O1    S    
C10   C12   A    
C81   H59   S    
C2    C33   S    
C43   H16   S    
C86   C87   A    
C20   C22   S    
C79   C84   A    
C26   C30   A    
C78   H57   S    
C81   C82   A    
C48   H23   S    
C61   C62   A    
C20   O6    A    
C70   H44   S    
C93   C94   A    
C95   H71   S    
C74   C75   A    
C89   H66   S    
C44   H20   S    
C5    O15   S    
C69   H42   S    
C41   H11   S    
C19   C21   S    
C82   H60   S    
C30   H4    S    
C36   C39   A    
C24   C28   A    
C43   H15   S    
C70   H45   S    
C6    C10   A    
C14   H6    S    
C49   H24   S    
C3    O13   S    
C63   C64   A    
C85   C90   A    
C19   O8    A    
C59   C60   A    
C66   C67   A    
C2    O3    A    
C42   H14   S    
C6    N2    A    
C83   C84   A    
C36   C38   A    
C35   C40   A    
Cu1   O5    S    
O11   C43   S    
C37   C39   A    
C72   H50   S    
Cu2   O2    S    
C38   C40   A    
O12   C44   S    
C43   H17   S    
O13   C69   S    
C63   C68   A    
C53   H27   S    
C52   H26   S    
C51   C52   A    
O14   C70   S    
C76   C77   A    
C37   C57   S    
C6    O16   S    
O9    C41   S    
C8    C79   S    
C93   H69   S    
C84   H62   S    
C92   C93   A    
C27   H1    S    
C23   O9    S    
C64   H36   S    
C60   C61   A    
C13   C16   A    
C57   C58   A    
C14   C15   A    
C5    N1    A    
C46   C47   A    
C76   H55   S    
C55   H29   S    
C80   H58   S    
Cu1   N1    S    
C64   C65   A    
Cu2   N2    S    
C7    C73   S    
