data_mof_unit_63034.cif
_audit_creation_date              2013-03-05T16:13:32-0500
_audit_creation_method            fapswitch 2.2
_symmetry_space_group_name_H-M    P1
_symmetry_Int_Tables_number       1
_space_group_crystal_system       triclinic
_cell_length_a                    37.148559
_cell_length_b                    30.278912
_cell_length_c                    21.347757
_cell_angle_alpha                 89.92899
_cell_angle_beta                  54.616108
_cell_angle_gamma                 89.966558
_cell_volume                      19577.0204941

loop_
_atom_site_label
_atom_site_type_symbol
_atom_site_description
_atom_site_fract_x
_atom_site_fract_y
_atom_site_fract_z
_atom_type_partial_charge
O1    O     O_R   0.934530 0.463050 0.065470 -0.613146
O2    O     O_R   0.065470 0.463050 0.934530 -0.613623
O3    O     O_R   0.434530 0.963050 0.065470 -0.613662
O4    O     O_R   0.565470 0.963050 0.934530 -0.613804
O5    O     O_R   0.934550 0.536970 0.065450 -0.620592
O6    O     O_R   0.065450 0.536970 0.934550 -0.617140
O7    O     O_R   0.434550 0.036970 0.065450 -0.619424
O8    O     O_R   0.565450 0.036970 0.934550 -0.618972
C1    C     C_R   0.913694 0.500015 0.086108 0.874471
C2    C     C_R   0.086305 0.500022 0.913893 0.872371
C3    C     C_R   0.413694 0.000015 0.086106 0.873852
C4    C     C_R   0.586306 0.000021 0.913893 0.873597
O9    O     O_R   0.000010 0.463050 0.093020 -0.594223
O10   O     O_R   0.999990 0.463050 0.906980 -0.595034
O11   O     O_R   0.500010 0.963050 0.093020 -0.594779
O12   O     O_R   0.499990 0.963050 0.906980 -0.595114
O13   O     O_R   0.000020 0.536970 0.093000 -0.590123
O14   O     O_R   0.999980 0.536970 0.907000 -0.587391
O15   O     O_R   0.500020 0.036970 0.093000 -0.587804
O16   O     O_R   0.499980 0.036970 0.907000 -0.587442
C5    C     C_R   0.000644 0.500002 0.120883 0.944155
C6    C     C_R   0.999467 0.500088 0.879035 0.944152
C7    C     C_R   0.500566 0.000039 0.120930 0.943732
C8    C     C_R   0.499463 0.000088 0.879039 0.943737
Zn1   Zn    Zn3+2 1.000000 0.450650 0.000000 1.097744
Zn2   Zn    Zn3+2 0.500000 0.950650 0.000000 1.096744
Zn3   Zn    Zn3+2 0.000000 0.549370 0.000000 1.100197
Zn4   Zn    Zn3+2 0.500000 0.049370 0.000000 1.104091
C9    C     C_R   0.960484 0.342630 0.548681 -0.174849
C10   C     C_R   0.039471 0.342673 0.450463 -0.170039
C11   C     C_R   0.460482 0.842636 0.548952 -0.172964
C12   C     C_R   0.539476 0.842662 0.450785 -0.175167
C13   C     C_R   0.507055 0.703130 0.436646 -0.048483
C14   C     C_R   0.492875 0.703095 0.563026 -0.048997
C15   C     C_R   0.007079 0.203097 0.436501 -0.048028
C16   C     C_R   0.992930 0.203130 0.562858 -0.049233
C17   C     C_R   0.959829 0.296682 0.548734 0.297095
C18   C     C_R   0.040131 0.296724 0.450314 0.296488
C19   C     C_R   0.459813 0.796690 0.548980 0.295918
C20   C     C_R   0.540122 0.796713 0.450613 0.296417
C21   C     C_3   0.958720 0.495527 0.270727 -0.291791
C22   C     C_3   0.040015 0.488629 0.730881 -0.303266
C23   C     C_3   0.459795 0.989296 0.269340 -0.303161
C24   C     C_3   0.540038 0.988719 0.730862 -0.303357
C25   C     C_3   0.975744 0.534205 0.295332 -0.224403
C26   C     C_3   0.029619 0.529257 0.698827 -0.227605
C27   C     C_3   0.470992 0.029723 0.300430 -0.227420
C28   C     C_3   0.529550 0.029323 0.698897 -0.227401
H1    H     H_    0.956016 0.562275 0.333494 0.194206
H2    H     H_    0.053782 0.553554 0.655935 0.197079
H3    H     H_    0.447316 0.054493 0.342730 0.196628
H4    H     H_    0.553658 0.053673 0.656059 0.197074
H5    H     H_    0.924703 0.491401 0.286535 0.196432
H6    H     H_    0.072915 0.479084 0.716256 0.191453
H7    H     H_    0.426717 0.980388 0.284172 0.191151
H8    H     H_    0.572958 0.979248 0.716217 0.191350
C29   C     C_3   0.000721 0.500165 0.310592 -0.203990
C30   C     C_3   0.999434 0.499455 0.689240 -0.200758
C31   C     C_3   0.500574 0.999350 0.310754 -0.199777
C32   C     C_3   0.499433 0.999452 0.689241 -0.199968
C33   C     C_3   0.984057 0.462352 0.286566 0.309736
C34   C     C_3   0.009689 0.459704 0.720604 0.311042
C35   C     C_3   0.489538 0.959793 0.280332 0.310766
C36   C     C_3   0.509778 0.959725 0.720518 0.310995
C37   C     C_3   0.025359 0.466782 0.204607 0.239272
C38   C     C_3   0.969667 0.471244 0.801075 0.241066
C39   C     C_3   0.529787 0.970539 0.199595 0.240529
C40   C     C_3   0.469729 0.971175 0.801013 0.240943
C41   C     C_3   0.043117 0.504556 0.227927 -0.302778
C42   C     C_3   0.958383 0.511105 0.770407 -0.315679
C43   C     C_3   0.541854 0.010181 0.229317 -0.315674
C44   C     C_3   0.458355 0.011010 0.770435 -0.315839
C45   C     C_3   0.017551 0.537538 0.212516 0.347641
C46   C     C_3   0.988970 0.539738 0.780266 0.347399
C47   C     C_3   0.511846 0.039394 0.218756 0.347375
C48   C     C_3   0.488877 0.039712 0.780360 0.347238
C49   C     C_3   0.000887 0.499978 0.187928 -0.238169
C50   C     C_3   0.999190 0.500248 0.812091 -0.225641
C51   C     C_3   0.500849 0.000102 0.187867 -0.225448
C52   C     C_3   0.499186 0.000246 0.812097 -0.225461
H9    H     H_    0.077349 0.508494 0.211171 0.212307
H10   H     H_    0.925241 0.520441 0.785939 0.211537
H11   H     H_    0.575175 0.018875 0.213562 0.211743
H12   H     H_    0.425193 0.020270 0.785988 0.211468
C53   C     C_R   0.797103 0.540297 0.194673 -0.148585
C54   C     C_R   0.202896 0.540318 0.805362 -0.149112
C55   C     C_R   0.297102 0.040298 0.194673 -0.148909
C56   C     C_R   0.702905 0.040319 0.805220 -0.148658
H13   H     H_    0.779831 0.571484 0.207728 0.158743
H14   H     H_    0.220167 0.571498 0.792367 0.159347
H15   H     H_    0.279830 0.071484 0.207735 0.158885
H16   H     H_    0.720182 0.071505 0.792088 0.159185
C57   C     C_R   0.842833 0.540117 0.149816 -0.144342
C58   C     C_R   0.157166 0.540126 0.850247 -0.138298
C59   C     C_R   0.342832 0.040117 0.149818 -0.143080
C60   C     C_R   0.657174 0.040132 0.850086 -0.142489
H17   H     H_    0.860209 0.571250 0.128165 0.182983
H18   H     H_    0.139789 0.571241 0.871985 0.185301
H19   H     H_    0.360209 0.071251 0.128176 0.183474
H20   H     H_    0.639803 0.071259 0.871665 0.183878
C61   C     C_R   0.865680 0.500102 0.133291 -0.035261
C62   C     C_R   0.134317 0.500122 0.866692 -0.039543
C63   C     C_R   0.365680 0.000101 0.133285 -0.034973
C64   C     C_R   0.634320 0.000117 0.866707 -0.035539
C65   C     C_R   0.842325 0.460259 0.161992 -0.134552
C66   C     C_R   0.157669 0.460303 0.837889 -0.142780
C67   C     C_R   0.342325 0.960258 0.161974 -0.137434
C68   C     C_R   0.657667 0.960283 0.838096 -0.138048
H21   H     H_    0.859347 0.428998 0.149827 0.180415
H22   H     H_    0.140646 0.429051 0.849987 0.181062
H23   H     H_    0.359347 0.928997 0.149802 0.180070
H24   H     H_    0.640641 0.929021 0.850337 0.180105
C69   C     C_R   0.796539 0.460505 0.207151 -0.136150
C70   C     C_R   0.203454 0.460559 0.792716 -0.138675
C71   C     C_R   0.296539 0.960503 0.207131 -0.137587
C72   C     C_R   0.703453 0.960533 0.792934 -0.137918
C73   C     C_R   0.773869 0.500521 0.223507 0.117206
C74   C     C_R   0.226128 0.500564 0.776434 0.116961
C75   C     C_R   0.273869 0.000520 0.223497 0.117421
C76   C     C_R   0.726131 0.000549 0.776477 0.117319
C77   C     C_R   0.702659 0.478920 0.342100 -0.145404
C78   C     C_R   0.297337 0.479029 0.657867 -0.146188
C79   C     C_R   0.202659 0.978912 0.342087 -0.146346
C80   C     C_R   0.797334 0.978960 0.657954 -0.146340
H25   H     H_    0.719919 0.461046 0.361254 0.160640
H26   H     H_    0.280075 0.461212 0.638717 0.159327
H27   H     H_    0.219921 0.961033 0.361233 0.159368
H28   H     H_    0.780067 0.961099 0.638857 0.159231
C81   C     C_R   0.656990 0.480285 0.388848 -0.143699
C82   C     C_R   0.343006 0.480372 0.611144 -0.144095
C83   C     C_R   0.156991 0.980278 0.388838 -0.144007
C84   C     C_R   0.843002 0.980313 0.611210 -0.144070
C85   C     C_R   0.634070 0.503421 0.365301 -0.164477
C86   C     C_R   0.365931 0.503437 0.634678 -0.164215
C87   C     C_R   0.134070 0.003421 0.365300 -0.164270
C88   C     C_R   0.865931 0.003431 0.634683 -0.164218
C89   C     C_R   0.657357 0.526835 0.294926 0.305009
C90   C     C_R   0.342649 0.526798 0.705016 0.305104
C91   C     C_R   0.157356 0.026841 0.294931 0.304962
C92   C     C_R   0.842654 0.026838 0.704974 0.305022
C93   C     C_R   0.703317 0.524714 0.248045 -0.195621
C94   C     C_R   0.296689 0.524689 0.751883 -0.196333
C95   C     C_R   0.203315 0.024719 0.248047 -0.195664
C96   C     C_R   0.796693 0.024727 0.751857 -0.195636
H29   H     H_    0.721619 0.542297 0.193777 0.186691
H30   H     H_    0.278393 0.542224 0.806130 0.186731
H31   H     H_    0.221616 0.042308 0.193784 0.186649
H32   H     H_    0.778398 0.042302 0.806065 0.186666
C97   C     C_R   0.725867 0.500966 0.271562 0.035531
C98   C     C_R   0.274131 0.501015 0.728377 0.036148
C99   C     C_R   0.225867 0.000965 0.271555 0.036035
C100  C     C_R   0.774133 0.000997 0.728416 0.036133
C101  C     C_R   0.999981 0.365611 0.499632 -0.116291
C102  C     C_R   0.499986 0.865609 0.499916 -0.112533
H33   H     H_    0.929855 0.360457 0.586365 0.209254
H34   H     H_    0.070098 0.360534 0.412824 0.207734
H35   H     H_    0.429856 0.860472 0.586615 0.208051
H36   H     H_    0.570110 0.860516 0.413170 0.207912
C103  C     C_R   0.999985 0.273692 0.499531 -0.179874
C104  C     C_R   0.499963 0.773690 0.499773 -0.179797
C105  C     C_R   0.500002 0.274177 0.500181 -0.020852
C106  C     C_R   0.000006 0.774177 0.500188 -0.020787
O17   O     O_R   0.036960 0.565440 0.463030 -0.627017
O18   O     O_R   0.963040 0.565440 0.536970 -0.627293
O19   O     O_R   0.536960 0.065440 0.463030 -0.627700
O20   O     O_R   0.463040 0.065440 0.536970 -0.627984
C107  C     C_R   0.000003 0.586182 0.500004 0.849862
C108  C     C_R   0.500003 0.086182 0.500003 0.850023
O21   O     O_R   0.036960 0.499960 0.370010 -0.621210
O22   O     O_R   0.963040 0.499960 0.629990 -0.622196
O23   O     O_R   0.536960 0.999960 0.370010 -0.623909
O24   O     O_R   0.463040 0.999960 0.629990 -0.623433
O25   O     O_R   0.963040 0.499940 0.443930 -0.607911
O26   O     O_R   0.036960 0.499940 0.556070 -0.606251
O27   O     O_R   0.463040 0.999940 0.443930 -0.605744
O28   O     O_R   0.536960 0.999940 0.556070 -0.606414
C109  C     C_R   0.000158 0.500014 0.378342 0.960266
C110  C     C_R   0.999861 0.499735 0.621631 0.981814
C111  C     C_R   0.500140 0.999696 0.378368 0.979834
C112  C     C_R   0.499861 0.999733 0.621632 0.980481
Zn5   Zn    Zn3+2 0.049370 0.499970 0.450630 1.041863
Zn6   Zn    Zn3+2 0.950630 0.499970 0.549370 1.045026
Zn7   Zn    Zn3+2 0.549370 0.999970 0.450630 1.042013
Zn8   Zn    Zn3+2 0.450630 0.999970 0.549370 1.042911
O29   O     O_R   0.036980 0.434490 0.463020 -0.610716
O30   O     O_R   0.963020 0.434490 0.536980 -0.615631
O31   O     O_R   0.536980 0.934490 0.463020 -0.612804
O32   O     O_R   0.463020 0.934490 0.536980 -0.611781
H37   H     H_    0.512618 0.640146 0.387314 0.188038
H38   H     H_    0.487342 0.640093 0.612492 0.188102
H39   H     H_    0.012624 0.140093 0.387258 0.188035
H40   H     H_    0.987401 0.140149 0.612397 0.188016
C113  C     C_R   0.999994 0.413653 0.499797 0.995880
C114  C     C_R   0.499997 0.913652 0.499987 1.010263
O33   O     O_R   0.500030 0.565470 0.552480 -0.612335
O34   O     O_R   0.499970 0.565470 0.447520 -0.612457
O35   O     O_R   0.000030 0.065470 0.552480 -0.612329
O36   O     O_R   0.999970 0.065470 0.447520 -0.612474
C115  C     C_R   0.499984 0.634260 0.499907 -0.047307
C116  C     C_R   0.000011 0.134261 0.499845 -0.047245
C117  C     C_R   0.499998 0.586276 0.499968 0.920823
C118  C     C_R   0.000004 0.086276 0.499957 0.921033
O37   O     O_R   0.565480 0.500000 0.487030 -0.612600
O38   O     O_R   0.434520 0.500000 0.512970 -0.612703
O39   O     O_R   0.065480 0.000000 0.487030 -0.612721
O40   O     O_R   0.934520 0.000000 0.512970 -0.612661
O41   O     O_R   0.565480 0.499990 0.382000 -0.585156
O42   O     O_R   0.434520 0.499990 0.618000 -0.585205
O43   O     O_R   0.065480 0.999990 0.382000 -0.585217
O44   O     O_R   0.934520 0.999990 0.618000 -0.585227
C119  C     C_R   0.586175 0.501323 0.413632 0.946564
C120  C     C_R   0.413826 0.501327 0.586362 0.946384
C121  C     C_R   0.086175 0.001323 0.413632 0.946517
C122  C     C_R   0.913826 0.001325 0.586363 0.946508
Zn9   Zn    Zn3+2 0.500010 0.500000 0.570110 1.100799
Zn10  Zn    Zn3+2 0.499990 0.500000 0.429890 1.100569
Zn11  Zn    Zn3+2 0.000010 0.000000 0.570110 1.100403
Zn12  Zn    Zn3+2 0.999990 1.000000 0.429890 1.100290
C123  C     C_R   0.506983 0.657362 0.436707 -0.122969
C124  C     C_R   0.492968 0.657331 0.563061 -0.122754
C125  C     C_R   0.007004 0.157332 0.436623 -0.122897
C126  C     C_R   0.993018 0.157363 0.562953 -0.122753
O45   O     O_R   0.500000 0.434520 0.552520 -0.587274
O46   O     O_R   0.500000 0.434520 0.447480 -0.587234
O47   O     O_R   1.000000 0.934520 0.552520 -0.587284
O48   O     O_R   1.000000 0.934520 0.447480 -0.587337
C127  C     C_R   0.499998 0.413949 0.500038 0.983313
C128  C     C_R   0.999999 0.913949 0.500036 0.983305
C129  C     C_R   0.964609 0.702711 0.562560 -0.136700
C130  C     C_R   0.035425 0.702796 0.437712 -0.137202
C131  C     C_R   0.464616 0.202711 0.562570 -0.136363
C132  C     C_R   0.535413 0.202795 0.437690 -0.136362
H41   H     H_    0.937350 0.719939 0.611923 0.157403
H42   H     H_    0.062685 0.720092 0.388384 0.157658
H43   H     H_    0.437364 0.219938 0.611944 0.157294
H44   H     H_    0.562665 0.220091 0.388350 0.157411
C133  C     C_R   0.964420 0.656931 0.562151 -0.163538
C134  C     C_R   0.035606 0.657014 0.438013 -0.163217
C135  C     C_R   0.464428 0.156931 0.562163 -0.162970
C136  C     C_R   0.535596 0.157013 0.437995 -0.162731
H45   H     H_    0.936901 0.639456 0.610826 0.169549
H46   H     H_    0.063122 0.639604 0.389300 0.170455
H47   H     H_    0.436916 0.139455 0.610850 0.169363
H48   H     H_    0.563105 0.139603 0.389271 0.169532
C137  C     C_R   0.000009 0.634017 0.500052 -0.033676
C138  C     C_R   0.500008 0.134016 0.500050 -0.032351
C139  C     C_R   0.000017 0.725907 0.500160 0.144102
C140  C     C_R   0.500014 0.225906 0.500153 0.144399
C141  C     C_R   0.539016 0.297206 0.473434 -0.196386
C142  C     C_R   0.460979 0.297199 0.526926 -0.196820
C143  C     C_R   0.039014 0.797206 0.473481 -0.196454
C144  C     C_R   0.960989 0.797198 0.526887 -0.197690
H49   H     H_    0.569041 0.279398 0.454291 0.184679
H50   H     H_    0.430958 0.279388 0.546083 0.184456
H51   H     H_    0.069034 0.779399 0.454371 0.184636
H52   H     H_    0.930973 0.779387 0.546012 0.184167
C145  C     C_R   0.539483 0.343154 0.473363 0.284176
C146  C     C_R   0.460501 0.343147 0.526945 0.284326
C147  C     C_R   0.039481 0.843154 0.473407 0.284136
C148  C     C_R   0.960512 0.843146 0.526897 0.284443
C149  C     C_R   0.499992 0.366214 0.500126 -0.272998
C150  C     C_R   0.999996 0.866213 0.500123 -0.273004
C151  C     C_R   0.499961 0.725827 0.499812 0.182113
C152  C     C_R   0.999999 0.225828 0.499628 0.181768
H53   H     H_    0.778799 0.429544 0.228860 0.161270
H54   H     H_    0.221190 0.429613 0.770943 0.161046
H55   H     H_    0.278799 0.929542 0.228832 0.160964
H56   H     H_    0.721186 0.929578 0.771300 0.160858
H57   H     H_    0.639549 0.462730 0.443061 0.215755
H58   H     H_    0.360443 0.462857 0.556961 0.215395
H59   H     H_    0.139550 0.962717 0.443045 0.215476
H60   H     H_    0.860437 0.962763 0.557061 0.215409
N1    N     N_R   0.635256 0.554381 0.272115 0.219839
O49   O     O_R   0.603940 0.580970 0.321506 -0.383779
O50   O     O_R   0.651072 0.558337 0.199769 -0.340450
N2    N     N_R   0.364757 0.554283 0.727801 0.219912
O51   O     O_R   0.396064 0.580915 0.678392 -0.383610
O52   O     O_R   0.348947 0.558149 0.800142 -0.340582
N3    N     N_R   0.135253 0.054392 0.272130 0.219812
O53   O     O_R   0.103935 0.080977 0.321530 -0.383847
O54   O     O_R   0.151069 0.058357 0.199785 -0.340713
N4    N     N_R   0.864766 0.054368 0.727695 0.219879
O55   O     O_R   0.896088 0.080965 0.678218 -0.383618
O56   O     O_R   0.848953 0.058305 0.800027 -0.340579
H61   H     H_    0.512521 0.720908 0.387745 0.162049
H62   H     H_    0.487405 0.720847 0.611888 0.162007
H63   H     H_    0.012532 0.220849 0.387588 0.162274
H64   H     H_    0.987471 0.220907 0.611691 0.162033
N5    N     N_R   0.918272 0.274089 0.598183 0.220777
O57   O     O_R   0.887062 0.291735 0.663209 -0.327626
O58   O     O_R   0.909414 0.238742 0.574849 -0.346035
N6    N     N_R   0.081691 0.274174 0.400812 0.219999
O59   O     O_R   0.112867 0.291898 0.335766 -0.329468
O60   O     O_R   0.090595 0.238793 0.424119 -0.347537
N7    N     N_R   0.418247 0.774107 0.598395 0.220298
O61   O     O_R   0.387036 0.791746 0.663427 -0.329001
O62   O     O_R   0.409384 0.738780 0.575023 -0.347065
N8    N     N_R   0.581678 0.774153 0.401132 0.220157
O63   O     O_R   0.612878 0.791884 0.336115 -0.329470
O64   O     O_R   0.590553 0.738750 0.424436 -0.347514
N9    N     N_R   0.580297 0.365647 0.445172 0.199572
O65   O     O_R   0.581508 0.397682 0.484396 -0.402680
O66   O     O_R   0.617355 0.349611 0.387019 -0.367710
N10   N     N_R   0.419678 0.365630 0.555135 0.199489
O67   O     O_R   0.418449 0.397729 0.515918 -0.403134
O68   O     O_R   0.382627 0.349540 0.613300 -0.368459
N11   N     N_R   0.080289 0.865647 0.445255 0.199448
O69   O     O_R   0.081485 0.897676 0.484507 -0.403026
O70   O     O_R   0.117355 0.849615 0.387116 -0.368225
N12   N     N_R   0.919697 0.865628 0.555030 0.199347
O71   O     O_R   0.918487 0.897698 0.515747 -0.403401
O72   O     O_R   0.882638 0.849556 0.613199 -0.368553
N13   N     N_R   0.966198 0.421194 0.329305 0.239548
O73   O     O_R   0.926422 0.408817 0.354656 -0.341623
O74   O     O_R   0.989478 0.397356 0.344330 -0.361743
N14   N     N_R   0.021186 0.415359 0.688076 0.239918
O75   O     O_R   0.032820 0.385635 0.717147 -0.311305
O76   O     O_R   0.020726 0.405402 0.629327 -0.396887
N15   N     N_R   0.477164 0.915683 0.313904 0.239942
O77   O     O_R   0.464930 0.886194 0.285546 -0.311476
O78   O     O_R   0.477476 0.905704 0.372831 -0.397974
N16   N     N_R   0.521376 0.915404 0.687896 0.239948
O79   O     O_R   0.533074 0.885710 0.716908 -0.311298
O80   O     O_R   0.520943 0.905441 0.629123 -0.398496
N17   N     N_R   0.052389 0.430831 0.153156 0.238225
O81   O     O_R   0.041536 0.389936 0.174550 -0.291263
O82   O     O_R   0.087214 0.439657 0.084680 -0.357824
N18   N     N_R   0.936820 0.440574 0.858685 0.234811
O83   O     O_R   0.938360 0.398894 0.842757 -0.290318
O84   O     O_R   0.904922 0.455185 0.925917 -0.366687
N19   N     N_R   0.562027 0.939226 0.142745 0.235067
O85   O     O_R   0.559655 0.897588 0.159678 -0.290889
O86   O     O_R   0.594230 0.953205 0.075190 -0.365793
N20   N     N_R   0.436949 0.940431 0.858552 0.234790
O87   O     O_R   0.438583 0.898755 0.842530 -0.290597
O88   O     O_R   0.405016 0.954972 0.925814 -0.366596
N21   N     N_R   0.036365 0.578629 0.170142 0.233938
O89   O     O_R   0.017698 0.616198 0.201896 -0.360955
O90   O     O_R   0.072524 0.577922 0.100864 -0.356197
N22   N     N_R   0.977166 0.583612 0.814455 0.233919
O91   O     O_R   0.002023 0.617374 0.776165 -0.362776
O92   O     O_R   0.940901 0.589373 0.882560 -0.349058
N23   N     N_R   0.524527 0.083017 0.183490 0.234032
O93   O     O_R   0.500375 0.117275 0.220970 -0.362392
O94   O     O_R   0.560852 0.088031 0.115184 -0.349443
N24   N     N_R   0.476974 0.083558 0.814653 0.233943
O95   O     O_R   0.501750 0.117378 0.776438 -0.362420
O96   O     O_R   0.440704 0.089233 0.882783 -0.348940

loop_
_geom_bond_atom_site_label_1
_geom_bond_atom_site_label_2
_geom_bond_distance
_ccdc_geom_bond_type
N16   O80   1.299935 A    
C85   C89   1.414549 A    
C55   H15   1.083462 S    
C94   H30   1.083753 S    
O30   C113  1.285431 A    
C21   C33   1.541401 S    
C88   C92   1.414549 A    
O37   C119  1.285531 A    
N21   O89   1.300371 A    
C23   C35   1.540261 S    
N9    O65   1.299918 A    
C24   C36   1.540196 S    
C87   C91   1.414549 A    
C25   C29   1.541916 S    
N4    O55   1.301447 A    
O22   C110  1.272881 A    
C145  C149  1.412531 A    
O37   Zn9   2.016240 S    
C18   C103  1.413933 A    
C4    C64   1.454417 S    
C15   C125  1.385736 A    
C105  C142  1.398076 A    
C82   H58   1.082689 S    
C59   H19   1.083086 S    
C32   C44   1.546973 S    
C136  H48   1.083443 S    
O47   C128  1.282590 A    
C10   C18   1.391475 A    
C46   N22   1.456315 S    
C103  C152  1.449251 S    
C42   C46   1.538047 S    
C104  C151  1.449239 S    
C142  H50   1.083431 S    
O4    C4    1.284991 A    
C141  C145  1.391347 A    
C88   C122  1.451981 S    
C93   H29   1.083756 S    
C9    H33   1.083267 S    
O40   C122  1.285526 A    
C10   H34   1.083273 S    
C75   C99   1.453901 S    
O36   Zn12  2.018146 S    
N12   O72   1.301380 A    
C37   C49   1.528530 S    
O19   Zn7   2.017739 S    
C2    C62   1.454366 S    
C39   C51   1.526329 S    
N22   O91   1.300289 A    
C6    C50   1.435077 S    
C105  C140  1.461585 S    
C54   H14   1.083455 S    
C57   C61   1.402121 A    
C147  N11   1.438143 S    
C30   C42   1.546962 S    
O16   Zn4   2.021415 S    
C146  N10   1.438180 S    
O43   C121  1.284503 A    
O7    Zn4   2.017491 S    
C48   N24   1.456308 S    
N14   O75   1.300276 A    
C15   C152  1.396613 A    
O15   C7    1.272268 A    
Zn10  O46   2.017493 S    
O42   C120  1.284518 A    
O38   C120  1.285526 A    
O9    C5    1.274412 A    
C53   C73   1.399454 A    
C11   H35   1.083269 S    
C12   C102  1.397691 A    
C148  C150  1.412530 A    
C13   H61   1.083528 S    
O25   Zn6   2.019246 S    
C60   C64   1.402124 A    
O8    Zn4   2.017607 S    
C15   H63   1.083530 S    
N8    O63   1.301503 A    
C16   H64   1.083533 S    
C129  C133  1.386254 A    
C79   H27   1.083475 S    
C144  C148  1.391338 A    
C63   C67   1.402586 A    
O23   Zn7   2.023226 S    
C148  N12   1.438158 S    
O3    Zn2   2.018204 S    
C92   N4    1.438083 S    
C84   H60   1.082678 S    
C29   C33   1.525513 S    
O33   C117  1.285842 A    
C31   C35   1.528154 S    
C32   C36   1.528088 S    
N6    O60   1.301336 A    
C107  C137  1.448382 S    
C94   C98   1.398718 A    
C38   C42   1.541541 S    
C134  C137  1.399328 A    
O41   Zn10  2.020779 S    
C77   C97   1.396808 A    
C130  H42   1.083016 S    
N3    O54   1.301358 A    
C42   H10   1.110252 S    
O3    C3    1.285006 A    
C27   C31   1.542983 S    
C33   C37   1.524492 S    
C28   H4    1.110230 S    
C58   C62   1.402122 A    
C116  C118  1.452914 S    
C45   C49   1.526676 S    
C73   C97   1.453898 S    
C47   C51   1.526978 S    
Zn12  O48   2.017493 S    
H37   C123  1.083051 S    
N15   O78   1.299925 A    
C19   C104  1.413919 A    
O17   Zn5   2.017739 S    
C28   C48   1.537528 S    
C25   C45   1.538746 S    
N7    O62   1.301340 A    
C55   C75   1.399456 A    
O39   Zn11  2.016240 S    
C14   C151  1.396638 A    
C135  C138  1.399337 A    
C116  C125  1.403170 A    
C36   C40   1.525322 S    
C65   C69   1.386886 A    
C70   H54   1.083435 S    
Zn6   O30   2.017922 S    
O45   C127  1.282589 A    
N13   O74   1.300652 A    
C132  H44   1.083013 S    
C80   C84   1.383854 A    
C106  C139  1.461573 S    
N17   O82   1.300484 A    
C29   C109  1.434322 S    
O5    Zn3   2.017491 S    
C53   C57   1.385270 A    
C55   C59   1.385271 A    
O36   C118  1.285842 A    
C22   C34   1.540196 S    
O8    C4    1.284883 A    
N10   O68   1.301383 A    
O22   Zn6   2.023228 S    
O41   C119  1.284507 A    
O23   C111  1.272860 A    
C37   N17   1.457437 S    
O21   C109  1.272416 A    
C59   C63   1.402123 A    
C43   H11   1.110252 S    
C13   C123  1.385795 A    
C34   C38   1.525328 S    
O13   Zn3   2.020498 S    
C115  C123  1.403138 A    
N20   O87   1.300011 A    
C72   C76   1.399486 A    
C132  C140  1.402695 A    
C77   H25   1.083474 S    
C106  C143  1.398060 A    
N24   O96   1.300446 A    
C84   C88   1.400882 A    
N5    O57   1.301504 A    
O35   C118  1.285912 A    
C30   C110  1.434180 S    
O15   Zn4   2.020498 S    
C21   H5    1.110199 S    
C69   C73   1.399490 A    
C23   H7    1.110213 S    
O42   Zn9   2.020775 S    
C71   C75   1.399491 A    
N23   O94   1.300449 A    
C19   N7    1.441412 S    
C85   C119  1.451986 S    
C57   H17   1.083085 S    
C11   C102  1.397690 A    
C65   H21   1.083043 S    
C21   C25   1.560277 S    
O14   C6    1.272283 A    
C67   H23   1.083045 S    
C48   C52   1.526970 S    
N18   O83   1.300013 A    
C72   H56   1.083433 S    
H38   C124  1.083056 S    
C135  H47   1.083444 S    
O38   Zn10  2.016238 S    
N4    O56   1.301357 A    
C133  H45   1.083441 S    
O10   C6    1.275037 A    
H40   C126  1.083055 S    
C96   C100  1.398703 A    
C105  C141  1.398059 A    
C23   C27   1.560201 S    
C14   H62   1.083538 S    
C95   C99   1.398704 A    
N1    O50   1.301357 A    
C129  H41   1.083015 S    
C129  C139  1.402669 A    
C24   C28   1.560185 S    
O28   C112  1.274522 A    
C101  C113  1.454666 S    
N2    O51   1.301446 A    
C17   N5    1.441417 S    
C131  H43   1.083016 S    
O34   C117  1.285907 A    
C130  C139  1.402690 A    
Zn11  O47   2.018406 S    
C30   C34   1.528081 S    
C56   C60   1.385284 A    
O20   C108  1.283552 A    
C82   C86   1.400887 A    
O5    C1    1.284870 A    
O44   Zn11  2.020775 S    
C35   N15   1.457961 S    
C78   C98   1.396824 A    
N22   O92   1.300446 A    
O34   Zn10  2.018146 S    
C14   C124  1.385693 A    
C58   H18   1.083092 S    
N14   O76   1.299939 A    
C22   C26   1.560183 S    
C74   C98   1.453938 S    
C143  C147  1.391346 A    
C128  C150  1.445387 S    
N3    O53   1.301447 A    
C41   C45   1.538645 S    
C56   C76   1.399466 A    
O26   C110  1.274517 A    
O33   Zn9   2.017230 S    
C96   H32   1.083755 S    
C80   H28   1.083474 S    
O24   C112  1.272881 A    
C33   N13   1.456961 S    
N16   O79   1.300272 A    
O39   C121  1.285531 A    
C136  C138  1.399322 A    
C91   N3    1.438091 S    
N8    O64   1.301338 A    
O35   Zn11  2.017230 S    
N21   O90   1.300535 A    
C71   H55   1.083432 S    
N9    O66   1.301380 A    
O12   Zn2   2.020709 S    
C38   C50   1.526346 S    
C79   C99   1.396812 A    
C115  C124  1.403117 A    
N11   O69   1.299919 A    
C24   C52   1.544442 S    
O1    C1    1.285005 A    
C90   C94   1.393494 A    
N7    O61   1.301505 A    
C53   H13   1.083459 S    
C27   H3    1.110231 S    
C68   H24   1.083043 S    
C95   H31   1.083754 S    
N19   O85   1.300011 A    
Zn7   O31   2.017805 S    
C24   H8    1.110213 S    
C143  H51   1.083434 S    
C25   H1    1.110288 S    
C18   N6    1.441397 S    
O20   Zn8   2.017625 S    
C54   C74   1.399490 A    
O21   Zn5   2.023226 S    
C142  C146  1.391350 A    
O31   C114  1.285520 A    
O46   C127  1.282567 A    
C64   C68   1.402587 A    
C127  C149  1.445381 S    
C89   C93   1.393515 A    
N12   O71   1.299921 A    
C79   C83   1.383870 A    
C20   C104  1.413924 A    
O18   C107  1.283559 A    
C38   N18   1.457547 S    
C92   C96   1.393509 A    
C77   C81   1.383869 A    
O6    C2    1.284848 A    
O4    Zn2   2.018085 S    
C32   C112  1.434188 S    
C13   C151  1.396667 A    
C116  C126  1.403088 A    
C68   C72   1.386863 A    
C31   C111  1.434202 S    
C22   H6    1.110215 S    
C17   C103  1.413913 A    
N13   O73   1.300266 A    
C37   C41   1.540713 S    
C45   N21   1.456313 S    
O2    Zn1   2.018085 S    
C39   C43   1.541510 S    
O10   Zn1   2.020709 S    
N17   O81   1.300135 A    
O13   C5    1.273608 A    
O18   Zn6   2.017625 S    
C27   C47   1.537475 S    
N15   O77   1.300273 A    
C83   H59   1.082676 S    
C46   C50   1.526981 S    
C9    C17   1.391458 A    
C115  C117  1.452902 S    
O27   Zn8   2.019246 S    
C36   N16   1.457963 S    
C40   C52   1.526348 S    
O28   Zn7   2.019247 S    
C108  C138  1.448378 S    
N23   O93   1.300290 A    
C131  C140  1.402675 A    
C44   C48   1.538052 S    
C147  C150  1.412534 A    
C93   C97   1.398701 A    
O40   Zn12  2.016238 S    
O7    C3    1.284872 A    
C66   C70   1.386848 A    
O43   Zn12  2.020779 S    
C16   C152  1.396694 A    
C47   N23   1.456311 S    
N6    O59   1.301504 A    
C83   C87   1.400882 A    
C21   C49   1.545749 S    
N20   O88   1.300439 A    
C39   N19   1.457540 S    
C23   C51   1.544421 S    
C60   H20   1.083082 S    
C141  H49   1.083432 S    
C131  C135  1.386254 A    
C106  C144  1.398073 A    
C54   C58   1.385271 A    
C8    C52   1.435066 S    
C10   C101  1.397692 A    
C56   H16   1.083458 S    
C40   C44   1.541533 S    
C144  H52   1.083434 S    
O11   C7    1.275051 A    
C80   C100  1.396815 A    
O32   C114  1.285513 A    
O12   C8    1.275027 A    
O1    Zn1   2.018204 S    
O9    Zn1   2.021615 S    
C91   C95   1.393513 A    
O26   Zn5   2.019247 S    
C26   H2    1.110232 S    
C28   C32   1.543043 S    
C12   H36   1.083270 S    
C61   C65   1.402588 A    
C35   C39   1.525388 S    
C76   C100  1.453903 S    
C86   C120  1.451991 S    
C133  C137  1.399342 A    
O16   C8    1.272289 A    
N18   O84   1.300440 A    
Zn5   O29   2.017805 S    
O11   Zn2   2.021615 S    
O27   C111  1.274550 A    
O44   C122  1.284510 A    
Zn8   O32   2.017922 S    
C90   N2    1.438077 S    
N11   O70   1.301381 A    
C78   H26   1.083471 S    
O17   C107  1.283572 A    
O24   Zn8   2.023228 S    
O6    Zn3   2.017607 S    
O25   C109  1.275092 A    
N1    O49   1.301449 A    
C44   H12   1.110251 S    
N19   O86   1.300441 A    
C67   C71   1.386890 A    
C70   C74   1.399507 A    
C41   H9    1.110232 S    
C1    C61   1.454425 S    
N10   O67   1.299919 A    
N2    O52   1.301355 A    
C22   C50   1.544450 S    
O19   C108  1.283571 A    
O48   C128  1.282569 A    
C81   C85   1.400887 A    
C130  C134  1.386273 A    
C146  C149  1.412543 A    
O2    C2    1.284998 A    
C16   C126  1.385758 A    
C26   C46   1.537521 S    
C9    C101  1.397705 A    
C66   H22   1.083049 S    
H39   C125  1.083055 S    
O14   Zn3   2.021415 S    
O29   C113  1.285598 A    
Zn9   O45   2.018406 S    
C86   C90   1.414548 A    
C134  H46   1.083443 S    
C29   C41   1.547015 S    
C20   N8    1.441400 S    
C43   C47   1.537965 S    
C145  N9    1.438146 S    
N24   O95   1.300291 A    
C87   C121  1.451980 S    
C89   N1    1.438090 S    
N5    O58   1.301337 A    
C11   C19   1.391452 A    
C62   C66   1.402565 A    
C12   C20   1.391464 A    
C40   N20   1.457547 S    
C69   H53   1.083432 S    
C81   H57   1.082677 S    
C102  C114  1.454708 S    
C34   N14   1.457965 S    
C5    C49   1.436523 S    
C132  C136  1.386273 A    
C3    C63   1.454426 S    
C7    C51   1.435058 S    
C78   C82   1.383838 A    
C26   C30   1.543036 S    
C31   C43   1.547012 S    
