data_mof_unit_10847.cif
_audit_creation_date              2012-12-11T17:45:30-0500
_audit_creation_method            fapswitch 2.2
_symmetry_space_group_name_H-M    P1
_symmetry_Int_Tables_number       1
_space_group_crystal_system       triclinic
_cell_length_a                    14.967382
_cell_length_b                    14.910337
_cell_length_c                    15.118998
_cell_angle_alpha                 110.220401
_cell_angle_beta                  109.232387
_cell_angle_gamma                 109.191429
_cell_volume                      2589.75556385

loop_
_atom_site_label
_atom_site_type_symbol
_atom_type_description
_atom_site_fract_x
_atom_site_fract_y
_atom_site_fract_z
_atom_type_partial_charge
C1    C     C_R   0.973752 0.249029 0.062369 -0.124554
C2    C     C_R   0.705562 0.193291 0.795062 -0.136240
C3    C     C_R   0.776199 0.591446 0.024922 -0.143368
C4    C     C_R   0.315341 0.759178 0.225991 -0.145068
C5    C     C_R   0.942662 0.409359 0.685345 -0.134697
C6    C     C_R   0.673757 0.498311 0.948955 -0.009006
C7    C     C_R   0.961373 0.504220 0.678836 0.045466
C8    C     C_R   0.705015 0.127186 0.703735 0.066838
C9    C     C_R   0.064730 0.870697 0.074882 0.071184
C10   C     C_R   0.609428 0.271639 0.096220 -0.117642
C11   C     C_R   0.691780 0.358580 0.200732 -0.153287
C12   C     C_R   0.324503 0.788923 0.328437 0.057164
C13   C     C_R   0.739708 0.337064 0.282356 0.117962
C14   C     C_R   0.696650 0.227182 0.259354 -0.160604
C15   C     C_R   0.609989 0.140896 0.155999 -0.119614
C16   C     C_R   0.206390 0.409034 0.899168 -0.179899
C17   C     C_R   0.567370 0.163109 0.074118 -0.088620
C18   C     C_R   0.849696 0.431760 0.484685 -0.251266
C19   C     C_R   0.945502 0.513467 0.583926 0.075041
C20   C     C_R   0.030032 0.598001 0.589486 0.014358
C21   C     C_R   0.018227 0.595290 0.495061 -0.250583
C22   C     C_R   0.927941 0.508908 0.394980 0.066748
C23   C     C_R   0.295565 0.500265 0.922566 -0.017713
C24   C     C_R   0.839457 0.427724 0.388050 0.025453
C25   C     C_R   0.162896 0.788309 0.752081 -0.203753
C26   C     C_R   0.267891 0.867663 0.840387 -0.115462
C27   C     C_R   0.351259 0.841719 0.861104 -0.104310
C28   C     C_R   0.996447 0.592338 0.298595 -0.167441
C29   C     C_R   0.329744 0.736483 0.794071 -0.109236
C30   C     C_R   0.224052 0.655552 0.708054 -0.135450
C31   C     C_R   0.139630 0.680791 0.686918 0.123922
C32   C     C_R   0.250235 0.036944 0.533674 -0.127517
C33   C     C_R   0.327982 0.010432 0.520811 -0.128010
C34   C     C_R   0.941197 0.501784 0.303136 0.059702
C35   C     C_R   0.339823 0.928199 0.539932 0.106655
C36   C     C_R   0.274672 0.874435 0.574217 -0.182962
C37   C     C_R   0.192938 0.897109 0.580947 -0.119193
C38   C     C_R   0.181364 0.978867 0.561672 -0.118597
C39   C     C_R   0.526149 0.972221 0.628741 -0.228801
C40   C     C_R   0.296386 0.591467 0.989855 0.037740
C41   C     C_R   0.622575 0.009520 0.624874 0.049579
C42   C     C_R   0.623274 0.945808 0.530962 0.030910
C43   C     C_R   0.523398 0.864215 0.436577 -0.245296
C44   C     C_R   0.425258 0.851868 0.434039 0.067997
C45   C     C_R   0.685669 0.406668 0.933053 -0.142526
C46   C     C_R   0.427511 0.906855 0.532971 0.016751
C47   C     C_R   0.741637 0.004067 0.455269 -0.202378
C48   C     C_R   0.846188 0.052019 0.468896 -0.117064
C49   C     C_R   0.933520 0.061121 0.550482 -0.114743
C50   C     C_R   0.916158 0.020944 0.617665 -0.135463
C51   C     C_R   0.812496 0.975539 0.606408 -0.145568
C52   C     C_R   0.911152 0.408961 0.211240 -0.135465
C53   C     C_R   0.725183 0.969579 0.526959 0.121981
C54   C     C_3   0.468837 0.383818 0.840992 -0.401879
C55   C     C_3   0.364444 0.386769 0.830526 -0.414085
C56   C     C_R   0.025024 0.593584 0.782192 -0.111479
C57   C     C_3   0.573212 0.525196 0.042208 -0.400104
C58   C     C_3   0.560575 0.585010 0.903026 -0.410343
C59   C     C_3   0.570932 0.497830 0.932577 0.403353
C60   C     C_3   0.393715 0.499945 0.920058 0.403471
C61   C     C_3   0.468763 0.523495 0.033898 -0.395330
C62   C     C_3   0.457258 0.588661 0.898908 -0.398730
C63   C     C_R   0.181990 0.057557 0.814497 -0.135532
C64   C     C_R   0.220148 0.751427 0.313275 -0.119937
C65   C     C_R   0.139330 0.055703 0.883251 -0.191940
C66   C     C_R   0.200878 0.139101 0.993247 0.115103
C67   C     C_R   0.793192 0.194799 0.701885 -0.144420
C68   C     C_R   0.304816 0.224889 0.033583 -0.146782
C69   C     C_R   0.346795 0.226195 0.963934 -0.140498
C70   C     C_R   0.286430 0.141691 0.854945 -0.113280
C71   C     C_R   0.171726 0.044186 0.089075 -0.230214
C72   C     C_R   0.100740 0.989162 0.116934 0.055183
C73   C     C_R   0.051847 0.043162 0.163816 0.023718
C74   C     C_R   0.060664 0.137934 0.161625 -0.239341
C75   C     C_R   0.098170 0.167142 0.096635 0.060057
C76   C     C_R   0.067727 0.251782 0.973517 -0.140400
C77   C     C_R   0.162293 0.124669 0.067162 0.026364
C78   C     C_R   0.001327 0.802457 0.097726 -0.144313
C79   C     C_R   0.863416 0.944998 0.131052 -0.151722
C80   C     C_R   0.791415 0.891266 0.159131 -0.156743
C81   C     C_R   0.832097 0.886734 0.253932 -0.102775
C82   C     C_R   0.944871 0.941133 0.323810 -0.119488
C83   C     C_R   0.017300 0.999266 0.298570 -0.187962
C84   C     C_R   0.976806 0.996635 0.199319 0.117721
C85   C     C_R   0.051787 0.223292 0.048039 0.056647
C86   C     C_R   0.094677 0.807426 0.010356 -0.153720
H1    H     H_    0.939173 0.236996 0.112165 0.092810
H2    H     H_    0.580108 0.288306 0.031667 0.094287
H3    H     H_    0.722357 0.442232 0.216142 0.113457
H4    H     H_    0.380758 0.774876 0.207978 0.092377
H5    H     H_    0.732160 0.207688 0.320015 0.105555
H6    H     H_    0.577904 0.056578 0.138615 0.100567
H7    H     H_    0.784760 0.369529 0.482724 0.128914
H8    H     H_    0.087174 0.655389 0.499625 0.131219
H9    H     H_    0.099059 0.809577 0.735592 0.111470
H10   H     H_    0.284994 0.949409 0.892398 0.133667
H11   H     H_    0.432815 0.903104 0.928630 0.093261
H12   H     H_    0.048719 0.678387 0.807642 0.113652
H13   H     H_    0.395584 0.718470 0.808544 0.102550
H14   H     H_    0.208418 0.574181 0.656589 0.107000
H15   H     H_    0.120057 0.998311 0.569971 0.093135
H16   H     H_    0.174042 0.323620 0.841400 0.108854
H17   H     H_    0.243778 0.102792 0.522448 0.101626
H18   H     H_    0.380502 0.055316 0.498137 0.111697
H19   H     H_    0.284746 0.812739 0.591779 0.128347
H20   H     H_    0.138731 0.851784 0.601500 0.116208
H21   H     H_    0.524159 0.012838 0.702038 0.125067
H22   H     H_    0.523221 0.817657 0.363376 0.122562
H23   H     H_    0.825155 0.173017 0.649159 0.133135
H24   H     H_    0.675763 0.001761 0.394672 0.114636
H25   H     H_    0.859904 0.084101 0.417526 0.129188
H26   H     H_    0.014731 0.099882 0.562001 0.099702
H27   H     H_    0.983641 0.028545 0.680995 0.116489
H28   H     H_    0.018972 0.676664 0.350032 0.108471
H29   H     H_    0.801483 0.950388 0.662983 0.111934
H30   H     H_    0.469892 0.318453 0.859820 0.142273
H31   H     H_    0.467524 0.361180 0.762116 0.157267
H32   H     H_    0.314380 0.371882 0.748434 0.153680
H33   H     H_    0.315693 0.318264 0.837110 0.164423
H34   H     H_    0.977331 0.822796 0.157449 0.130754
H35   H     H_    0.583445 0.465188 0.066357 0.148580
H36   H     H_    0.425809 0.460273 0.050493 0.162325
H37   H     H_    0.633367 0.668022 0.963688 0.149872
H38   H     H_    0.555466 0.564027 0.822727 0.159761
H39   H     H_    0.403535 0.572599 0.817629 0.151398
H40   H     H_    0.484470 0.673010 0.960873 0.159105
H41   H     H_    0.643804 0.608470 0.108330 0.156153
H42   H     H_    0.490624 0.604787 0.098542 0.149873
H43   H     H_    0.320071 0.141876 0.801681 0.122292
H44   H     H_    0.134317 0.992314 0.730601 0.108777
H45   H     H_    0.154685 0.836639 0.987576 0.096452
H46   H     H_    0.059637 0.987712 0.851743 0.117930
H47   H     H_    0.353829 0.288732 0.118720 0.116437
H48   H     H_    0.426143 0.292677 0.994596 0.113667
H49   H     H_    0.220060 0.012061 0.064694 0.126384
H50   H     H_    0.022767 0.177450 0.197576 0.126290
H51   H     H_    0.858695 0.323963 0.184206 0.112018
H52   H     H_    0.831058 0.944130 0.055077 0.113883
H53   H     H_    0.704157 0.851388 0.106462 0.107209
H54   H     H_    0.776264 0.842060 0.273865 0.116664
H55   H     H_    0.975897 0.936834 0.396659 0.119845
H56   H     H_    0.659440 0.166999 0.831825 0.087577
H57   H     H_    0.104320 0.039378 0.351692 0.116892
H58   H     H_    0.194113 0.750937 0.371030 0.119409
H59   H     H_    0.122532 0.246758 0.943409 0.127257
H60   H     H_    0.623588 0.320641 0.882859 0.094980
H61   H     H_    0.422760 0.746545 0.074887 0.063929
H62   H     H_    0.300306 0.734781 0.009624 0.119515
H63   H     H_    0.795805 0.676530 0.061244 0.111345
H64   H     H_    0.897220 0.324818 0.619141 0.101908
H65   H     H_    0.502661 0.096483 0.993174 0.101523
N1    N     N_R   0.947080 0.293830 0.002870 -0.041420
N2    N     N_R   0.153670 0.443180 0.946090 -0.041453
N3    N     N_R   0.002360 0.556820 0.208890 -0.038704
N4    N     N_R   0.210070 0.556820 0.002870 -0.050807
N5    N     N_R   0.945960 0.443180 0.152110 -0.039573
N6    N     N_R   0.151710 0.706170 0.208890 -0.041717
N7    N     N_R   0.004320 0.293830 0.946090 -0.040376
N8    N     N_R   0.789930 0.443180 0.997130 -0.034822
N9    N     N_3   0.348053 0.697951 0.002226 -0.220580
N10   N     N_R   0.054040 0.556820 0.847890 -0.042953
N11   N     N_R   0.848290 0.293830 0.791110 -0.041485
N12   N     N_R   0.995680 0.706170 0.053910 -0.040306
N13   N     N_R   0.052920 0.706170 0.997130 -0.041982
N14   N     N_R   0.791050 0.293830 0.847890 -0.038674
N15   N     N_R   0.846330 0.556820 0.053910 -0.036157
N16   N     N_R   0.997640 0.443180 0.791110 -0.038561
N17   N     N_R   0.208950 0.706170 0.152110 -0.043113
Ni1   Ni    Ni4+2 0.869690 0.369690 0.000000 0.211823
Ni2   Ni    Ni4+2 0.130310 0.630310 0.000000 0.207861
Ni3   Ni    Ni4+2 0.000970 0.369690 0.869780 0.215083
Ni4   Ni    Ni4+2 0.999030 0.630310 0.130220 0.213780

loop_
_geom_bond_atom_site_label_1
_geom_bond_atom_site_label_2
_ccdc_geom_bond_type
C25   C31   A    
C81   H54   S    
C66   C68   A    
C63   C65   A    
C58   C62   S    
C69   H48   S    
C6    C45   A    
C27   C29   A    
C33   H18   S    
C41   C42   A    
N13   Ni2   S    
N12   N13   A    
C67   N11   A    
C9    C72   S    
C56   H12   S    
C68   H47   S    
C3    C6    A    
C81   C82   A    
C39   C41   A    
C55   H33   S    
C78   H34   S    
N15   Ni4   S    
C9    C78   A    
C76   N7    A    
C26   C27   A    
C29   C30   A    
C83   C84   A    
C18   C24   A    
C36   C37   A    
C38   H15   S    
C42   C53   S    
C71   H49   S    
C30   C31   A    
C12   C64   A    
C86   H45   S    
C57   C59   S    
C21   H8    S    
C10   C17   A    
C23   C40   A    
C30   H14   S    
N5    Ni1   S    
C1    N1    A    
C60   C62   S    
C18   C19   A    
H62   N9    S    
C63   H44   S    
C1    H1    S    
C13   C14   A    
C15   H6    S    
C75   C85   S    
N11   Ni3   S    
C35   C36   A    
C68   C69   A    
C54   H30   S    
C64   N6    A    
C40   N4    A    
C32   C38   A    
C4    C12   A    
C73   C84   S    
N3    N5    A    
C47   C53   A    
N17   Ni2   S    
C28   C34   A    
C78   N12   A    
C21   C22   A    
N14   Ni1   S    
C17   H65   S    
C7    C56   A    
C82   H55   S    
H61   N9    S    
N6    N17   A    
C44   C46   A    
C50   C51   A    
C4    H4    S    
C54   C59   S    
C73   C74   A    
C26   H10   S    
C23   C60   S    
C22   C34   S    
N1    N7    A    
C3    H63   S    
C74   C75   A    
C29   H13   S    
C45   H60   S    
C8    C41   S    
C5    C7    A    
C72   C73   A    
N16   Ni3   S    
C64   H58   S    
C25   C26   A    
C56   N10   A    
C82   C83   A    
C70   H43   S    
C51   H29   S    
C5    H64   S    
C4    N17   A    
C13   C24   S    
C74   H50   S    
C61   H36   S    
C51   C53   A    
C39   H21   S    
C43   C44   A    
C37   C38   A    
C9    C86   A    
N11   N14   A    
C11   H3    S    
C47   C48   A    
C63   C70   A    
C10   H2    S    
N2    Ni3   S    
C52   H51   S    
C58   H37   S    
C32   H17   S    
N3    Ni4   S    
C57   C61   S    
N12   Ni4   S    
C75   C77   A    
C2    N14   A    
N10   N16   A    
C28   H28   S    
C49   H26   S    
N10   Ni2   S    
C16   H16   S    
C48   C49   A    
C76   H59   S    
C49   C50   A    
C16   C23   A    
C7    C19   S    
C39   C46   A    
C28   N3    A    
C22   C24   A    
C1    C85   A    
N2    N4    A    
C42   C43   A    
C80   H53   S    
C71   C77   A    
C65   H46   S    
C62   H40   S    
C15   C17   A    
C66   C77   S    
C54   C55   S    
C27   H11   S    
N8    Ni1   S    
C36   H19   S    
C34   C52   A    
C6    C59   S    
C40   N9    S    
C2    C8    A    
C80   C81   A    
C57   H41   S    
C62   H39   S    
C25   H9    S    
C52   N5    A    
C47   H24   S    
C48   H25   S    
C58   H38   S    
N8    N15   A    
C50   H27   S    
C32   C33   A    
C19   C20   A    
C58   C59   S    
C71   C72   A    
N6    Ni4   S    
C83   H57   S    
N1    Ni1   S    
C11   C13   A    
N4    Ni2   S    
C67   H23   S    
C79   C84   A    
C2    H56   S    
C33   C35   A    
C61   H42   S    
C43   H22   S    
C5    N16   A    
C45   N8    A    
C69   C70   A    
N7    Ni3   S    
C14   H5    S    
C10   C11   A    
C57   H35   S    
C79   C80   A    
C37   H20   S    
C79   H52   S    
C86   N13   A    
C20   C21   A    
C8    C67   A    
C12   C44   S    
C65   C66   A    
C54   H31   S    
C16   N2    A    
C18   H7    S    
C14   C15   A    
C60   C61   S    
C55   C60   S    
C35   C46   S    
C76   C85   A    
C55   H32   S    
C3    N15   A    
C20   C31   S    
