data_mof_unit_10418.cif
_audit_creation_date              2012-12-10T19:09:34-0500
_audit_creation_method            fapswitch 2.2
_symmetry_space_group_name_H-M    P1
_symmetry_Int_Tables_number       1
_space_group_crystal_system       triclinic
_cell_length_a                    16.322693
_cell_length_b                    14.877099
_cell_length_c                    10.170609
_cell_angle_alpha                 88.668016
_cell_angle_beta                  90.781331
_cell_angle_gamma                 89.309523
_cell_volume                      2468.68701397

loop_
_atom_site_label
_atom_site_type_symbol
_atom_type_description
_atom_site_fract_x
_atom_site_fract_y
_atom_site_fract_z
_atom_type_partial_charge
C1    C     C_R   0.115952 0.373614 0.501689 0.984947
C2    C     C_R   0.114743 0.627821 0.499632 0.965769
C3    C     C_R   0.615941 0.873603 0.501686 0.984971
C4    C     C_R   0.614739 0.127825 0.499631 0.965773
C5    C     C_3   0.915353 0.508243 0.075295 -0.417672
C6    C     C_3   0.916811 0.521638 0.918757 -0.421397
C7    C     C_3   0.415352 0.008246 0.075292 -0.417714
C8    C     C_3   0.416812 0.021646 0.918752 -0.421285
C9    C     C_R   0.878490 0.380444 0.499141 0.984008
C10   C     C_R   0.879595 0.620670 0.498802 0.985269
C11   C     C_R   0.378490 0.880442 0.499141 0.983953
C12   C     C_R   0.379593 0.120667 0.498797 0.985276
C13   C     C_3   0.807957 0.255121 0.623701 0.594613
C14   C     C_3   0.804923 0.256175 0.368228 0.554735
C15   C     C_3   0.790463 0.727988 0.356620 0.540464
C16   C     C_3   0.822705 0.762067 0.603213 0.587803
C17   C     C_3   0.307947 0.755131 0.623719 0.594599
C18   C     C_3   0.304944 0.756150 0.368252 0.554740
C19   C     C_3   0.290522 0.228079 0.356646 0.540440
C20   C     C_3   0.322670 0.262001 0.603280 0.587900
C21   C     C_3   0.243494 0.681250 0.610953 0.349776
C22   C     C_3   0.226852 0.698641 0.368766 0.338755
C23   C     C_3   0.215359 0.291384 0.362409 0.370127
C24   C     C_3   0.257502 0.336513 0.583293 0.345832
C25   C     C_3   0.743500 0.181244 0.610934 0.349714
C26   C     C_3   0.726832 0.198664 0.368751 0.338797
C27   C     C_3   0.715341 0.791347 0.362407 0.370086
C28   C     C_3   0.757468 0.836515 0.583291 0.345784
C29   C     C_3   0.723697 0.369775 0.492034 -0.552924
C30   C     C_3   0.730608 0.634726 0.538424 -0.553806
C31   C     C_3   0.223696 0.869764 0.491993 -0.552906
C32   C     C_3   0.230591 0.134733 0.538253 -0.554042
C33   C     C_3   0.806867 0.316053 0.495590 -0.453887
C34   C     C_3   0.808817 0.686045 0.498227 -0.446802
C35   C     C_3   0.306869 0.816047 0.495592 -0.453879
C36   C     C_3   0.308820 0.186048 0.498205 -0.446765
C37   C     C_3   0.180108 0.702617 0.499416 -0.482812
C38   C     C_3   0.182806 0.301037 0.504109 -0.491203
C39   C     C_3   0.680103 0.202625 0.499414 -0.482796
C40   C     C_3   0.682793 0.801022 0.504102 -0.490994
C41   C     C_3   0.149132 0.804752 0.511542 0.767957
C42   C     C_3   0.156725 0.201380 0.550713 0.745952
C43   C     C_3   0.649133 0.304761 0.511573 0.767954
C44   C     C_3   0.656721 0.701361 0.550741 0.745934
C45   C     C_3   0.035028 0.415044 0.085371 0.529651
C46   C     C_3   0.020803 0.409098 0.928887 0.525586
C47   C     C_3   0.054431 0.568697 0.916909 0.527505
C48   C     C_3   0.046127 0.577269 0.075253 0.530678
C49   C     C_3   0.535025 0.915044 0.085367 0.529672
C50   C     C_3   0.520801 0.909100 0.928884 0.525585
C51   C     C_3   0.554431 0.068697 0.916914 0.527474
C52   C     C_3   0.546128 0.077270 0.075260 0.530706
H1    H     H_    0.272805 0.614761 0.592602 0.135180
H2    H     H_    0.242925 0.627512 0.348164 0.162143
H3    H     H_    0.232995 0.359005 0.324969 0.165142
H4    H     H_    0.283948 0.393726 0.525875 0.106791
H5    H     H_    0.772807 0.114751 0.592572 0.135142
H6    H     H_    0.742908 0.127536 0.348144 0.162143
H7    H     H_    0.733013 0.858955 0.324980 0.165093
H8    H     H_    0.783844 0.893760 0.526079 0.106967
H9    H     H_    0.723998 0.423284 0.566456 0.228924
H10   H     H_    0.717252 0.408039 0.397335 0.269016
H11   H     H_    0.716895 0.581969 0.466210 0.241994
H12   H     H_    0.742040 0.595175 0.631143 0.250119
H13   H     H_    0.223991 0.923285 0.566398 0.228933
H14   H     H_    0.217257 0.908013 0.397280 0.268991
H15   H     H_    0.216875 0.082088 0.465903 0.242165
H16   H     H_    0.241994 0.095084 0.630860 0.250048
H17   H     H_    0.878664 0.448930 0.099036 0.290153
H18   H     H_    0.867926 0.481721 0.871924 0.283627
H19   H     H_    0.898269 0.591453 0.894891 0.285991
H20   H     H_    0.881840 0.564582 0.116838 0.298659
H21   H     H_    0.378660 0.948935 0.099032 0.290123
H22   H     H_    0.367928 0.981728 0.871921 0.283641
H23   H     H_    0.398269 0.091464 0.894869 0.286031
H24   H     H_    0.381837 0.064577 0.116839 0.298682
N1    N     N_3   0.998760 0.500000 0.138610 -0.255352
N2    N     N_3   0.998760 0.500000 0.861390 -0.252937
N3    N     N_3   0.498760 0.000000 0.138610 -0.255356
N4    N     N_3   0.498760 0.000000 0.861390 -0.252953
O1    O     O_R   0.092530 0.407440 0.616040 -0.507319
O2    O     O_R   0.092530 0.407440 0.383960 -0.558330
O3    O     O_R   0.092530 0.592560 0.383960 -0.549850
O4    O     O_R   0.092530 0.592560 0.616040 -0.507398
O5    O     O_R   0.592530 0.907440 0.616040 -0.507269
O6    O     O_R   0.592530 0.907440 0.383960 -0.558323
O7    O     O_R   0.592530 0.092560 0.383960 -0.549862
O8    O     O_R   0.592530 0.092560 0.616040 -0.507393
O9    O     O_R   0.907330 0.407420 0.616040 -0.575782
O10   O     O_R   0.907330 0.407420 0.383960 -0.564451
O11   O     O_R   0.907330 0.592580 0.383960 -0.569802
O12   O     O_R   0.907330 0.592580 0.616040 -0.597582
O13   O     O_R   0.407330 0.907420 0.616040 -0.575778
O14   O     O_R   0.407330 0.907420 0.383960 -0.564478
O15   O     O_R   0.407330 0.092580 0.383960 -0.569805
O16   O     O_R   0.407330 0.092580 0.616040 -0.597536
Zn1   Zn    Zn3+2 0.999890 0.500000 0.654960 1.142756
Zn2   Zn    Zn3+2 0.999890 0.500000 0.345040 1.131945
Zn3   Zn    Zn3+2 0.499890 0.000000 0.654960 1.142770
Zn4   Zn    Zn3+2 0.499890 0.000000 0.345040 1.131928
Cl1   Cl    Cl    0.784250 0.322192 0.765751 -0.290610
Cl2   Cl    Cl    0.803455 0.321063 0.216012 -0.301096
Cl3   Cl    Cl    0.768690 0.643597 0.236374 -0.354713
Cl4   Cl    Cl    0.818426 0.720670 0.770805 -0.312346
Cl5   Cl    Cl    0.284229 0.822219 0.765744 -0.290621
Cl6   Cl    Cl    0.303496 0.821014 0.216014 -0.301082
Cl7   Cl    Cl    0.268871 0.143812 0.236242 -0.354722
Cl8   Cl    Cl    0.318245 0.220527 0.770787 -0.312556
Cl9   Cl    Cl    0.905204 0.201061 0.657732 -0.309862
Cl10  Cl    Cl    0.890876 0.181897 0.355932 -0.341754
Cl11  Cl    Cl    0.874630 0.791176 0.293835 -0.336617
Cl12  Cl    Cl    0.920101 0.812565 0.592708 -0.342562
Cl13  Cl    Cl    0.405187 0.701071 0.657794 -0.309828
Cl14  Cl    Cl    0.390906 0.681875 0.356013 -0.341763
Cl15  Cl    Cl    0.374682 0.291351 0.294109 -0.336816
Cl16  Cl    Cl    0.420096 0.312424 0.593015 -0.342372
F1    F     F_    0.204720 0.674433 0.728518 -0.466495
F2    F     F_    0.174232 0.731107 0.271095 -0.469776
F3    F     F_    0.153275 0.260467 0.282323 -0.462371
F4    F     F_    0.237232 0.373841 0.701589 -0.471611
F5    F     F_    0.704729 0.174428 0.728508 -0.466490
F6    F     F_    0.674199 0.231128 0.271094 -0.469752
F7    F     F_    0.653244 0.760481 0.282318 -0.462365
F8    F     F_    0.737142 0.873704 0.701511 -0.471969
Cl17  Cl    Cl    0.104797 0.828866 0.666165 -0.239413
Cl18  Cl    Cl    0.069976 0.836384 0.394674 -0.245857
Cl19  Cl    Cl    0.073000 0.159194 0.456955 -0.263383
Cl20  Cl    Cl    0.120660 0.188521 0.713093 -0.258410
Cl21  Cl    Cl    0.604804 0.328855 0.666207 -0.239390
Cl22  Cl    Cl    0.569981 0.336419 0.394721 -0.245832
Cl23  Cl    Cl    0.573057 0.659117 0.456904 -0.263320
Cl24  Cl    Cl    0.620584 0.688508 0.713069 -0.258462
Cl25  Cl    Cl    0.996087 0.319943 0.173753 -0.218597
Cl26  Cl    Cl    0.946658 0.326720 0.894839 -0.288082
Cl27  Cl    Cl    0.032575 0.675331 0.838042 -0.246928
Cl28  Cl    Cl    0.000473 0.681874 0.123542 -0.241478
Cl29  Cl    Cl    0.496081 0.819943 0.173747 -0.218574
Cl30  Cl    Cl    0.446649 0.826726 0.894840 -0.288085
Cl31  Cl    Cl    0.532578 0.175332 0.838058 -0.246919
Cl32  Cl    Cl    0.500476 0.181877 0.123562 -0.241426
Cl33  Cl    Cl    0.142597 0.402214 0.122945 -0.313613
Cl34  Cl    Cl    0.104804 0.352509 0.862034 -0.196821
Cl35  Cl    Cl    0.157571 0.540179 0.869008 -0.206305
Cl36  Cl    Cl    0.147132 0.591186 0.138257 -0.283786
Cl37  Cl    Cl    0.642592 0.902216 0.122940 -0.313626
Cl38  Cl    Cl    0.604803 0.852514 0.862032 -0.196806
Cl39  Cl    Cl    0.657569 0.040186 0.869011 -0.206365
Cl40  Cl    Cl    0.647136 0.091187 0.138266 -0.283820

loop_
_geom_bond_atom_site_label_1
_geom_bond_atom_site_label_2
_ccdc_geom_bond_type
C16   C28   S    
C31   H14   S    
C9    C33   S    
C49   Cl29  S    
C3    O5    A    
C2    O4    A    
C13   C25   S    
C18   Cl14  S    
C14   C33   S    
C17   Cl13  S    
C7    C8    S    
C22   H2    S    
C4    O7    A    
C45   C46   S    
C44   Cl23  S    
O4    Zn1   S    
C32   C36   S    
C38   C42   S    
C5    H20   S    
C30   H12   S    
C19   C36   S    
C23   F3    S    
C5    C6    S    
C26   C39   S    
C6    N2    S    
C28   C40   S    
C1    O1    A    
O16   Zn3   S    
C29   C33   S    
C48   Cl36  S    
C6    H18   S    
C51   N4    S    
C13   Cl9   S    
C16   C34   S    
C19   Cl15  S    
C16   Cl4   S    
C28   F8    S    
C20   C24   S    
O3    Zn2   S    
C24   C38   S    
C12   O15   A    
O14   Zn4   S    
C12   C36   S    
C52   N3    S    
O6    Zn4   S    
C18   C35   S    
O13   Zn3   S    
C15   C34   S    
C42   Cl20  S    
C32   H16   S    
C11   O13   A    
C10   O12   A    
C52   Cl40  S    
C30   H11   S    
C29   C43   S    
C3    O6    A    
C45   Cl33  S    
O2    Zn2   S    
C30   C44   S    
C2    O3    A    
C25   H5    S    
O12   Zn1   S    
C28   H8    S    
C6    H19   S    
C29   H9    S    
C24   F4    S    
C30   C34   S    
C51   C52   S    
O8    Zn3   S    
C41   Cl17  S    
N3    Zn4   S    
C43   Cl21  S    
C46   Cl34  S    
C9    O9    A    
C46   N2    S    
C27   F7    S    
O15   Zn4   S    
C39   C43   S    
C1    O2    A    
C22   C37   S    
C5    H17   S    
C8    H23   S    
C17   C21   S    
C49   N3    S    
O9    Zn1   S    
C48   N1    S    
C19   C23   S    
C18   Cl6   S    
C13   C33   S    
O5    Zn3   S    
C15   Cl11  S    
C46   Cl26  S    
C15   C27   S    
C47   C48   S    
C4    C39   S    
C51   Cl39  S    
C27   C40   S    
C7    H21   S    
N2    Zn1   S    
C8    H22   S    
C49   Cl37  S    
N1    Zn2   S    
C10   C34   S    
C14   C26   S    
C26   H6    S    
C7    H24   S    
C42   Cl19  S    
C32   H15   S    
C1    C38   S    
C11   O14   A    
C3    C40   S    
C25   F5    S    
N4    Zn3   S    
C31   C35   S    
C44   Cl24  S    
C5    N1    S    
C16   Cl12  S    
C7    N3    S    
O7    Zn4   S    
C31   H13   S    
C22   F2    S    
C29   H10   S    
C31   C41   S    
C47   Cl27  S    
C18   C22   S    
C41   Cl18  S    
C48   Cl28  S    
C43   Cl22  S    
C47   Cl35  S    
C20   Cl16  S    
C50   N4    S    
C9    O10   A    
C10   O11   A    
C50   Cl30  S    
C23   H3    S    
C17   Cl5   S    
C4    O8    A    
C24   H4    S    
C23   C38   S    
C26   F6    S    
C45   Cl25  S    
C11   C35   S    
C27   H7    S    
C25   C39   S    
C21   H1    S    
C2    C37   S    
C50   Cl38  S    
O1    Zn1   S    
C14   Cl10  S    
C52   Cl32  S    
O11   Zn2   S    
C37   C41   S    
C21   F1    S    
C14   Cl2   S    
C20   C36   S    
C40   C44   S    
C21   C37   S    
C49   C50   S    
C8    N4    S    
C32   C42   S    
C12   O16   A    
C45   N1    S    
C17   C35   S    
C47   N2    S    
C15   Cl3   S    
C13   Cl1   S    
O10   Zn2   S    
C51   Cl31  S    
C20   Cl8   S    
C19   Cl7   S    
