data_mof_unit_32914.cif
_audit_creation_date              2012-12-11T15:34:37-0500
_audit_creation_method            fapswitch 2.2
_symmetry_space_group_name_H-M    P1
_symmetry_Int_Tables_number       1
_space_group_crystal_system       triclinic
_cell_length_a                    15.053577
_cell_length_b                    15.065491
_cell_length_c                    34.95362
_cell_angle_alpha                 90.444186
_cell_angle_beta                  89.936337
_cell_angle_gamma                 59.928951
_cell_volume                      6859.84227696

loop_
_atom_site_label
_atom_site_type_symbol
_atom_type_description
_atom_site_fract_x
_atom_site_fract_y
_atom_site_fract_z
_atom_type_partial_charge
C1    C     C_R   0.302927 0.608078 0.555862 0.551830
C2    C     C_R   0.262182 0.696566 0.383658 -0.123268
C3    C     C_R   0.747832 0.157408 0.265271 -0.071210
C4    C     C_R   0.753740 0.149839 0.225551 -0.122990
C5    C     C_R   0.666391 0.209680 0.203199 0.023535
C6    C     C_R   0.710352 0.256593 0.346406 0.258980
C7    C     C_R   0.696787 0.269075 0.386138 -0.136987
C8    C     C_R   0.565640 0.219653 0.383739 0.229105
C9    C     C_R   0.732841 0.567799 0.650297 -0.142522
C10   C     C_R   0.577547 0.209958 0.344026 -0.101785
C11   C     C_R   0.647782 0.230092 0.325255 0.026645
C12   C     C_R   0.621021 0.256480 0.404973 -0.026633
C13   C     C_R   0.249658 0.693969 0.344431 -0.099715
C14   C     C_R   0.089159 0.703733 0.092769 0.022279
C15   C     C_R   0.104291 0.611343 0.108265 -0.123338
C16   C     C_R   0.147018 0.580707 0.144400 -0.119063
C17   C     C_R   0.175874 0.641524 0.165522 0.034837
C18   C     C_R   0.168484 0.729491 0.148900 -0.106074
C19   C     C_R   0.125165 0.760578 0.112753 -0.117734
C20   C     C_R   0.280313 0.628617 0.222907 -0.119531
C21   C     C_2   0.560333 0.124220 0.580834 0.237035
C22   C     C_2   0.346760 0.451857 0.720722 0.200322
C23   C     C_2   0.507778 0.867204 0.082185 0.262098
C24   C     C_R   0.227105 0.622408 0.328241 0.021364
C25   C     C_2   0.608940 0.498407 0.278656 0.209203
C26   C     C_2   0.607821 0.519496 0.195102 0.195566
C27   C     C_2   0.430607 0.801654 0.332747 0.216437
C28   C     C_2   0.190068 0.499120 0.415712 0.257916
C29   C     C_R   0.573701 0.730060 0.649224 -0.054122
C30   C     C_R   0.252235 0.627752 0.407818 0.034245
C31   C     C_R   0.735405 0.026741 0.943818 0.576716
C32   C     C_R   0.744804 0.722099 0.945478 0.537633
C33   C     C_R   0.038392 0.733926 0.948358 0.543809
C34   C     C_R   0.722543 0.039139 0.052868 0.563357
C35   C     C_R   0.732398 0.733594 0.054414 0.561352
C36   C     C_R   0.656747 0.654202 0.669821 -0.014729
C37   C     C_R   0.027977 0.744287 0.057783 0.545142
C38   C     C_R   0.563007 0.717189 0.610124 0.232741
C39   C     C_R   0.671472 0.668616 0.789140 0.344307
C40   C     C_R   0.662640 0.661752 0.711717 0.344480
C41   C     C_R   0.769671 0.600921 0.849324 -0.140258
C42   C     C_R   0.785491 0.612805 0.887666 -0.162231
C43   C     C_R   0.616100 0.765281 0.891671 0.235049
C44   C     C_R   0.602516 0.754239 0.852674 -0.052248
C45   C     C_R   0.680258 0.674065 0.830987 -0.018091
C46   C     C_R   0.611265 0.589161 0.555022 0.535436
C47   C     C_R   0.291906 0.624724 0.262531 -0.113254
C48   C     C_R   0.712050 0.697820 0.908856 0.010083
C49   C     C_R   0.722223 0.075945 0.906625 0.067808
C50   C     C_R   0.623835 0.145833 0.892657 0.251517
C51   C     C_R   0.613107 0.174099 0.853975 -0.105802
C52   C     C_R   0.698942 0.131889 0.829645 -0.000641
C53   C     C_R   0.796831 0.067536 0.844348 -0.139023
C54   C     C_R   0.808541 0.040564 0.882641 -0.175780
C55   C     C_R   0.633158 0.249393 0.774285 -0.121356
C56   C     C_R   0.622818 0.265278 0.735011 -0.109505
C57   C     C_R   0.663245 0.181321 0.709558 0.032527
C58   C     C_R   0.221337 0.615645 0.286267 0.032310
C59   C     C_R   0.590837 0.299787 0.553277 0.587866
C60   C     C_R   0.713875 0.081247 0.723722 -0.114063
C61   C     C_R   0.725943 0.065341 0.763009 -0.106910
C62   C     C_R   0.685924 0.149383 0.788405 0.033578
C63   C     C_R   0.615266 0.153437 0.644086 -0.130446
C64   C     C_R   0.600300 0.177598 0.605045 0.009846
C65   C     C_R   0.671867 0.289891 0.614841 -0.136164
C66   C     C_R   0.686474 0.264915 0.653192 -0.110135
C67   C     C_R   0.655565 0.199155 0.668257 0.032652
C68   C     C_R   0.625191 0.250316 0.590642 0.045697
C69   C     C_R   0.142435 0.604988 0.269621 -0.110772
C70   C     C_R   0.093410 0.696423 0.911586 0.022054
C71   C     C_R   0.299932 0.610454 0.446008 0.577960
C72   C     C_R   0.118261 0.759965 0.890378 -0.124884
C73   C     C_R   0.145060 0.738962 0.851912 -0.119711
C74   C     C_R   0.149059 0.653350 0.834145 0.031891
C75   C     C_R   0.133561 0.584538 0.855944 -0.117093
C76   C     C_R   0.105394 0.606168 0.894469 -0.122506
C77   C     C_R   0.238584 0.552076 0.775501 -0.136702
C78   C     C_R   0.254776 0.545262 0.735745 0.033874
C79   C     C_R   0.186726 0.629337 0.712573 0.038377
C80   C     C_R   0.131475 0.607922 0.230066 -0.114056
C81   C     C_R   0.105922 0.717175 0.729794 -0.140339
C82   C     C_R   0.093231 0.723808 0.769258 -0.114530
C83   C     C_R   0.607914 0.590218 0.445155 0.534321
C84   C     C_R   0.160129 0.641998 0.792342 0.021438
C85   C     C_R   0.217835 0.707772 0.655786 -0.107332
C86   C     C_R   0.242649 0.705017 0.617272 -0.112740
C87   C     C_R   0.226941 0.553762 0.607989 -0.102550
C88   C     C_R   0.200651 0.557503 0.646540 -0.061151
C89   C     C_R   0.200866 0.631677 0.670952 0.068377
C90   C     C_R   0.251764 0.625430 0.593364 0.020606
C91   C     C_R   0.198792 0.622180 0.206496 0.024655
C92   C     C_R   0.689562 0.713891 0.089654 0.031819
C93   C     C_R   0.589853 0.782956 0.104513 0.005870
C94   C     C_R   0.565725 0.770927 0.142277 -0.120933
C95   C     C_R   0.588221 0.302730 0.443638 0.546171
C96   C     C_R   0.635750 0.688185 0.164370 0.075192
C97   C     C_R   0.729739 0.615471 0.148487 -0.088495
C98   C     C_R   0.756437 0.628206 0.111717 -0.138448
C99   C     C_R   0.613197 0.596213 0.220841 -0.010502
C100  C     C_R   0.611594 0.587016 0.261300 -0.016840
C101  C     C_R   0.611213 0.664067 0.285073 0.000481
C102  C     C_R   0.208371 0.559312 0.352296 -0.134358
C103  C     C_R   0.610144 0.749034 0.268865 -0.156045
C104  C     C_R   0.612003 0.757961 0.229494 -0.149054
C105  C     C_R   0.615718 0.681812 0.205287 0.034295
C106  C     C_R   0.528013 0.721435 0.350018 0.030838
C107  C     C_R   0.633918 0.623464 0.591708 0.012614
C108  C     C_R   0.532742 0.705072 0.389557 -0.119257
C109  C     C_R   0.710244 0.567309 0.384105 0.237180
C110  C     C_R   0.705074 0.582499 0.344585 -0.027322
C111  C     C_R   0.614284 0.656671 0.327235 -0.006019
C112  C     C_R   0.620630 0.624516 0.406771 -0.016901
C113  C     C_R   0.217802 0.563088 0.392107 0.012454
C114  C     C_R   0.696828 0.104446 0.087622 0.059925
C115  C     C_R   0.772104 0.122134 0.103787 -0.170884
C116  C     C_R   0.758794 0.164447 0.140332 -0.130501
C117  C     C_R   0.670214 0.189436 0.161620 0.009854
C118  C     C_R   0.590562 0.181394 0.144271 -0.103695
C119  C     C_R   0.721482 0.552536 0.611842 -0.167508
C120  C     C_R   0.602509 0.139712 0.107252 0.246124
C121  C     C_R   0.573619 0.279434 0.221411 -0.131540
C122  C     C_R   0.567543 0.286102 0.261242 -0.124234
C123  C     C_R   0.654462 0.224375 0.283308 0.058581
Cr1   Cr    Cr6+3 0.421670 0.426920 0.499620 1.110846
Cr2   Cr    Cr6+3 0.427030 0.651190 0.500980 1.051095
Cr3   Cr    Cr6+3 0.651280 0.421870 0.499380 1.039556
Cr4   Cr    Cr6+3 0.910810 0.908010 0.001130 1.020267
Cr5   Cr    Cr6+3 0.682800 0.909890 0.998370 1.142820
Cr6   Cr    Cr6+3 0.908370 0.682300 0.002180 1.018123
H1    H     H_    0.778753 0.481284 0.598619 0.145155
H2    H     H_    0.863828 0.035443 0.825843 0.120066
H3    H     H_    0.691653 0.345630 0.604696 0.137467
H4    H     H_    0.110310 0.829778 0.902706 0.137427
H5    H     H_    0.086878 0.555697 0.910100 0.129957
H6    H     H_    0.185344 0.499645 0.657768 0.120304
H7    H     H_    0.290580 0.489442 0.793662 0.091928
H8    H     H_    0.158334 0.792028 0.835526 0.117996
H9    H     H_    0.053532 0.781880 0.712563 0.110871
H10   H     H_    0.031348 0.793350 0.781899 0.110169
H11   H     H_    0.216786 0.766475 0.674204 0.120201
H12   H     H_    0.884665 0.986350 0.892825 0.136326
H13   H     H_    0.858769 0.558375 0.899941 0.145599
H14   H     H_    0.261192 0.761406 0.606906 0.161350
H15   H     H_    0.136781 0.517851 0.842593 0.112795
H16   H     H_    0.232755 0.491954 0.590147 0.135949
H17   H     H_    0.832438 0.572860 0.101395 0.135686
H18   H     H_    0.772380 0.535238 0.327122 0.141891
H19   H     H_    0.491854 0.825746 0.154561 0.096257
H20   H     H_    0.609947 0.807879 0.286956 0.126808
H21   H     H_    0.799077 0.508795 0.665112 0.146432
H22   H     H_    0.614884 0.822884 0.217783 0.116879
H23   H     H_    0.719416 0.299351 0.671425 0.120612
H24   H     H_    0.464267 0.751086 0.406578 0.180828
H25   H     H_    0.784740 0.551327 0.165334 0.109169
H26   H     H_    0.844105 0.098052 0.089064 0.137312
H27   H     H_    0.531897 0.186064 0.327652 0.143540
H28   H     H_    0.495244 0.339419 0.274890 0.136533
H29   H     H_    0.505485 0.327421 0.204895 0.123514
H30   H     H_    0.516112 0.799322 0.663488 0.157721
H31   H     H_    0.820247 0.172602 0.152743 0.119396
H32   H     H_    0.815397 0.108911 0.282006 0.143585
H33   H     H_    0.825664 0.093721 0.212451 0.107651
H34   H     H_    0.583449 0.343073 0.724426 0.152748
H35   H     H_    0.741092 0.295697 0.401865 0.156321
H36   H     H_    0.521660 0.200811 0.160434 0.089830
H37   H     H_    0.078487 0.565145 0.093347 0.130272
H38   H     H_    0.115174 0.831654 0.101373 0.134165
H39   H     H_    0.260349 0.746370 0.326593 0.142696
H40   H     H_    0.830365 0.536950 0.833635 0.147887
H41   H     H_    0.354741 0.630985 0.274657 0.146006
H42   H     H_    0.333421 0.638933 0.205141 0.138816
H43   H     H_    0.153121 0.512025 0.156636 0.107213
H44   H     H_    0.086310 0.599165 0.287184 0.110074
H45   H     H_    0.601816 0.314846 0.793604 0.114875
H46   H     H_    0.066978 0.604523 0.218001 0.107049
H47   H     H_    0.187591 0.505978 0.340016 0.098296
H48   H     H_    0.189742 0.777863 0.164881 0.112340
H49   H     H_    0.286604 0.748266 0.394667 0.173228
H50   H     H_    0.531176 0.809346 0.839341 0.162452
H51   H     H_    0.523708 0.085841 0.594174 0.109926
H52   H     H_    0.502458 0.796409 0.564681 0.337723
H53   H     H_    0.382765 0.383059 0.737969 0.098412
H54   H     H_    0.451159 0.936751 0.096733 0.100677
H55   H     H_    0.653104 0.422377 0.266233 0.133631
H56   H     H_    0.537578 0.224700 0.842408 0.094864
H57   H     H_    0.635842 0.441461 0.204202 0.097522
H58   H     H_    0.420943 0.807027 0.301967 0.119669
H59   H     H_    0.807173 0.515020 0.425644 0.344620
H60   H     H_    0.465330 0.156500 0.108439 0.312422
H61   H     H_    0.815676 0.295718 0.346418 0.343428
H62   H     H_    0.520966 0.171887 0.426785 0.353056
H63   H     H_    0.190476 0.432944 0.402991 0.119142
H64   H     H_    0.539188 0.822674 0.938440 0.347906
H65   H     H_    0.477230 0.230647 0.902455 0.321861
H66   H     H_    0.745969 0.015802 0.704395 0.111343
H67   H     H_    0.766043 0.987578 0.773657 0.115000
H68   H     H_    0.593637 0.100561 0.655894 0.099798
N1    N     N_R   0.747702 0.590437 0.768838 -0.231682
N2    N     N_R   0.743210 0.586898 0.730970 -0.232826
N3    N     N_R   0.586059 0.740144 0.731959 -0.231343
N4    N     N_R   0.590583 0.743714 0.769956 -0.230683
O1    O     O_R   0.502070 0.323090 0.541280 -0.465730
O2    O     O_R   0.831550 0.656950 0.958960 -0.523117
O3    O     O_R   0.998590 0.685540 0.963930 -0.500722
O4    O     O_R   0.338340 0.520690 0.539540 -0.494786
O5    O     O_R   0.008220 0.831200 0.045060 -0.513364
O6    O     O_R   0.813270 0.997930 0.038810 -0.524103
O7    O     O_R   0.657500 0.016560 0.039940 -0.431386
O8    O     O_R   0.685680 0.820940 0.038120 -0.450179
O9    O     O_R   0.822130 0.666070 0.043610 -0.531192
O10   O     O_R   0.989860 0.694000 0.042400 -0.504593
O11   O     O_3   0.833990 0.833400 0.000560 -0.266073
O12   O     O_R   0.520720 0.641670 0.461580 -0.511291
O13   O     O_R   0.324760 0.674070 0.543580 -0.500747
O14   O     O_R   0.522400 0.640310 0.540110 -0.481816
O15   O     O_R   0.675940 0.500630 0.542210 -0.525629
O16   O     O_R   0.641790 0.337020 0.538150 -0.515700
O17   O     O_R   0.500260 0.324550 0.456580 -0.479223
O18   O     O_R   0.336660 0.522040 0.461020 -0.451398
O19   O     O_R   0.322940 0.675540 0.458880 -0.527514
O20   O     O_2   0.571471 0.118408 0.546133 -0.483461
O21   O     O_3   0.481393 0.796259 0.591520 -0.690529
O22   O     O_2   0.386223 0.451156 0.690121 -0.508154
O23   O     O_R   0.674120 0.502090 0.457500 -0.493443
O24   O     O_2   0.498151 0.857419 0.047993 -0.477648
O25   O     O_2   0.556815 0.509588 0.307034 -0.506093
O26   O     O_2   0.569492 0.543362 0.163386 -0.488487
O27   O     O_2   0.359358 0.863146 0.352781 -0.522738
O28   O     O_3   0.802925 0.494474 0.399032 -0.692106
O29   O     O_3   0.525285 0.128261 0.090849 -0.671270
O30   O     O_3   0.779485 0.275954 0.327493 -0.699481
O31   O     O_3   0.497901 0.194823 0.400322 -0.670812
O32   O     O_2   0.161362 0.522310 0.448836 -0.486942
O33   O     O_3   0.535208 0.843714 0.911435 -0.669941
O34   O     O_R   0.640110 0.338380 0.459630 -0.503110
O35   O     O_3   0.539793 0.183044 0.916832 -0.665381
O36   O     O_3   0.499990 0.499990 0.499990 -0.264578
O37   O     O_R   0.017640 0.822070 0.960410 -0.516756
O38   O     O_R   0.822000 0.989470 0.960340 -0.524525
O39   O     O_R   0.666920 0.007430 0.955290 -0.436671
O40   O     O_R   0.694410 0.812480 0.959650 -0.475870

loop_
_geom_bond_atom_site_label_1
_geom_bond_atom_site_label_2
_ccdc_geom_bond_type
C87   C88   A    
C41   C42   A    
Cr4   O38   S    
C93   C94   A    
C32   O40   A    
C8    O31   S    
C37   O5    A    
C17   C91   S    
C100  C101  A    
C31   O39   A    
C95   O17   A    
C114  C115  A    
C92   C98   A    
C29   H30   S    
C77   C78   A    
C56   C57   A    
C23   H54   S    
C29   C36   A    
C1    C90   S    
C69   H44   S    
C64   C68   A    
C104  H22   S    
Cr4   O5    S    
C57   C67   S    
C116  H31   S    
Cr1   O4    S    
Cr3   O23   S    
C27   O27   D    
C102  H47   S    
C49   C54   A    
C55   C62   A    
C5    C121  A    
C25   O25   D    
C119  H1    S    
C71   O18   A    
C116  C117  A    
C18   C19   A    
C73   C74   A    
C38   C107  A    
C87   H16   S    
C2    C13   A    
Cr4   O6    S    
C110  C111  A    
C37   O10   A    
C21   C64   S    
C33   O37   A    
C59   O16   A    
C83   O12   A    
Cr6   O3    S    
Cr2   O12   S    
C21   H51   S    
C108  H24   S    
C18   H48   S    
N3    N4    A    
C29   C38   A    
C42   H13   S    
C9    C36   A    
C15   H37   S    
N1    N2    A    
C53   H2    S    
C77   H7    S    
Cr6   O10   S    
C1    O4    A    
C43   C48   A    
C75   H15   S    
C25   H55   S    
C28   O32   D    
C39   C45   S    
C35   C92   S    
C106  C108  A    
C66   C67   A    
Cr1   O18   S    
C101  C103  A    
C6    O30   S    
C96   C97   A    
Cr5   O40   S    
C32   C48   S    
C7    C12   A    
C3    H32   S    
C95   O34   A    
C31   C49   S    
C28   H63   S    
C44   H50   S    
C107  C119  A    
C104  C105  A    
C23   O24   D    
C3    C123  A    
C86   H14   S    
C97   C98   A    
Cr1   O17   S    
C106  C111  A    
C19   H38   S    
C94   H19   S    
C81   H9    S    
C99   C105  A    
C20   C91   A    
C63   C67   A    
C9    H21   S    
C74   C75   A    
C51   C52   A    
C36   C40   S    
Cr5   O7    S    
C22   C78   S    
C86   C90   A    
C109  C112  A    
C120  O29   S    
C6    C11   A    
C79   C81   A    
C76   H5    S    
C78   C79   A    
C16   C17   A    
C13   H39   S    
C27   H58   S    
C98   H17   S    
C27   C106  S    
C34   O7    A    
C85   C86   A    
C41   H40   S    
C15   C16   A    
C81   C82   A    
C71   O19   A    
C108  C112  A    
C13   C24   A    
C5    C117  S    
C60   C61   A    
H62   O31   S    
C50   O35   S    
C75   C76   A    
C30   C71   S    
C66   H23   S    
C82   H10   S    
C51   H56   S    
C59   C68   S    
C47   H41   S    
Cr2   O13   S    
C16   H43   S    
C25   C100  S    
C99   C100  A    
C56   H34   S    
C26   O26   D    
C8    C12   A    
C65   C68   A    
C46   C107  S    
C54   H12   S    
C55   C56   A    
C17   C18   A    
C109  O28   S    
C46   O14   A    
C50   C51   A    
C42   C48   A    
C97   H25   S    
Cr6   O11   S    
C94   C96   A    
Cr3   O34   S    
C85   H11   S    
C121  C122  A    
Cr3   O15   S    
C33   C70   S    
C83   O23   A    
C8    C10   A    
C39   N1    A    
C65   C66   A    
C46   O15   A    
C121  H29   S    
C39   N4    A    
C43   C44   A    
C70   C76   A    
C9    C119  A    
C4    H33   S    
C12   C95   S    
Cr5   O39   S    
C10   H27   S    
C110  H18   S    
H64   O33   S    
C1    O13   A    
C65   H3    S    
Cr2   O36   S    
C52   C53   A    
C88   H6    S    
C96   C105  S    
C22   O22   D    
C31   O38   A    
H59   O28   S    
H61   O30   S    
C85   C89   A    
C21   O20   D    
C118  H36   S    
C115  H26   S    
H52   O21   S    
C83   C112  S    
C14   C19   A    
C35   O9    A    
Cr5   O8    S    
C11   C123  S    
C44   C45   A    
C80   H46   S    
C74   C84   S    
C72   C73   A    
C57   C60   A    
C43   O33   S    
Cr3   O16   S    
C58   C69   A    
C53   C54   A    
C6    C7    A    
C40   N2    A    
C34   O6    A    
C34   C114  S    
C40   N3    A    
C7    H35   S    
C26   C99   S    
C33   O3    A    
C82   C84   A    
C77   C84   A    
C2    C30   A    
C55   H45   S    
C10   C11   A    
C38   O21   S    
C80   C91   A    
H65   O35   S    
H60   O29   S    
C35   O8    A    
C22   H53   S    
C102  C113  A    
C52   C62   S    
C117  C118  A    
Cr5   O11   S    
C47   C58   A    
Cr1   O36   S    
Cr2   O14   S    
C59   O1    A    
C72   H4    S    
C73   H8    S    
C32   O2    A    
C101  C111  S    
C63   H68   S    
C92   C93   A    
C122  H28   S    
C24   C102  A    
C61   C62   A    
C118  C120  A    
C79   C89   S    
C20   C47   A    
C28   C113  S    
C103  H20   S    
C63   C64   A    
Cr6   O2    S    
Cr2   O19   S    
C23   C93   S    
Cr4   O11   S    
C4    C5    A    
C20   H42   S    
C88   C89   A    
Cr4   O37   S    
C24   C58   S    
C49   C50   A    
C87   C90   A    
Cr1   O1    S    
C103  C104  A    
C122  C123  A    
C41   C45   A    
C14   C15   A    
C26   H57   S    
C69   C80   A    
C70   C72   A    
C2    H49   S    
C115  C116  A    
Cr6   O9    S    
C109  C110  A    
Cr3   O36   S    
C61   H67   S    
C114  C120  A    
C3    C4    A    
C60   H66   S    
C14   C37   S    
C30   C113  A    
