data_mof_unit_43425.cif
_audit_creation_date              2012-12-10T20:27:59-0500
_audit_creation_method            fapswitch 2.2
_symmetry_space_group_name_H-M    P1
_symmetry_Int_Tables_number       1
_space_group_crystal_system       triclinic
_cell_length_a                    12.751046
_cell_length_b                    10.821197
_cell_length_c                    9.933721
_cell_angle_alpha                 89.645395
_cell_angle_beta                  97.373508
_cell_angle_gamma                 90.99313
_cell_volume                      1359.12085189

loop_
_atom_site_label
_atom_site_type_symbol
_atom_type_description
_atom_site_fract_x
_atom_site_fract_y
_atom_site_fract_z
_atom_type_partial_charge
Br1   Br    Br    0.808680 0.364929 0.282936 -0.345473
Br2   Br    Br    0.605939 0.168532 0.877573 -0.377855
Br3   Br    Br    0.679103 0.667826 0.181552 -0.367531
Br4   Br    Br    0.200017 0.368728 0.081158 -0.201429
Br5   Br    Br    0.829352 0.444548 0.836257 -0.308520
Br6   Br    Br    0.155575 0.676098 0.205937 -0.257491
Br7   Br    Br    0.208654 0.733027 0.646424 -0.279440
Br8   Br    Br    0.401543 0.855439 0.207896 -0.280877
Br9   Br    Br    0.439679 0.815900 0.840300 -0.318083
C1    C     C_R   0.493009 0.260595 0.499970 0.974556
C2    C     C_R   0.445795 0.935683 0.380876 0.198168
C3    C     C_R   0.494730 0.871914 0.497278 -0.118421
C4    C     C_R   0.298778 0.515929 0.473062 0.966321
C5    C     C_R   0.538646 0.939214 0.611658 -0.085757
C6    C     C_3   0.536976 0.928884 0.763158 0.072521
C7    C     C_3   0.507974 0.065555 0.759116 0.525551
C8    C     C_R   0.419678 0.442153 0.057970 0.183155
C9    C     C_R   0.577646 0.559270 0.082470 0.350865
C10   C     C_R   0.579115 0.555249 0.940083 -0.060855
C11   C     C_R   0.420156 0.443561 0.915045 0.233082
C12   C     C_R   0.027841 0.563686 0.562197 -0.098323
C13   C     C_3   0.310307 0.485126 0.886098 -0.418646
C14   C     C_3   0.307495 0.485558 0.036300 0.122497
C15   C     C_R   0.499037 0.739788 0.499394 0.934237
C16   C     C_R   0.702238 0.489549 0.527431 0.939620
C17   C     C_R   0.817235 0.482867 0.547183 -0.241594
C18   C     C_R   0.186403 0.547026 0.455187 -0.230129
C19   C     C_R   0.021951 0.513365 0.321270 -0.049894
C20   C     C_R   0.127079 0.547163 0.328144 0.282224
C21   C     C_R   0.137155 0.591132 0.562598 0.249795
C22   C     C_R   0.974289 0.508898 0.440796 -0.066025
C23   C     C_R   0.870691 0.465801 0.435017 0.259879
C24   C     C_R   0.873273 0.515916 0.672871 0.129506
C25   C     C_R   0.972122 0.575091 0.677534 0.339163
C26   C     C_R   0.529483 0.065099 0.613812 -0.097628
C27   C     C_R   0.480471 0.128470 0.502053 -0.179069
C28   C     C_R   0.429469 0.062802 0.389979 0.268701
H1    H     H_    0.618690 0.913784 0.814048 0.139581
H2    H     H_    0.640886 0.604019 0.895249 0.185727
H3    H     H_    0.306625 0.579179 0.842228 0.249068
H4    H     H_    0.257026 0.416195 0.828648 0.265427
H5    H     H_    0.302684 0.580075 0.075873 0.194683
H6    H     H_    0.975595 0.506179 0.222304 0.239255
H7    H     H_    0.219936 0.041554 0.659627 0.419428
H8    H     H_    0.866045 0.726581 0.889795 0.364531
H9    H     H_    0.457746 0.142823 0.143738 0.368529
N1    N     N_R   0.499290 0.499140 0.142710 -0.168096
N2    N     N_R   0.499290 0.499180 0.857070 -0.129153
O1    O     O_R   0.500010 0.316790 0.614690 -0.564148
O2    O     O_2   0.347595 0.230546 0.747241 -0.306495
O3    O     O_3   0.292854 0.014317 0.652926 -0.486132
O4    O     O_2   0.116137 0.631228 0.890792 -0.214551
O5    O     O_2   0.024168 0.803946 0.769943 -0.210953
O6    O     O_3   0.925358 0.676073 0.932720 -0.447451
O7    O     O_2   0.245310 0.049262 0.219157 -0.121962
O8    O     O_2   0.286205 0.240063 0.344500 -0.265044
O9    O     O_3   0.393419 0.192657 0.144752 -0.465925
O10   O     O_R   0.500000 0.316760 0.385350 -0.583189
O11   O     O_R   0.346360 0.499990 0.595720 -0.604618
O12   O     O_R   0.346350 0.499960 0.366370 -0.582386
O13   O     O_R   0.500000 0.683240 0.614650 -0.598162
O14   O     O_R   0.499990 0.683210 0.385310 -0.582039
O15   O     O_R   0.653650 0.500040 0.633630 -0.601859
O16   O     O_R   0.653640 0.500010 0.404280 -0.563619
O17   O     O_2   0.343111 0.060800 0.909274 -0.143009
S1    S     S_3+6 0.370065 0.096332 0.771342 0.121585
S2    S     S_3+6 0.012396 0.673395 0.819089 0.135283
S3    S     S_3+6 0.333395 0.136497 0.273569 0.155012
Zn1   Zn    Zn3+2 0.500010 0.500020 0.653130 1.061700
Zn2   Zn    Zn3+2 0.499990 0.499980 0.346870 1.092181

loop_
_geom_bond_atom_site_label_1
_geom_bond_atom_site_label_2
_ccdc_geom_bond_type
C25   S2    S    
C15   O14   A    
C2    C3    A    
N1    Zn2   S    
C17   C23   A    
C15   O13   A    
C4    O11   A    
O16   Zn2   S    
C18   C20   A    
C19   H6    S    
O2    S1    D    
C12   C21   A    
C3    C15   S    
C17   C24   A    
C26   C27   A    
C8    C14   S    
O12   Zn2   S    
N2    Zn1   S    
C13   H3    S    
C9    N1    A    
Br6   C20   S    
C24   C25   A    
Br9   C6    S    
C6    H1    S    
Br7   C21   S    
O1    Zn1   S    
C18   C21   A    
C12   C22   A    
C11   N2    A    
C14   H5    S    
C10   H2    S    
O10   Zn2   S    
O11   Zn1   S    
Br8   C2    S    
H7    O3    S    
C19   C20   A    
C1    O10   A    
C11   C13   S    
H8    O6    S    
C9    C10   A    
C19   C22   A    
H9    O9    S    
O4    S2    D    
O5    S2    D    
C13   H4    S    
C7    S1    S    
O3    S1    S    
O9    S3    S    
C6    C7    S    
C7    C26   S    
C28   S3    S    
O15   Zn1   S    
C8    C11   A    
Br2   C7    S    
O14   Zn2   S    
Br3   C9    S    
O17   S1    D    
C16   O15   A    
O8    S3    D    
O13   Zn1   S    
C5    C26   A    
C2    C28   A    
Br4   C14   S    
O7    S3    D    
C5    C6    S    
C27   C28   A    
C1    C27   S    
O6    S2    S    
C10   N2    A    
C16   C17   S    
C13   C14   S    
C1    O1    A    
C12   C25   A    
Br1   C23   S    
C4    C18   S    
C4    O12   A    
C22   C23   A    
C8    N1    A    
C3    C5    A    
C16   O16   A    
Br5   C24   S    
