data_mof_unit_27636.cif
_audit_creation_date              2013-03-05T15:55:41-0500
_audit_creation_method            fapswitch 2.2
_symmetry_space_group_name_H-M    P1
_symmetry_Int_Tables_number       1
_space_group_crystal_system       triclinic
_cell_length_a                    6.923111
_cell_length_b                    17.623453
_cell_length_c                    19.469762
_cell_angle_alpha                 108.619035
_cell_angle_beta                  89.514414
_cell_angle_gamma                 90.488053
_cell_volume                      2251.03797694

loop_
_atom_site_label
_atom_site_type_symbol
_atom_site_description
_atom_site_fract_x
_atom_site_fract_y
_atom_site_fract_z
_atom_type_partial_charge
O1    O     O_R   0.494330 0.415710 0.413720 -0.607092
O2    O     O_R   0.819360 0.430070 0.560210 -0.579561
O3    O     O_R   0.994320 0.584290 0.586280 -0.601742
C1    C     C_R   0.649970 0.416095 0.582911 1.010542
O4    O     O_R   0.823740 0.406290 0.412670 -0.590791
O5    O     O_R   0.998730 0.560340 0.437690 -0.569439
C2    C     C_R   0.654995 0.383192 0.384754 0.989870
O6    O     O_R   0.489920 0.439660 0.562310 -0.567305
O7    O     O_3   0.662330 0.550570 0.508380 -0.277084
V1    V     V_3+5 0.935370 0.490620 0.498440 1.222087
O8    O     O_R   0.328720 0.569930 0.439790 -0.595624
C3    C     C_R   0.160536 0.582019 0.415618 1.001886
O9    O     O_R   0.324340 0.593710 0.587330 -0.593629
C4    C     C_R   0.155085 0.616797 0.615395 0.988396
V2    V     V_3+5 0.435940 0.509380 0.501560 1.215319
O10   O     O_3   0.159110 0.449430 0.491620 -0.269978
C5    C     C_R   0.312467 0.723329 0.718710 -0.089452
H1    H     H_    0.453484 0.704107 0.695517 0.120684
C6    C     C_R   0.301367 0.787128 0.783672 -0.125629
H2    H     H_    0.434367 0.815227 0.808398 0.125253
C7    C     C_R   0.121414 0.814348 0.816077 -0.124233
C8    C     C_R   0.952908 0.775829 0.781766 -0.103900
H3    H     H_    0.811890 0.794978 0.804999 0.127950
C9    C     C_R   0.964008 0.712045 0.716800 -0.123602
H4    H     H_    0.831005 0.683911 0.692106 0.130355
C10   C     C_R   0.143924 0.684996 0.684272 -0.127905
C11   C     C_R   0.998268 0.614319 0.311407 0.260112
C12   C     C_R   0.150542 0.627151 0.362642 -0.240321
C13   C     C_R   0.295728 0.683637 0.363111 -0.271843
C14   C     C_R   0.288911 0.729194 0.315811 0.156516
C15   C     C_R   0.133461 0.719183 0.267184 0.020853
C16   C     C_R   0.987699 0.661694 0.264841 0.046406
C17   C     C_R   0.435153 0.785163 0.316724 -0.209314
C18   C     C_R   0.427084 0.831471 0.270399 -0.187573
C19   C     C_R   0.272628 0.822751 0.222204 0.156494
C20   C     C_R   0.125224 0.766288 0.220194 0.017754
C21   C     C_R   0.971186 0.756158 0.170747 -0.022809
C22   C     C_R   0.827945 0.698615 0.168965 -0.135208
C23   C     C_R   0.835371 0.652684 0.215315 -0.149229
C24   C     C_R   0.263656 0.869733 0.176178 -0.195633
C25   C     C_R   0.111306 0.860646 0.126819 -0.313806
C26   C     C_R   0.965755 0.802434 0.123209 0.294091
H5    H     H_    0.413871 0.692931 0.401204 0.157272
H6    H     H_    0.556129 0.793195 0.353393 0.134227
H7    H     H_    0.542089 0.874180 0.272250 0.132281
H8    H     H_    0.375294 0.914209 0.179233 0.156734
H9    H     H_    0.708303 0.688275 0.131660 0.188805
H10   H     H_    0.719022 0.610340 0.211587 0.190228
C27   C     C_R   0.469314 0.187864 0.870346 -0.227835
C28   C     C_R   0.623553 0.136419 0.870747 -0.142755
C29   C     C_R   0.782180 0.132577 0.824061 -0.253585
C30   C     C_R   0.784960 0.178005 0.776319 0.151905
C31   C     C_R   0.629384 0.229445 0.776369 0.063610
C32   C     C_R   0.472303 0.234878 0.824206 0.138737
C33   C     C_R   0.940065 0.172602 0.728190 -0.230616
C34   C     C_R   0.940831 0.217357 0.680378 -0.187161
C35   C     C_R   0.787447 0.268987 0.680262 0.150775
C36   C     C_R   0.631158 0.275622 0.728678 -0.004046
C37   C     C_R   0.478082 0.328915 0.730189 -0.032087
C38   C     C_R   0.324395 0.334448 0.779515 -0.112903
C39   C     C_R   0.320766 0.287410 0.825282 -0.210223
C40   C     C_R   0.788708 0.314078 0.632591 -0.207538
C41   C     C_R   0.639629 0.368247 0.633723 -0.309586
C42   C     C_R   0.484737 0.376717 0.683799 0.304657
H11   H     H_    0.347121 0.191918 0.906547 0.159138
H12   H     H_    0.901317 0.092892 0.823686 0.133479
H13   H     H_    0.060902 0.133641 0.727436 0.137142
H14   H     H_    0.062536 0.212048 0.643795 0.135889
H15   H     H_    0.907107 0.306987 0.594306 0.168061
H16   H     H_    0.205148 0.374793 0.783024 0.188198
H17   H     H_    0.199228 0.292483 0.861911 0.154582
C43   C     C_R   0.796508 0.261677 0.292104 -0.107769
H18   H     H_    0.925212 0.267495 0.324675 0.126518
C44   C     C_R   0.783231 0.198187 0.227008 -0.117128
H19   H     H_    0.902127 0.156479 0.211641 0.150059
C45   C     C_R   0.618655 0.187865 0.182741 -0.236511
C46   C     C_R   0.467042 0.244319 0.205426 0.336611
C47   C     C_R   0.480171 0.306548 0.271449 -0.159403
H20   H     H_    0.362754 0.348953 0.287559 0.168322
C48   C     C_R   0.643975 0.315974 0.315495 -0.172169
O11   O     O_R   0.774940 0.060470 0.937800 -0.602742
O12   O     O_R   0.440880 0.093730 0.087350 -0.569593
O13   O     O_R   0.266130 0.939630 0.062280 -0.583583
C49   C     C_R   0.609348 0.118255 0.114570 0.969031
O14   O     O_R   0.445480 0.069960 0.939820 -0.603576
O15   O     O_R   0.270770 0.915690 0.913690 -0.605162
C50   C     C_R   0.614843 0.085673 0.918698 0.949760
O16   O     O_R   0.770300 0.084410 0.086380 -0.593703
O17   O     O_3   0.602600 0.949510 0.991670 -0.246377
V3    V     V_3+5 0.329470 0.009370 0.001550 1.215720
O18   O     O_R   0.940760 0.906160 0.912560 -0.593884
C51   C     C_R   0.110106 0.882917 0.884683 0.937417
O19   O     O_R   0.936150 0.929930 0.060100 -0.568261
C52   C     C_R   0.104286 0.913244 0.080337 1.018679
V4    V     V_3+5 0.828930 0.990450 0.998310 1.229110
O20   O     O_3   0.105670 0.050490 0.008320 -0.258395
N1    N     N_R   0.818831 0.787402 0.068854 0.236420
O21   O     O_R   0.865619 0.759711 0.000531 -0.379448
O22   O     O_R   0.640105 0.805822 0.087328 -0.415756
N2    N     N_R   0.342164 0.437359 0.690926 0.232196
O23   O     O_R   0.391215 0.512625 0.714995 -0.399122
O24   O     O_R   0.165541 0.417572 0.670341 -0.426230
Br1   Br    Br    0.242689 0.244746 0.147966 -0.527398
Br2   Br    Br    0.814159 0.527564 0.299693 -0.542882

loop_
_geom_bond_atom_site_label_1
_geom_bond_atom_site_label_2
_geom_bond_distance
_ccdc_geom_bond_type
C33   C34   1.399067 A    
O19   C52   1.297787 A    
C25   C26   1.417866 A    
V4    O20   2.160643 S    
C1    O6    1.297250 A    
C45   C49   1.493705 S    
N1    O21   1.301329 A    
C35   C40   1.401320 A    
C31   C32   1.409586 A    
C24   H8    1.084411 S    
C1    C41   1.491774 S    
C37   C42   1.418470 A    
C13   C14   1.403019 A    
C27   H11   1.084561 S    
C3    C12   1.492402 S    
C5    C10   1.406441 A    
C12   C13   1.406641 A    
C6    C7    1.408503 A    
C21   C22   1.405001 A    
C9    C10   1.408467 A    
C15   C20   1.419890 A    
O5    C3    1.294173 A    
C14   C15   1.411763 A    
O11   V4    1.998512 S    
C47   C48   1.404056 A    
C27   C32   1.403065 A    
C11   Br2   1.939918 S    
C34   C35   1.404773 A    
C18   C19   1.403447 A    
C16   C23   1.408465 A    
C21   C26   1.416444 A    
O8    V2    1.996038 S    
C15   C16   1.414477 A    
O1    V2    2.002566 S    
O7    V1    2.150382 S    
C30   C33   1.402819 A    
C46   C47   1.401231 A    
C39   H17   1.083961 S    
O16   V4    2.008368 S    
C37   C38   1.410163 A    
O19   V4    1.995955 S    
O9    C4    1.300954 A    
C13   H5    1.084576 S    
N1    O22   1.300194 A    
C5    H1    1.082715 S    
O14   C50   1.295999 A    
C44   H19   1.083072 S    
C29   C30   1.407123 A    
C9    H4    1.082755 S    
C43   C44   1.400496 A    
O15   V3    2.003503 S    
C26   N1    1.435060 S    
O18   C51   1.300898 A    
O4    C2    1.298957 A    
C47   H20   1.083516 S    
C28   C29   1.407800 A    
C36   C37   1.415926 A    
C34   H14   1.083793 S    
O13   C52   1.297728 A    
C4    C10   1.489785 S    
C40   H15   1.083995 S    
C38   C39   1.397406 A    
C19   C20   1.411238 A    
O17   V4    1.707950 S    
O2    C1    1.298865 A    
C40   C41   1.407126 A    
C25   C52   1.489238 S    
C38   H16   1.081567 S    
C31   C36   1.416601 A    
N2    O24   1.299708 A    
C17   C18   1.397958 A    
C18   H7    1.083839 S    
C45   C46   1.419863 A    
C22   H9    1.081643 S    
O11   C50   1.298049 A    
O3    C4    1.296438 A    
C44   C45   1.409644 A    
C28   C50   1.485361 S    
C24   C25   1.406307 A    
O6    V2    1.997920 S    
O12   C49   1.297543 A    
O9    V2    2.001813 S    
C8    C9    1.400467 A    
C46   Br1   1.923319 S    
O2    V1    2.004650 S    
C30   C31   1.413490 A    
O13   V3    2.002733 S    
C20   C21   1.414335 A    
C14   C17   1.403700 A    
C11   C16   1.417729 A    
O1    C2    1.295198 A    
C17   H6    1.083872 S    
C49   O16   1.300213 A    
C43   H18   1.083107 S    
O5    V1    2.002783 S    
C33   H13   1.083805 S    
O14   V3    2.004559 S    
V3    O20   1.702299 S    
C32   C39   1.400704 A    
O12   V3    2.003057 S    
C6    H2    1.082739 S    
C19   C24   1.402866 A    
O7    V2    1.709875 S    
O4    V1    2.003047 S    
C43   C48   1.403208 A    
O3    V1    2.003528 S    
V1    O10   1.702359 S    
C35   C36   1.409778 A    
C22   C23   1.392901 A    
N2    O23   1.300960 A    
C5    C6    1.400549 A    
O18   V4    2.001859 S    
C41   C42   1.419441 A    
C42   N2    1.434101 S    
C27   C28   1.408350 A    
C11   C12   1.423834 A    
C8    H3    1.082721 S    
C23   H10   1.080340 S    
O15   C51   1.296597 A    
O17   V3    2.150273 S    
C7    C8    1.406464 A    
C29   H12   1.084412 S    
V2    O10   2.160555 S    
O8    C3    1.303898 A    
C2    C48   1.485812 S    
C7    C51   1.489882 S    
