data_mof_unit_47800.cif
_audit_creation_date              2012-12-10T18:13:26-0500
_audit_creation_method            fapswitch 2.2
_symmetry_space_group_name_H-M    P1
_symmetry_Int_Tables_number       1
_space_group_crystal_system       triclinic
_cell_length_a                    12.578888
_cell_length_b                    13.035396
_cell_length_c                    16.76757
_cell_angle_alpha                 89.574549
_cell_angle_beta                  98.944169
_cell_angle_gamma                 97.708852
_cell_volume                      2691.16107848

loop_
_atom_site_label
_atom_site_type_symbol
_atom_type_description
_atom_site_fract_x
_atom_site_fract_y
_atom_site_fract_z
_atom_type_partial_charge
C1    C     C_R   0.559117 0.690415 0.520908 0.873638
C2    C     C_R   0.481950 0.506039 0.737883 -0.133262
C3    C     C_R   0.273754 0.041871 0.475246 -0.154245
C4    C     C_R   0.510170 0.490944 0.348802 0.961905
C5    C     C_R   0.405398 0.195919 0.490438 -0.164902
C6    C     C_R   0.705939 0.839904 0.573711 0.445962
C7    C     C_R   0.733021 0.946976 0.581912 -0.176564
C8    C     C_R   0.653364 0.011742 0.571476 -0.280296
C9    C     C_R   0.542327 0.970828 0.561066 0.123957
C10   C     C_R   0.513856 0.862614 0.561434 -0.026469
C11   C     C_R   0.457996 0.032902 0.541897 0.047986
C12   C     C_R   0.591823 0.430599 0.232177 0.438507
C13   C     C_R   0.349245 0.986353 0.521832 -0.047444
C14   C     C_R   0.321681 0.884163 0.545548 0.338993
C15   C     C_R   0.404863 0.823676 0.567599 -0.235022
C16   C     C_R   0.440132 0.307536 0.487921 0.964271
C17   C     C_R   0.479027 0.139581 0.536977 -0.267538
C18   C     C_R   0.305628 0.142961 0.451057 0.465244
C19   C     C_R   0.594200 0.797327 0.554308 -0.254836
C20   C     C_R   0.914057 0.426770 0.650456 -0.337702
C21   C     C_R   0.204180 0.600180 0.386814 -0.065652
C22   C     C_R   0.099008 0.617005 0.354976 0.487240
C23   C     C_R   0.550444 0.466023 0.875656 -0.266136
C24   C     C_R   0.015315 0.585109 0.400474 -0.205601
C25   C     C_R   0.038371 0.539789 0.476699 -0.003523
C26   C     C_R   0.146882 0.522190 0.504928 0.142917
C27   C     C_R   0.957193 0.504862 0.524617 0.043097
C28   C     C_R   0.488338 0.504782 0.651400 0.916425
C29   C     C_R   0.989979 0.476014 0.605308 0.113010
C30   C     C_R   0.100145 0.482894 0.635842 -0.240735
C31   C     C_R   0.168310 0.471145 0.579959 0.378166
C32   C     C_R   0.845343 0.494248 0.496024 -0.075784
C33   C     C_R   0.805145 0.404290 0.614358 0.699828
C34   C     C_R   0.567868 0.480774 0.796130 0.517073
C35   C     C_R   0.501159 0.454979 0.264918 -0.309451
C36   C     C_R   0.396623 0.431918 0.220341 -0.280921
C37   C     C_R   0.380893 0.390074 0.143095 0.451011
C38   C     C_R   0.472065 0.378645 0.106711 -0.204851
C39   C     C_R   0.577523 0.394236 0.152117 0.409996
C40   C     C_3   0.761600 0.266436 0.697160 -0.294522
C41   C     C_3   0.747568 0.542028 0.806198 -0.196105
C42   C     C_3   0.989261 0.707980 0.261333 -0.203097
C43   C     C_3   0.677649 0.287885 0.094260 -0.296203
C44   C     C_3   0.730350 0.360167 0.306578 -0.214761
C45   C     C_R   0.386078 0.529721 0.762764 -0.248013
C46   C     C_R   0.371521 0.518997 0.842841 -0.125637
C47   C     C_R   0.451695 0.482682 0.898313 0.087023
C48   C     C_2   0.462204 0.379553 0.019127 -0.018934
C49   C     C_2   0.433713 0.464296 0.980849 -0.128105
H1    H     H_    0.325833 0.446588 0.245455 0.250650
H2    H     H_    0.812415 0.525214 0.439255 0.181856
H3    H     H_    0.269013 0.622997 0.352298 0.173407
H4    H     H_    0.933572 0.596833 0.376646 0.153724
H5    H     H_    0.321056 0.554448 0.720115 0.186546
H6    H     H_    0.402931 0.524084 0.012105 0.177231
H7    H     H_    0.614068 0.441115 0.919734 0.167735
H8    H     H_    0.492906 0.320029 0.987821 0.153749
H9    H     H_    0.184158 0.335978 0.331114 0.396073
H10   H     H_    0.165180 0.815233 0.423509 0.322950
H11   H     H_    0.977111 0.787636 0.660495 0.417395
H12   H     H_    0.296170 0.534874 0.860808 0.172257
H13   H     H_    0.689525 0.211780 0.707222 0.197904
H14   H     H_    0.806575 0.292170 0.757529 0.192609
H15   H     H_    0.811830 0.223196 0.663707 0.150189
H16   H     H_    0.768237 0.536292 0.872836 0.146612
H17   H     H_    0.724725 0.619958 0.789553 0.173001
H18   H     H_    0.821866 0.533695 0.780210 0.207837
H19   H     H_    0.994861 0.756537 0.207155 0.203582
H20   H     H_    0.980723 0.760225 0.311494 0.193334
H21   H     H_    0.916482 0.648956 0.246476 0.184897
H22   H     H_    0.137289 0.268569 0.687713 0.366698
H23   H     H_    0.194256 0.003427 0.450022 0.219383
H24   H     H_    0.666227 0.280293 0.027540 0.176679
H25   H     H_    0.620182 0.227216 0.118529 0.144996
H26   H     H_    0.761236 0.271695 0.117232 0.200972
H27   H     H_    0.675363 0.322261 0.347308 0.155323
H28   H     H_    0.812423 0.378701 0.342534 0.177303
H29   H     H_    0.737258 0.305024 0.258223 0.172024
H30   H     H_    0.090535 0.303187 0.127622 0.387682
H31   H     H_    0.554082 0.179489 0.568602 0.195154
H32   H     H_    0.681755 0.093405 0.571119 0.159187
H33   H     H_    0.817187 0.981706 0.593080 0.222975
H34   H     H_    0.383846 0.745916 0.588247 0.203809
H35   H     H_    0.123634 0.457657 0.697129 0.148560
H36   H     H_    0.940459 0.402384 0.711354 0.151606
N1    N     N_R   0.774070 0.445420 0.541180 -0.152819
N2    N     N_R   0.226730 0.554050 0.459240 -0.155571
O1    O     O_R   0.631480 0.627510 0.519670 -0.531781
O2    O     O_2   0.112311 0.153841 0.360950 -0.265773
O3    O     O_3   0.256344 0.312297 0.344532 -0.531194
O4    O     O_2   0.181555 0.734574 0.599553 -0.328636
O5    O     O_2   0.138287 0.912392 0.597174 -0.202060
O6    O     O_3   0.111690 0.812684 0.461242 -0.517743
O7    O     O_2   0.787676 0.673077 0.641242 -0.344991
O8    O     O_2   0.840737 0.731447 0.511468 -0.262974
O9    O     O_3   0.926895 0.837970 0.640822 -0.498376
O10   O     O_3   0.725286 0.351535 0.653559 -0.549733
O11   O     O_3   0.665186 0.462070 0.774477 -0.567618
O12   O     O_R   0.455770 0.662400 0.493360 -0.637232
O13   O     O_3   0.084240 0.660067 0.278239 -0.606827
O14   O     O_2   0.168089 0.299172 0.495002 -0.239576
O15   O     O_2   0.302114 0.325463 0.619438 -0.331923
O16   O     O_3   0.101094 0.267168 0.630793 -0.531928
O17   O     O_3   0.669047 0.390824 0.115997 -0.570236
O18   O     O_3   0.695768 0.452968 0.274860 -0.580978
O19   O     O_2   0.207945 0.453775 0.052976 -0.316421
O20   O     O_2   0.240825 0.275990 0.029085 -0.270859
O21   O     O_3   0.164478 0.315269 0.159353 -0.499294
O22   O     O_R   0.598240 0.480510 0.398910 -0.601250
O23   O     O_R   0.422540 0.515400 0.372600 -0.628363
O24   O     O_R   0.544230 0.337600 0.506640 -0.634931
O25   O     O_R   0.368520 0.372490 0.480330 -0.493315
O26   O     O_R   0.577460 0.484600 0.627400 -0.509768
O27   O     O_R   0.401760 0.519490 0.601090 -0.632544
O28   O     O_2   0.262871 0.128765 0.290945 -0.260800
S1    S     S_3+6 0.231794 0.184483 0.360163 0.072653
S2    S     S_3+6 0.185873 0.833885 0.553394 0.041602
S3    S     S_3+6 0.815868 0.765898 0.591075 0.045404
S4    S     S_3+6 0.189403 0.339338 0.580086 0.039555
S5    S     S_3+6 0.246065 0.358449 0.092317 0.049111
Zn1   Zn    Zn3+2 0.617320 0.476700 0.517570 1.059713
Zn2   Zn    Zn3+2 0.382680 0.523300 0.482430 1.011650

loop_
_geom_bond_atom_site_label_1
_geom_bond_atom_site_label_2
_ccdc_geom_bond_type
C43   H24   S    
C4    O22   A    
C21   N2    A    
C27   C29   A    
O7    S3    D    
O21   S5    S    
C35   C36   A    
O5    S2    D    
C1    O12   A    
C39   O17   S    
C47   C49   S    
C44   O18   S    
C6    C19   A    
C29   C30   A    
C40   H14   S    
O9    S3    S    
C36   C37   A    
C10   C15   A    
C12   O18   S    
O24   Zn1   S    
O28   S1    D    
C42   H21   S    
C40   H13   S    
C3    C18   A    
C23   H7    S    
C44   H27   S    
C43   O17   S    
C5    C16   S    
C4    O23   A    
C8    C9    A    
O4    S2    D    
O3    S1    S    
C9    C10   A    
C38   C48   S    
C3    C13   A    
C2    C34   A    
C1    O1    A    
O2    S1    D    
C26   C31   A    
C2    C45   A    
C13   C14   A    
C42   H19   S    
O6    S2    S    
C20   C29   A    
O8    S3    D    
C43   H26   S    
C38   C39   A    
C1    C19   S    
C22   O13   S    
C46   H12   S    
C8    H32   S    
O14   S4    D    
C48   H8    S    
C23   C47   A    
C24   C25   A    
C41   H18   S    
C18   S1    S    
C40   O10   S    
C26   N2    A    
C15   H34   S    
C5    C18   A    
C24   H4    S    
C49   H6    S    
C17   H31   S    
C33   N1    A    
C32   H2    S    
O25   Zn2   S    
C37   C38   A    
C42   O13   S    
C9    C11   A    
C10   C19   A    
C14   S2    S    
C32   N1    A    
C20   H36   S    
N1    Zn1   S    
O26   Zn1   S    
C12   C35   A    
H9    O3    S    
C31   S4    S    
C41   H17   S    
C28   O27   A    
O12   Zn2   S    
C20   C33   A    
H11   O9    S    
C48   C49   D    
C45   H5    S    
C22   C24   A    
O20   S5    D    
C36   H1    S    
C16   O25   A    
H22   O16   S    
C46   C47   A    
C11   C17   A    
C23   C34   A    
O19   S5    D    
C27   C32   A    
C14   C15   A    
O16   S4    S    
O1    Zn1   S    
N2    Zn2   S    
C41   H16   S    
C6    C7    A    
C25   C27   A    
C44   H28   S    
C40   H15   S    
C12   C39   A    
C44   H29   S    
C3    H23   S    
C25   C26   A    
O23   Zn2   S    
C11   C13   A    
O22   Zn1   S    
C30   C31   A    
C37   S5    S    
C43   H25   S    
C34   O11   S    
H30   O21   S    
C33   O10   S    
C42   H20   S    
C30   H35   S    
C4    C35   S    
C7    C8    A    
C28   O26   A    
O27   Zn2   S    
C45   C46   A    
C7    H33   S    
C5    C17   A    
C41   O11   S    
C2    C28   S    
H10   O6    S    
C21   C22   A    
C6    S3    S    
C21   H3    S    
O15   S4    D    
C16   O24   A    
