data_mof_unit_66405.cif
_audit_creation_date              2012-12-10T17:13:11-0500
_audit_creation_method            fapswitch 2.2
_symmetry_space_group_name_H-M    P1
_symmetry_Int_Tables_number       1
_space_group_crystal_system       triclinic
_cell_length_a                    11.783486
_cell_length_b                    12.997662
_cell_length_c                    13.869395
_cell_angle_alpha                 86.788703
_cell_angle_beta                  92.46257
_cell_angle_gamma                 100.720416
_cell_volume                      2082.70643207

loop_
_atom_site_label
_atom_site_type_symbol
_atom_type_description
_atom_site_fract_x
_atom_site_fract_y
_atom_site_fract_z
_atom_type_partial_charge
Br1   Br    Br    0.793489 0.828674 0.523257 -0.349352
Br2   Br    Br    0.206508 0.171326 0.476750 -0.349355
Br3   Br    Br    0.191288 0.920148 0.491386 -0.237231
Br4   Br    Br    0.808705 0.079853 0.508633 -0.237239
Br5   Br    Br    0.766227 0.363931 0.639345 -0.316339
Br6   Br    Br    0.233772 0.636069 0.360655 -0.316342
C1    C     C_R   0.476375 0.299190 0.493794 0.851883
C2    C     C_R   0.847669 0.454800 0.539587 0.461366
C3    C     C_R   0.030569 0.540018 0.469305 -0.196791
C4    C     C_R   0.969431 0.459983 0.530696 -0.196792
C5    C     C_R   0.519556 0.501054 0.681814 0.819616
C6    C     C_R   0.480444 0.498946 0.318186 0.819616
C7    C     C_1   0.467425 0.498188 0.215470 -0.094360
C8    C     C_1   0.532575 0.501812 0.784530 -0.094360
C9    C     C_2   0.451519 0.497328 0.024595 0.377168
C10   C     C_2   0.548481 0.502672 0.975405 0.377168
C11   C     C_1   0.541158 0.502283 0.871130 -0.002037
C12   C     C_R   0.523625 0.700810 0.506207 0.851887
C13   C     C_1   0.458842 0.497717 0.128870 -0.002037
C14   C     C_R   0.540577 0.815494 0.516891 -0.308985
C15   C     C_R   0.459422 0.184505 0.483111 -0.308985
C16   C     C_R   0.342993 0.009127 0.500184 0.332736
C17   C     C_R   0.657005 0.990872 0.499823 0.332740
C18   C     C_R   0.349847 0.118142 0.490403 0.175709
C19   C     C_R   0.650151 0.881858 0.509602 0.175707
C20   C     C_R   0.556680 0.139697 0.466997 0.417540
C21   C     C_R   0.443318 0.860301 0.533006 0.417532
C22   C     C_R   0.554104 0.033025 0.491257 -0.134067
C23   C     C_R   0.445894 0.966974 0.508749 -0.134069
C24   C     C_R   0.032086 0.388290 0.581107 0.304501
C25   C     C_R   0.967914 0.611711 0.418895 0.304503
C26   C     C_R   0.154670 0.406941 0.580017 0.481617
C27   C     C_R   0.845331 0.593060 0.419984 0.481614
C28   C     C_R   0.152331 0.545200 0.460413 0.461368
Cu1   Cu    Cu3+1 0.615220 0.507680 0.492970 1.078345
Cu2   Cu    Cu3+1 0.384780 0.492320 0.507030 1.078346
H1    H     H_    0.714530 0.511787 0.976221 0.346523
H2    H     H_    0.285470 0.488214 0.023779 0.346523
H3    H     H_    0.376833 0.753900 0.628098 0.329045
H4    H     H_    0.623167 0.246098 0.371906 0.329050
H5    H     H_    0.824927 0.675418 0.301597 0.330484
H6    H     H_    0.175074 0.324582 0.698403 0.330488
H7    H     H_    0.021196 0.241895 0.625122 0.373181
H8    H     H_    0.978803 0.758106 0.374877 0.373179
N1    N     N_R   0.788370 0.519230 0.482390 -0.252132
N2    N     N_R   0.211630 0.480770 0.517610 -0.252132
O1    O     O_R   0.581500 0.354430 0.495010 -0.546678
O2    O     O_3   0.345983 0.491530 0.975523 -0.721301
O3    O     O_3   0.348836 0.802768 0.579113 -0.634536
O4    O     O_3   0.651161 0.197227 0.420887 -0.634547
O5    O     O_3   0.780997 0.650362 0.360346 -0.656452
O6    O     O_3   0.219004 0.349639 0.639653 -0.656450
O7    O     O_3   0.973761 0.297319 0.625609 -0.634535
O8    O     O_3   0.026240 0.702684 0.374396 -0.634534
O9    O     O_R   0.418500 0.645570 0.504990 -0.546674
O10   O     O_R   0.386890 0.341450 0.506880 -0.501147
O11   O     O_R   0.613110 0.658550 0.493120 -0.501147
O12   O     O_R   0.611060 0.507430 0.631070 -0.556642
O13   O     O_R   0.388940 0.492570 0.368930 -0.556642
O14   O     O_R   0.416450 0.494450 0.642940 -0.537122
O15   O     O_R   0.583550 0.505550 0.357060 -0.537121
O16   O     O_3   0.654017 0.508470 0.024477 -0.721301

loop_
_geom_bond_atom_site_label_1
_geom_bond_atom_site_label_2
_ccdc_geom_bond_type
Br5   C2    S    
C9    C13   S    
C15   C20   A    
C25   C27   A    
Cu2   N2    S    
Cu2   O10   S    
C14   C21   A    
C27   O5    S    
C5    O12   A    
C27   N1    A    
C3    C4    A    
C4    C24   A    
C12   O11   A    
C20   C22   A    
Cu1   Cu2   S    
Cu1   O11   S    
Cu2   O13   S    
Cu1   O1    S    
C20   O4    S    
H1    O16   S    
C24   O7    S    
Cu1   O15   S    
Cu2   O9    S    
C17   C22   A    
Br1   C19   S    
C6    O15   A    
C8    C11   T    
Br6   C28   S    
C10   O16   S    
C1    O10   A    
Cu1   O12   S    
C28   N2    A    
C12   O9    A    
C22   C23   A    
C16   C23   A    
H7    O7    S    
C9    O2    S    
C12   C14   S    
C17   C19   A    
C25   O8    S    
Br2   C18   S    
C3    C28   A    
C5    C8    S    
C16   C18   A    
C21   C23   A    
C14   C19   A    
C3    C25   A    
C21   O3    S    
C5    O14   A    
C24   C26   A    
H8    O8    S    
H4    O4    S    
C6    C7    S    
C2    C4    A    
C15   C18   A    
C1    O1    A    
Br4   C17   S    
C7    C13   T    
C2    N1    A    
C26   O6    S    
Br3   C16   S    
C26   N2    A    
H3    O3    S    
C1    C15   S    
C6    O13   A    
H2    O2    S    
H5    O5    S    
C9    C10   D    
H6    O6    S    
C10   C11   S    
Cu2   O14   S    
Cu1   N1    S    
