data_mof_unit_50238.cif
_audit_creation_date              2013-03-05T15:53:03-0500
_audit_creation_method            fapswitch 2.2
_symmetry_space_group_name_H-M    P1
_symmetry_Int_Tables_number       1
_space_group_crystal_system       triclinic
_cell_length_a                    8.468765
_cell_length_b                    17.287193
_cell_length_c                    18.932045
_cell_angle_alpha                 98.578893
_cell_angle_beta                  92.041708
_cell_angle_gamma                 96.782769
_cell_volume                      2717.47650868

loop_
_atom_site_label
_atom_site_type_symbol
_atom_site_description
_atom_site_fract_x
_atom_site_fract_y
_atom_site_fract_z
_atom_type_partial_charge
P1    P     P_3+3 0.048060 0.426210 0.336320 0.516864
O1    O     O_2   0.878040 0.448040 0.325130 -0.376258
O2    O     O_3   0.126800 0.453980 0.414370 -0.347610
O3    O     O_3   0.651020 0.589120 0.368830 -0.302064
O4    O     O_2   0.739302 0.526726 0.244344 -0.430684
O5    O     O_3   0.971268 0.324883 0.313869 -0.622705
O6    O     O_3   0.710152 0.674488 0.245694 -0.675640
C1    C     C_3   0.712392 0.808500 0.224941 -0.860017
H1    H     H_    0.836885 0.833610 0.238345 0.292540
H2    H     H_    0.700335 0.780656 0.167958 0.233756
P2    P     P_3+3 0.655920 0.678120 0.556130 0.505411
P3    P     P_3+3 0.111373 0.733167 0.408957 0.580789
O7    O     O_2   0.830300 0.688050 0.534560 -0.380470
O8    O     O_3   0.068750 0.630380 0.404830 -0.398998
O9    O     O_2   0.992446 0.771919 0.458475 -0.347033
O10   O     O_3   0.661502 0.709555 0.648739 -0.571905
O11   O     O_3   0.073498 0.761884 0.324447 -0.439033
C2    C     C_3   0.059879 0.695883 0.269408 0.330849
H3    H     H_    0.960589 0.652344 0.278893 0.094313
H4    H     H_    0.159618 0.661263 0.271317 0.109595
C3    C     C_3   0.040642 0.716750 0.191998 0.162233
H5    H     H_    0.915225 0.704271 0.172231 0.078789
C4    C     C_3   0.218518 0.709801 0.621812 0.181748
H6    H     H_    0.346982 0.705788 0.616792 0.105857
H7    H     H_    0.151046 0.679922 0.571889 0.063833
C5    C     C_3   0.188198 0.796157 0.631308 0.170330
H8    H     H_    0.059881 0.799998 0.638782 0.120535
H9    H     H_    0.218889 0.821601 0.582696 0.000391
Ba1   Ba    Ba6+2 0.849550 0.533890 0.465080 1.658768
C6    C     C_3   0.079591 0.269329 0.312023 0.564452
H10   H     H_    0.203832 0.296105 0.309660 0.017456
C7    C     C_3   0.033306 0.200249 0.248754 0.366953
H11   H     H_    0.908262 0.174887 0.254239 0.069828
C8    C     C_3   0.760703 0.671490 0.689185 0.768314
H12   H     H_    0.837652 0.634728 0.656007 -0.024871
C9    C     C_3   0.652599 0.620118 0.730525 -0.837841
H13   H     H_    0.553759 0.651976 0.751686 0.284347
H14   H     H_    0.718098 0.603353 0.776422 0.226758
H15   H     H_    0.602624 0.566708 0.693443 0.239621
P4    P     P_3+3 0.141640 0.573850 0.663690 0.498258
O12   O     O_2   0.311660 0.551990 0.674910 -0.378173
O13   O     O_3   0.062910 0.546080 0.585630 -0.405384
O14   O     O_3   0.538690 0.410940 0.631180 -0.367755
O15   O     O_3   0.169060 0.677122 0.681872 -0.513171
P5    P     P_3+3 0.087868 0.269302 0.602815 0.569653
O16   O     O_3   0.620260 0.406250 0.463620 -0.406131
O17   O     O_3   0.120960 0.369680 0.595180 -0.317238
O18   O     O_2   0.209600 0.231761 0.553943 -0.261170
O19   O     O_3   0.158726 0.261751 0.689744 -0.516640
Ba2   Ba    Ba6+2 0.340280 0.466170 0.534930 1.699385
P6    P     P_3+3 0.627326 0.585834 0.275394 0.508983
C10   C     C_3   0.661600 0.748554 0.275032 1.053987
H16   H     H_    0.643353 0.859661 0.231363 0.291152
O20   O     O_3   0.569440 0.593820 0.536390 -0.395116
C11   C     C_3   0.552196 0.323883 0.314949 0.197076
H17   H     H_    0.447102 0.356068 0.311897 0.075119
H18   H     H_    0.653030 0.367162 0.337489 0.146262
C12   C     C_3   0.595211 0.285216 0.241313 -0.060177
H19   H     H_    0.597397 0.220693 0.239421 0.200255
H20   H     H_    0.716350 0.309921 0.231048 0.108455
P7    P     P_3+3 0.538342 0.306803 0.447827 0.517493
O21   O     O_2   0.359400 0.311980 0.465480 -0.260492
O22   O     O_3   0.523774 0.265189 0.357691 -0.569379
H21   H     H_    0.097725 0.674347 0.154387 0.071484
C13   C     C_3   0.073233 0.198133 0.716247 0.841022
H22   H     H_    0.944085 0.193105 0.701589 -0.094032
C14   C     C_3   0.137225 0.120122 0.689760 -0.712444
H23   H     H_    0.257243 0.118812 0.714700 0.294674
H24   H     H_    0.055846 0.070127 0.703793 0.229021
H25   H     H_    0.147057 0.111172 0.631047 0.216383
P8    P     P_3+3 0.563473 0.407311 0.721393 0.537060
C15   C     C_3   0.620315 0.260215 0.721194 0.827911
H26   H     H_    0.726832 0.287686 0.697144 -0.176387
O23   O     O_2   0.431038 0.454564 0.752990 -0.318789
O24   O     O_3   0.497240 0.309037 0.730130 -0.452725
H27   H     H_    0.737132 0.292269 0.827657 0.216623
C16   C     C_3   0.671073 0.240358 0.794062 -0.691884
H28   H     H_    0.750460 0.193943 0.787906 0.251911
H29   H     H_    0.566070 0.217980 0.821668 0.300455
C17   C     C_R   0.997086 0.468753 0.050077 0.025473
C18   C     C_R   0.905910 0.430780 0.098045 0.008874
C19   C     C_R   0.759818 0.388857 0.075034 -0.153277
C20   C     C_R   0.695737 0.387112 0.006547 0.352998
C21   C     C_R   0.782575 0.427457 0.956725 -0.157762
C22   C     C_R   0.936610 0.466725 0.978621 0.019735
C23   C     C_R   0.718046 0.431933 0.887603 0.254524
C24   C     C_R   0.816616 0.461342 0.834993 -0.130523
C25   C     C_R   0.971710 0.501281 0.857859 0.028228
C26   C     C_R   0.027879 0.506104 0.930574 0.056252
C27   C     C_R   0.767205 0.452969 0.760684 0.115252
C28   C     C_R   0.874274 0.482025 0.712166 -0.467037
C29   C     C_R   0.022167 0.526939 0.734259 0.258131
C30   C     C_R   0.069625 0.538412 0.809091 -0.019545
C31   C     C_R   0.149207 0.507153 0.073555 0.011505
C32   C     C_R   0.209216 0.506782 0.145060 -0.003512
C33   C     C_R   0.110580 0.471808 0.194296 -0.046071
C34   C     C_R   0.961248 0.433143 0.168651 -0.015777
H30   H     H_    0.695881 0.354832 0.110181 0.207233
H31   H     H_    0.836754 0.473931 0.656049 0.161071
H32   H     H_    0.888214 0.401517 0.202407 0.173578
C35   C     C_R   0.211424 0.586596 0.837065 -0.015845
C36   C     C_R   0.264668 0.593938 0.909910 -0.013607
C37   C     C_R   0.176933 0.549288 0.955501 0.028019
C38   C     C_R   0.239692 0.546874 0.025984 0.077497
C39   C     C_R   0.411397 0.639452 0.937196 0.379119
C40   C     C_R   0.477027 0.630645 0.004690 -0.233897
C41   C     C_R   0.393984 0.583331 0.048637 0.095518
C42   C     C_R   0.367565 0.540161 0.166453 0.075242
C43   C     C_R   0.461212 0.574280 0.115859 -0.168611
C44   C     C_R   0.423566 0.541514 0.238585 0.340010
C45   C     C_R   0.321818 0.508926 0.286819 -0.419558
C46   C     C_R   0.166111 0.473373 0.266491 0.191192
H33   H     H_    0.283983 0.616576 0.801476 0.178104
H34   H     H_    0.592361 0.662459 0.023687 0.171319
H35   H     H_    0.583050 0.599543 0.130119 0.154322
H36   H     H_    0.366097 0.510049 0.341332 0.157475
H37   H     H_    0.481879 0.140060 0.460602 0.178082
H38   H     H_    0.295894 0.892984 0.440051 0.182647
C47   C     C_R   0.401100 0.718959 0.477786 -0.448587
C48   C     C_R   0.549148 0.745941 0.512920 0.351857
C49   C     C_R   0.606436 0.826366 0.522441 -0.103590
C50   C     C_R   0.517043 0.879442 0.495074 0.033966
C51   C     C_R   0.367100 0.852140 0.460285 -0.170595
C52   C     C_R   0.309151 0.771613 0.451815 0.304536
C53   C     C_R   0.590930 0.164259 0.491892 -0.131490
C54   C     C_R   0.638214 0.245419 0.502241 0.249445
C55   C     C_R   0.882012 0.226806 0.567309 0.166879
C56   C     C_R   0.833507 0.144977 0.555795 -0.134037
C57   C     C_R   0.686209 0.114054 0.519794 0.139992
C58   C     C_1   0.630640 0.030870 0.510968 0.091217
C59   C     C_1   0.579186 0.961810 0.503601 0.108886
C60   C     C_R   0.780682 0.276750 0.541915 -0.317370
H39   H     H_    0.909624 0.105142 0.573582 0.113333
H40   H     H_    0.720133 0.847374 0.551102 0.149597
H41   H     H_    0.355304 0.657056 0.472003 0.162729
H42   H     H_    0.819345 0.339404 0.547505 0.150677
N1    N     N_R   0.735253 0.777822 0.346515 0.228180
O25   O     O_R   0.723289 0.732483 0.394785 -0.341010
O26   O     O_R   0.780972 0.852747 0.366963 -0.367701
S1    S     S_3+6 0.303282 0.854838 0.705302 0.078247
O27   O     O_2   0.282766 0.939958 0.704994 -0.245025
O28   O     O_2   0.247008 0.830490 0.774031 -0.110825
O29   O     O_3   0.496612 0.843383 0.698065 -0.503187
H43   H     H_    0.551649 0.876376 0.741224 0.417362
S2    S     S_3+6 0.051634 0.228088 0.391799 0.008916
O30   O     O_2   0.183939 0.180710 0.405798 -0.222082
O31   O     O_2   0.048134 0.295625 0.450941 -0.271258
O32   O     O_3   0.877683 0.168979 0.385974 -0.541223
H44   H     H_    0.797011 0.201406 0.371493 0.330784
N2    N     N_R   0.135767 0.138101 0.251592 0.265443
O33   O     O_R   0.288799 0.152820 0.246588 -0.312970
O34   O     O_R   0.073843 0.067131 0.258110 -0.268662
S3    S     S_3+6 0.033959 0.226971 0.160829 0.035639
O35   O     O_2   0.086418 0.161237 0.109242 -0.124668
O36   O     O_2   0.868957 0.239323 0.137310 -0.313777
O37   O     O_3   0.158087 0.309084 0.159214 -0.527269
H45   H     H_    0.160640 0.315002 0.107987 0.420088
N3    N     N_R   0.861294 0.730955 0.740068 0.250049
O38   O     O_R   0.955769 0.709498 0.787234 -0.343393
O39   O     O_R   0.851569 0.805722 0.741255 -0.301028
S4    S     S_3+6 0.454436 0.743914 0.278526 -0.056611
O40   O     O_2   0.403245 0.689722 0.330091 -0.401437
O41   O     O_2   0.407012 0.824213 0.302835 -0.233128
O42   O     O_3   0.373286 0.707379 0.197028 -0.595863
H46   H     H_    0.446616 0.727445 0.162703 0.357999
N4    N     N_R   0.485960 0.299128 0.184975 0.262231
O43   O     O_R   0.439192 0.242477 0.132514 -0.213317
O44   O     O_R   0.463626 0.371026 0.178770 -0.434790
S5    S     S_3+6 0.096505 0.216991 0.812027 0.069156
O45   O     O_2   0.992000 0.155542 0.843042 -0.205219
O46   O     O_2   0.266101 0.213604 0.835886 -0.173282
O47   O     O_3   0.046349 0.306692 0.842775 -0.526691
H47   H     H_    0.125376 0.344395 0.824053 0.380368
N5    N     N_R   0.558592 0.187011 0.674176 0.206294
O48   O     O_R   0.442818 0.186764 0.627435 -0.381311
O49   O     O_R   0.618954 0.121692 0.677539 -0.434997
N6    N     N_R   0.547196 0.338637 0.988672 0.283161
O50   O     O_R   0.417922 0.363204 0.013890 -0.294869
O51   O     O_R   0.547345 0.263863 0.965798 -0.255892
N7    N     N_R   0.548733 0.423651 0.877730 0.252794
O52   O     O_R   0.476523 0.482336 0.903816 -0.422271
O53   O     O_R   0.465444 0.354956 0.861000 -0.294444
N8    N     N_R   0.497766 0.692847 0.896721 0.223727
O54   O     O_R   0.422992 0.740855 0.865152 -0.307866
O55   O     O_R   0.652707 0.703791 0.902141 -0.338745
S6    S     S_3+6 0.110514 0.816024 0.176455 0.091874
O56   O     O_2   0.134935 0.873655 0.244841 -0.146594
O57   O     O_2   0.262399 0.818578 0.137944 -0.198694
O58   O     O_3   0.973048 0.844760 0.122986 -0.505963
H48   H     H_    0.008507 0.901227 0.121796 0.415197

loop_
_geom_bond_atom_site_label_1
_geom_bond_atom_site_label_2
_geom_bond_distance
_ccdc_geom_bond_type
N4    O44   1.300739 A    
C11   H17   1.108128 S    
C35   C36   1.418210 A    
Ba1   O13   2.826787 S    
C2    C3    1.568121 S    
C19   H30   1.071976 S    
S5    O45   1.502502 D    
O12   Ba2   2.870640 S    
C45   C46   1.402332 A    
S1    O29   1.680206 S    
C24   C25   1.430166 A    
C56   C57   1.406976 A    
S2    O32   1.680988 S    
C17   C22   1.423327 A    
C39   N8    1.437236 S    
S4    O40   1.491867 D    
C51   C52   1.403866 A    
C36   C37   1.414851 A    
C47   C52   1.396555 A    
C48   C49   1.400197 A    
C33   C46   1.424857 A    
C5    H8    1.109287 S    
Ba2   O20   2.757363 S    
O19   C13   1.409922 S    
C40   H34   1.083932 S    
O1    Ba1   2.870161 S    
O7    Ba1   2.816223 S    
C9    H13   1.109697 S    
C18   C19   1.378894 A    
S1    O28   1.502505 D    
O6    C10   1.430180 S    
P1    O1    1.546271 D    
C5    S1    1.785102 S    
N8    O55   1.301563 A    
P1    C46   1.906599 S    
C6    H10   1.103551 S    
C17   C18   1.399982 A    
Ba1   O20   2.985744 S    
C12   H20   1.099140 S    
O29   H43   0.990560 S    
C35   H33   1.076391 S    
C42   C43   1.416510 A    
C36   C39   1.425512 A    
O2    Ba1   2.978934 S    
C8    H12   1.109511 S    
C4    C5    1.529902 S    
P7    O22   1.744272 S    
N5    O48   1.296327 A    
C3    H21   1.109297 S    
S2    O31   1.496064 D    
C55   C60   1.407984 A    
C32   C33   1.427065 A    
C1    H1    1.097422 S    
N6    O51   1.300718 A    
C11   O22   1.394073 S    
P3    O11   1.774036 S    
C4    H6    1.104834 S    
C45   H36   1.082043 S    
C15   N5    1.463413 S    
C49   H40   1.083895 S    
S3    O36   1.500330 D    
C10   N1    1.462044 S    
C1    C10   1.541187 S    
C2    H4    1.093906 S    
O3    Ba1   2.781861 S    
C10   S4    1.750834 S    
O10   C8    1.400062 S    
P4    O13   1.581622 S    
C53   C54   1.395328 A    
C31   C38   1.406843 A    
C3    H5    1.099166 S    
C26   C37   1.415365 A    
N3    O39   1.301733 A    
C41   C43   1.413184 A    
O42   H46   0.986599 S    
O58   H48   0.990639 S    
C15   O24   1.416008 S    
P2    C48   1.829013 S    
C23   N7    1.426831 S    
S4    O41   1.501439 D    
O2    Ba2   2.827545 S    
N7    O53   1.296964 A    
S2    O30   1.502289 D    
O17   Ba2   2.742272 S    
Ba1   Ba2   4.648664 S    
P5    O17   1.753106 S    
C20   N6    1.426633 S    
O3    P6    1.764840 S    
C14   H23   1.109487 S    
C6    C7    1.563242 S    
C3    S6    1.818012 S    
S1    O27   1.502798 D    
C30   C35   1.415335 A    
C28   C29   1.408033 A    
C22   C26   1.413813 A    
C23   C24   1.434366 A    
C2    H3    1.098811 S    
O16   P7    1.753952 S    
C13   C14   1.534300 S    
C12   H19   1.113007 S    
C16   H28   1.102044 S    
C47   H41   1.082381 S    
C4    O15   1.398985 S    
C44   C45   1.410187 A    
C13   S5    1.793391 S    
P1    O2    1.581486 S    
N8    O54   1.300818 A    
C15   C16   1.529586 S    
N1    O26   1.303348 A    
P2    O10   1.753658 S    
C20   C21   1.428805 A    
P3    C52   1.839782 S    
P3    O9    1.543152 D    
C54   C60   1.404611 A    
C60   H42   1.082173 S    
C33   C34   1.393408 A    
P1    Ba1   3.451241 S    
P5    O19   1.760073 S    
C16   H29   1.107124 S    
C31   C32   1.430119 A    
C21   C22   1.415162 A    
S3    O37   1.668456 S    
C49   C50   1.400509 A    
P7    C54   1.838129 S    
P2    O20   1.538086 S    
O13   Ba2   2.979749 S    
C8    N3    1.466166 S    
P4    O12   1.546547 D    
O5    C6    1.401946 S    
P3    O8    1.760354 S    
N6    O50   1.301316 A    
P6    C44   1.868973 S    
C11   H18   1.094963 S    
N4    O43   1.300973 A    
Ba2   O21   2.816288 S    
S5    O47   1.681602 S    
N2    O34   1.301260 A    
C24   C27   1.434646 A    
O8    Ba1   2.741641 S    
S6    O57   1.500345 D    
C55   C56   1.407736 A    
C50   C59   1.441828 S    
C37   C38   1.426940 A    
S4    O42   1.668233 S    
O47   H47   0.990540 S    
C6    S2    1.775460 S    
H37   C53   1.083808 S    
C57   C58   1.442263 S    
N1    O25   1.288884 A    
P5    O18   1.544958 D    
C25   C30   1.434472 A    
O37   H45   0.991007 S    
O14   P8    1.724666 S    
C34   H32   1.068834 S    
C9    H15   1.103460 S    
C21   C23   1.416465 A    
C15   H26   1.113178 S    
C1    H16   1.110836 S    
P8    O23   1.549666 D    
C47   C48   1.393499 A    
O14   Ba2   2.781228 S    
C39   C40   1.411485 A    
O16   Ba2   2.984741 S    
C5    H9    1.104019 S    
O11   C2    1.416519 S    
Ba1   O16   2.757909 S    
C14   H25   1.106679 S    
C28   H31   1.081826 S    
C7    H11   1.111828 S    
S6    O58   1.682098 S    
C9    H14   1.107018 S    
C58   C59   1.207376 T    
S3    O35   1.503841 D    
O6    P6    1.785580 S    
C13   H22   1.108838 S    
C56   H39   1.077823 S    
P8    O24   1.758856 S    
H27   C16   1.099353 S    
P2    O7    1.543088 D    
C27   C28   1.416899 A    
N3    O38   1.301184 A    
P8    C27   1.888086 S    
C18   C34   1.393786 A    
P5    C55   1.870146 S    
P4    Ba2   3.451877 S    
C29   C30   1.436933 A    
C42   C44   1.425499 A    
C8    C9    1.518469 S    
H38   C51   1.083395 S    
C4    H7    1.110297 S    
P7    O21   1.573341 D    
C12   N4    1.452687 S    
N5    O49   1.302264 A    
P4    C29   1.921467 S    
C32   C42   1.415679 A    
C43   H35   1.080181 S    
C7    S3    1.792705 S    
C53   C57   1.398291 A    
P4    O15   1.752916 S    
C7    N2    1.464303 S    
C25   C26   1.427605 A    
P2    Ba1   3.429572 S    
C1    H2    1.109759 S    
C19   C20   1.382360 A    
C40   C41   1.401671 A    
C11   C12   1.529264 S    
P1    O5    1.777923 S    
C50   C51   1.405389 A    
N2    O33   1.300527 A    
O4    P6    1.542173 D    
C14   H24   1.110575 S    
S6    O56   1.503002 D    
C17   C31   1.402510 A    
O32   H44   0.989498 S    
C38   C41   1.404772 A    
N7    O52   1.290604 A    
S5    O46   1.500613 D    
