data_mof_unit_9083.cif
_audit_creation_date              2012-12-10T17:40:31-0500
_audit_creation_method            fapswitch 2.2
_symmetry_space_group_name_H-M    P1
_symmetry_Int_Tables_number       1
_space_group_crystal_system       triclinic
_cell_length_a                    13.697245
_cell_length_b                    15.086125
_cell_length_c                    15.76669
_cell_angle_alpha                 89.884513
_cell_angle_beta                  69.84094
_cell_angle_gamma                 89.98913
_cell_volume                      3058.40931211

loop_
_atom_site_label
_atom_site_type_symbol
_atom_type_description
_atom_site_fract_x
_atom_site_fract_y
_atom_site_fract_z
_atom_type_partial_charge
C1    C     C_R   0.500019 0.671539 0.499932 0.820022
C2    C     C_R   0.499981 0.328461 0.500068 0.820024
C3    C     C_R   0.375657 0.478946 0.095929 -0.089799
C4    C     C_R   0.624329 0.521059 0.904077 -0.089819
C5    C     C_R   0.300527 0.498529 0.055997 -0.100346
C6    C     C_R   0.699460 0.501468 0.944005 -0.100346
C7    C     C_R   0.411105 0.185258 0.500178 -0.233812
C8    C     C_R   0.588894 0.814742 0.499823 -0.233811
C9    C     C_R   0.499948 0.231607 0.500082 -0.077032
C10   C     C_R   0.500052 0.768392 0.499919 -0.077032
C11   C     C_R   0.588781 0.185220 0.500023 -0.241653
C12   C     C_R   0.411219 0.814779 0.499978 -0.241649
C13   C     C_R   0.589426 0.092863 0.499975 0.107076
C14   C     C_R   0.410574 0.907137 0.500026 0.107076
C15   C     C_R   0.499983 0.046467 0.500025 0.064241
C16   C     C_R   0.500017 0.953533 0.499976 0.064241
C17   C     C_R   0.410507 0.092905 0.500135 0.105039
C18   C     C_R   0.589493 0.907095 0.499867 0.105038
C19   C     C_R   0.677966 0.046164 0.499884 -0.205407
C20   C     C_R   0.322034 0.953836 0.500117 -0.205408
C21   C     C_R   0.677999 0.953746 0.499814 -0.202780
C22   C     C_R   0.322001 0.046254 0.500187 -0.202782
C23   C     C_R   0.436868 0.500287 0.672646 0.812216
C24   C     C_R   0.563132 0.499713 0.327354 0.812213
C25   C     C_R   0.232381 0.546086 0.434839 0.038435
C26   C     C_R   0.767619 0.453913 0.565160 0.038405
C27   C     C_R   0.180763 0.454207 0.565375 0.012965
C28   C     C_R   0.819237 0.545793 0.434625 0.012969
C29   C     C_R   0.077010 0.453311 0.567095 -0.005957
C30   C     C_R   0.922990 0.546689 0.432905 -0.005957
C31   C     C_R   0.051798 0.500008 0.500014 0.089419
C32   C     C_R   0.948201 0.499993 0.499986 0.089422
C33   C     C_R   0.130121 0.546752 0.432982 -0.004023
C34   C     C_R   0.869879 0.453248 0.567017 -0.004029
C35   C     C_R   0.998207 0.407038 0.633982 -0.169730
C36   C     C_R   0.001793 0.592961 0.366018 -0.169734
C37   C     C_R   0.895567 0.407068 0.633992 -0.185641
C38   C     C_R   0.104433 0.592931 0.366007 -0.185636
C39   C     C_R   0.398574 0.504535 0.771698 -0.077275
C40   C     C_R   0.601423 0.495464 0.228302 -0.077276
C41   C     C_R   0.261933 0.533344 0.914864 -0.018517
C42   C     C_R   0.738057 0.466645 0.085133 -0.018513
C43   C     C_R   0.296395 0.528946 0.820526 -0.221656
C44   C     C_R   0.703599 0.471046 0.179472 -0.221657
C45   C     C_R   0.467848 0.489722 0.817126 -0.210743
C46   C     C_R   0.532149 0.510284 0.182876 -0.210740
C47   C     C_R   0.439921 0.505354 0.910063 0.075353
C48   C     C_R   0.560070 0.494647 0.089940 0.075349
C49   C     C_R   0.332461 0.514897 0.961740 0.041826
C50   C     C_R   0.667527 0.485097 0.038261 0.041829
C51   C     C_R   0.516413 0.506040 0.952632 0.000598
C52   C     C_R   0.483575 0.493963 0.047374 0.000595
Cu1   Cu    Cu3+1 0.402580 0.500010 0.499990 0.951978
Cu2   Cu    Cu3+1 0.597420 0.499990 0.500010 0.951975
H1    H     H_    0.293076 0.582475 0.384177 0.120824
H2    H     H_    0.706924 0.417524 0.615821 0.120826
H3    H     H_    0.201505 0.418232 0.616176 0.128128
H4    H     H_    0.798495 0.581768 0.383825 0.128129
H5    H     H_    0.015896 0.370899 0.686346 0.148799
H6    H     H_    0.984104 0.629100 0.313654 0.148800
H7    H     H_    0.836296 0.371019 0.686411 0.137678
H8    H     H_    0.163704 0.628980 0.313587 0.137677
H9    H     H_    0.456123 0.536305 0.220796 0.149142
H10   H     H_    0.543881 0.463711 0.779206 0.149141
H11   H     H_    0.756883 0.455819 0.214873 0.163931
H12   H     H_    0.243112 0.544168 0.785123 0.163931
H13   H     H_    0.342318 0.220910 0.500287 0.161653
H14   H     H_    0.657681 0.779090 0.499715 0.161654
H15   H     H_    0.657552 0.220846 0.500030 0.157783
H16   H     H_    0.342448 0.779154 0.499968 0.157780
H17   H     H_    0.747099 0.081109 0.499848 0.146701
H18   H     H_    0.252901 0.918892 0.500153 0.146700
H19   H     H_    0.747150 0.918765 0.499716 0.148089
H20   H     H_    0.252850 0.081235 0.500286 0.148088
N1    N     N_R   0.256170 0.500070 0.500040 -0.182687
N2    N     N_R   0.743830 0.499930 0.499960 -0.182687
O1    O     O_R   0.417730 0.629750 0.499970 -0.589806
O2    O     O_R   0.582270 0.370250 0.500030 -0.589804
O3    O     O_R   0.582270 0.629730 0.499980 -0.579735
O4    O     O_R   0.417730 0.370270 0.500020 -0.579733
O5    O     O_R   0.371590 0.500020 0.629830 -0.589330
O6    O     O_R   0.628410 0.499980 0.370170 -0.589329
O7    O     O_R   0.536130 0.499990 0.629840 -0.579063
O8    O     O_R   0.463870 0.500010 0.370160 -0.579056
C53   C     C_1   0.191387 0.490249 0.111416 0.260383
N3    N     N_1   0.104754 0.483237 0.156239 -0.262089
C54   C     C_1   0.808600 0.509754 0.888582 0.260381
N4    N     N_1   0.895233 0.516772 0.843757 -0.262084
C55   C     C_1   0.156200 0.563074 0.958981 0.261516
N5    N     N_1   0.071598 0.587407 0.993567 -0.249249
C56   C     C_1   0.843786 0.436906 0.041014 0.261518
N6    N     N_1   0.928384 0.412565 0.006424 -0.249256
C57   C     C_1   0.341232 0.431945 0.181976 0.239457
N7    N     N_1   0.313509 0.394417 0.250289 -0.266917
C58   C     C_1   0.658748 0.568093 0.818050 0.239486
N8    N     N_1   0.686462 0.605650 0.749756 -0.266914

loop_
_geom_bond_atom_site_label_1
_geom_bond_atom_site_label_2
_ccdc_geom_bond_type
C41   C55   S    
C54   N4    T    
C57   N7    T    
C27   C29   A    
C34   C37   A    
C1    O1    A    
C19   H17   S    
C58   N8    T    
C47   C49   A    
Cu1   Cu2   S    
C40   C46   A    
C23   O7    A    
Cu1   O8    S    
C35   H5    S    
C19   C21   A    
C15   C16   A    
C18   C21   A    
C21   H19   S    
Cu1   O5    S    
C42   C56   S    
C24   O6    A    
C26   C34   A    
C7    C17   A    
C26   N2    A    
C31   C33   A    
C39   C45   A    
C5    C53   S    
C48   C50   A    
C41   C43   A    
C5    C49   A    
C44   H11   S    
Cu1   N1    S    
C42   C44   A    
C27   N1    A    
C41   C49   A    
Cu2   O7    S    
C45   C47   A    
C39   C43   A    
C46   C48   A    
C13   C19   A    
C4    C51   A    
C51   C52   A    
C14   C20   A    
Cu1   O4    S    
C4    C6    A    
C27   H3    S    
C56   N6    T    
C47   C51   A    
C3    C5    A    
C53   N3    T    
C8    C18   A    
C6    C54   S    
C25   N1    A    
C32   C34   A    
Cu1   O1    S    
C2    O2    A    
C4    C58   S    
C31   C32   A    
C40   C44   A    
C3    C57   S    
C6    C50   A    
C9    C11   A    
C10   C12   A    
C42   C50   A    
Cu2   N2    S    
C16   C18   A    
C20   C22   A    
C8    H14   S    
C13   C15   A    
C1    O3    A    
C14   C16   A    
C22   H20   S    
C28   N2    A    
Cu2   O6    S    
Cu2   O3    S    
C15   C17   A    
C12   H16   S    
C23   O5    A    
C35   C37   A    
C1    C10   S    
C25   H1    S    
C12   C14   A    
C36   H6    S    
C26   H2    S    
C37   H7    S    
C3    C52   A    
C11   H15   S    
C28   H4    S    
C29   C35   A    
C45   H10   S    
C17   C22   A    
C30   C36   A    
C46   H9    S    
C36   C38   A    
C24   O8    A    
C29   C31   A    
C30   C32   A    
C11   C13   A    
C43   H12   S    
C23   C39   S    
C28   C30   A    
C24   C40   S    
C2    O4    A    
C7    H13   S    
C7    C9    A    
C48   C52   A    
C8    C10   A    
C20   H18   S    
C33   C38   A    
C38   H8    S    
C55   N5    T    
C2    C9    S    
C25   C33   A    
Cu2   O2    S    
