data_mof_unit_60210.cif
_audit_creation_date              2012-12-10T16:42:37-0500
_audit_creation_method            fapswitch 2.2
_symmetry_space_group_name_H-M    P1
_symmetry_Int_Tables_number       1
_space_group_crystal_system       triclinic
_cell_length_a                    15.904559
_cell_length_b                    17.953686
_cell_length_c                    29.258989
_cell_angle_alpha                 89.973316
_cell_angle_beta                  89.6592
_cell_angle_gamma                 89.975482
_cell_volume                      8354.62196679

loop_
_atom_site_label
_atom_site_type_symbol
_atom_type_description
_atom_site_fract_x
_atom_site_fract_y
_atom_site_fract_z
_atom_type_partial_charge
C1    C     C_R   0.499868 0.389809 0.058769 0.723061
C2    C     C_1   0.478773 0.000121 0.742767 0.007488
C3    C     C_1   0.513244 0.876506 0.832060 0.148545
C4    C     C_1   0.513670 0.123996 0.831782 0.149898
C5    C     C_1   0.435984 0.000103 0.708882 -0.004637
C6    C     C_1   0.692580 0.999170 0.749786 0.020449
C7    C     C_R   0.588730 0.097013 0.319478 -0.169594
C8    C     C_R   0.406570 0.972613 0.296812 -0.170797
C9    C     C_R   0.379085 0.105033 0.301604 -0.196110
C10   C     C_R   0.622698 0.978931 0.283939 -0.195594
C11   C     C_R   0.649207 0.084070 0.352777 -0.171639
C12   C     C_R   0.499841 0.610016 0.058915 0.702203
C13   C     C_R   0.344654 0.959424 0.329942 -0.169669
C14   C     C_R   0.317281 0.091616 0.334574 -0.166959
C15   C     C_R   0.683439 0.966143 0.317457 -0.166780
C16   C     C_R   0.575508 0.184276 0.229556 -0.193459
C17   C     C_R   0.432384 0.971002 0.191328 -0.192820
C18   C     C_R   0.430997 0.165916 0.206794 -0.163864
C19   C     C_R   0.578965 0.003709 0.181397 -0.169206
C20   C     C_R   0.572714 0.257035 0.212672 -0.162399
C21   C     C_R   0.436387 0.927498 0.151764 -0.162224
C22   C     C_R   0.428349 0.238738 0.189954 -0.175219
C23   C     C_R   0.776210 0.998236 0.730684 0.025844
C24   C     C_R   0.582766 0.960169 0.141871 -0.162715
C25   C     C_R   0.500265 0.610808 0.941616 0.852361
C26   C     C_R   0.500294 0.389271 0.941570 0.850754
C27   C     C_3   0.501883 0.059352 0.250236 -0.081352
C28   C     C_R   0.575722 0.045913 0.283446 0.107428
C29   C     C_R   0.424143 0.045637 0.281201 0.106585
C30   C     C_R   0.696830 0.018826 0.351803 0.157078
C31   C     C_R   0.300248 0.019029 0.348990 0.157219
C32   C     C_R   0.502919 0.138769 0.229553 0.104777
C33   C     C_R   0.504626 0.007761 0.207982 0.102577
C34   C     C_R   0.388424 0.000039 0.667224 0.033123
C35   C     C_R   0.498564 0.285030 0.193903 0.133021
C36   C     C_R   0.511697 0.921427 0.127192 0.134058
C37   C     C_1   0.239265 0.007176 0.384669 -0.071336
C38   C     C_1   0.759504 0.007162 0.386229 -0.070400
C39   C     C_1   0.187408 0.001504 0.414607 -0.177605
C40   C     C_1   0.812360 0.001553 0.415314 -0.176068
C41   C     C_1   0.494199 0.361631 0.179541 -0.069983
C42   C     C_1   0.515612 0.876493 0.086470 -0.052880
C43   C     C_1   0.490491 0.426056 0.168077 -0.046610
C44   C     C_1   0.518867 0.838825 0.052391 -0.000443
C45   C     C_R   0.937216 0.995514 0.691666 -0.023770
C46   C     C_R   0.124065 0.000108 0.449557 0.845368
C47   C     C_R   0.876311 0.000130 0.449526 0.851371
C48   C     C_R   0.582439 0.770063 0.868819 0.571955
C49   C     C_R   0.431026 0.219845 0.873293 0.584838
C50   C     C_R   0.430751 0.780605 0.873619 0.584741
C51   C     C_R   0.582701 0.230450 0.868526 0.574346
C52   C     C_R   0.892758 0.999997 0.569399 0.670448
C53   C     C_R   0.106735 0.999980 0.569418 0.723760
C54   C     C_R   0.579239 0.705049 0.895025 -0.251141
C55   C     C_R   0.427756 0.285059 0.899637 -0.257313
C56   C     C_R   0.304781 0.999800 0.583475 -0.071958
C57   C     C_R   0.427587 0.715268 0.899885 -0.257754
C58   C     C_R   0.579396 0.295342 0.894809 -0.251484
C59   C     C_R   0.823695 0.932492 0.731398 -0.142614
C60   C     C_R   0.367935 0.067563 0.645984 -0.151066
C61   C     C_R   0.366463 0.932401 0.646625 -0.151627
C62   C     C_R   0.809457 0.062618 0.710403 -0.152444
C63   C     C_R   0.904342 0.930823 0.711823 0.157704
C64   C     C_R   0.326056 0.067715 0.603981 0.154422
C65   C     C_R   0.324584 0.932009 0.604623 0.152782
C66   C     C_R   0.890034 0.061487 0.690723 0.141561
C67   C     C_1   0.521154 0.932874 0.809868 0.045951
C68   C     C_3   0.535068 0.000098 0.782206 -0.050418
C69   C     C_R   0.508364 0.808486 0.858295 -0.144769
C70   C     C_R   0.508689 0.192033 0.857965 -0.146307
C71   C     C_R   0.501939 0.677092 0.911222 -0.211841
C72   C     C_R   0.502055 0.323174 0.911057 -0.211580
C73   C     C_1   0.521511 0.067543 0.809691 0.048456
C74   C     C_1   0.621888 0.999726 0.765003 0.024805
Cu1   Cu    Cu3+1 0.415470 0.500000 0.000080 0.989623
Cu2   Cu    Cu3+1 0.584530 0.500000 0.000080 0.989035
Cu3   Cu    Cu3+1 0.000000 0.072960 0.508900 0.953309
Cu4   Cu    Cu3+1 0.000000 0.927040 0.508900 0.957669
F1    F     F_    0.658128 0.795948 0.854117 -0.646334
F2    F     F_    0.358632 0.183499 0.863256 -0.632233
F3    F     F_    0.358301 0.816963 0.863623 -0.632589
F4    F     F_    0.658434 0.204640 0.853822 -0.640794
H1    H     H_    0.637691 0.677125 0.903026 0.203307
H2    H     H_    0.332862 0.902992 0.341424 0.136665
H3    H     H_    0.284361 0.138331 0.349857 0.137930
H4    H     H_    0.719116 0.914728 0.316921 0.137404
H5    H     H_    0.628332 0.291695 0.214631 0.138460
H6    H     H_    0.380338 0.899213 0.140056 0.140129
H7    H     H_    0.371107 0.259239 0.174478 0.140079
H8    H     H_    0.641071 0.957103 0.122624 0.143028
H9    H     H_    0.551289 0.147230 0.321982 0.141787
H10   H     H_    0.442544 0.925753 0.284039 0.140632
H11   H     H_    0.393621 0.162503 0.294009 0.146157
H12   H     H_    0.367279 0.304899 0.911700 0.202387
H13   H     H_    0.611374 0.935110 0.259439 0.144885
H14   H     H_    0.634721 0.164354 0.242767 0.145197
H15   H     H_    0.371993 0.976621 0.208097 0.144873
H16   H     H_    0.375556 0.131359 0.203632 0.142916
H17   H     H_    0.634542 0.034185 0.191543 0.141870
H18   H     H_    0.921199 0.824279 0.692636 0.215539
H19   H     H_    0.011177 0.872237 0.697459 0.229263
H20   H     H_    0.361367 0.163213 0.573469 0.216362
H21   H     H_    0.272650 0.126916 0.552184 0.222608
H22   H     H_    0.357815 0.835189 0.575036 0.217278
H23   H     H_    0.367143 0.695355 0.911935 0.202241
H24   H     H_    0.269922 0.872553 0.553380 0.222829
H25   H     H_    0.886088 0.140359 0.641925 0.213191
H26   H     H_    0.983973 0.117062 0.657411 0.228534
H27   H     H_    0.637807 0.323246 0.902851 0.203736
H28   H     H_    0.798067 0.882541 0.746944 0.177229
H29   H     H_    0.385180 0.119959 0.661747 0.157528
H30   H     H_    0.382568 0.880084 0.662884 0.157554
H31   H     H_    0.772784 0.113503 0.709671 0.163610
H32   H     H_    0.658325 0.124864 0.379581 0.137179
N1    N     N_3   0.952467 0.863360 0.712836 -0.550033
N2    N     N_3   0.305017 0.137015 0.582588 -0.577759
N3    N     N_3   0.302044 0.862599 0.583888 -0.579547
N4    N     N_3   0.923515 0.127649 0.670131 -0.556764
O1    O     O_R   0.429360 0.416280 0.044700 -0.576829
O2    O     O_R   0.906590 0.940530 0.464300 -0.580718
O3    O     O_R   0.906590 0.059470 0.464300 -0.580999
O4    O     O_R   0.093410 0.940530 0.464300 -0.582503
O5    O     O_R   0.920740 0.061400 0.553530 -0.561318
O6    O     O_R   0.079260 0.938600 0.553530 -0.557523
O7    O     O_R   0.079260 0.061400 0.553530 -0.558916
O8    O     O_R   0.920740 0.938600 0.553530 -0.552422
O9    O     O_R   0.570640 0.583720 0.044700 -0.573278
O10   O     O_R   0.570640 0.416280 0.044700 -0.574937
O11   O     O_R   0.429360 0.583720 0.044700 -0.574487
O12   O     O_R   0.427420 0.583550 0.955440 -0.583998
O13   O     O_R   0.572580 0.416450 0.955440 -0.587062
O14   O     O_R   0.572580 0.583550 0.955440 -0.586681
O15   O     O_R   0.427420 0.416450 0.955440 -0.584431
O16   O     O_R   0.093410 0.059470 0.464300 -0.582399

loop_
_geom_bond_atom_site_label_1
_geom_bond_atom_site_label_2
_ccdc_geom_bond_type
C40   C47   S    
C57   H23   S    
C8    C13   A    
C64   N2    S    
C27   C29   S    
C58   H27   S    
C26   C72   S    
C36   C42   S    
C1    O10   A    
C14   C31   A    
Cu1   Cu2   S    
C4    C70   S    
C12   O9    A    
Cu3   Cu4   S    
C27   C33   S    
C48   C54   A    
C22   C35   A    
C13   H2    S    
C24   C36   A    
C42   C44   T    
C8    C29   A    
C48   F1    S    
C3    C69   S    
C50   C69   A    
C61   H30   S    
C2    C68   S    
C10   C15   A    
Cu2   O13   S    
C47   O3    A    
C68   C74   S    
C56   C65   A    
C20   H5    S    
C59   H28   S    
C30   C38   S    
C1    O1    A    
C11   H32   S    
C20   C35   A    
C23   C62   A    
C54   C71   A    
C11   C30   A    
C56   C64   A    
C25   C71   S    
C51   C70   A    
Cu4   O6    S    
C48   C69   A    
H25   N4    S    
C55   C72   A    
Cu1   O12   S    
C9    C29   A    
C63   N1    S    
C21   H6    S    
C34   C60   A    
C41   C43   T    
H18   N1    S    
C17   C33   A    
C55   H12   S    
C35   C41   S    
C25   O12   A    
C54   H1    S    
C6    C74   T    
C16   H14   S    
C12   O11   A    
C62   C66   A    
C67   C68   S    
H26   N4    S    
Cu1   O1    S    
C62   H31   S    
C19   C33   A    
C21   C36   A    
C19   H17   S    
C68   C73   S    
C49   C55   A    
C45   C63   A    
C34   C61   A    
C17   C21   A    
C7    C28   A    
C31   C37   S    
C23   C59   A    
C9    C14   A    
Cu3   O5    S    
C46   O16   A    
C7    C11   A    
C16   C20   A    
C7    H9    S    
C5    C34   S    
C51   C58   A    
C57   C71   A    
C51   F4    S    
C4    C73   T    
C53   O7    A    
C39   C46   S    
C8    H10   S    
C47   O2    A    
C49   C70   A    
C15   H4    S    
H24   N3    S    
Cu2   O10   S    
C2    C5    T    
C18   C32   A    
Cu3   O16   S    
Cu4   O8    S    
C9    H11   S    
C27   C28   S    
Cu3   O7    S    
C15   C30   A    
H22   N3    S    
C10   C28   A    
Cu4   O2    S    
C52   O8    A    
C27   C32   S    
C18   C22   A    
C50   C57   A    
C13   C31   A    
C3    C67   T    
C14   H3    S    
C53   O6    A    
C24   H8    S    
Cu1   O15   S    
C16   C32   A    
C59   C63   A    
C49   F2    S    
C60   C64   A    
C19   C24   A    
C37   C39   T    
C60   H29   S    
C38   C40   T    
Cu2   O14   S    
C58   C72   A    
C10   H13   S    
H19   N1    S    
C6    C23   S    
C52   O5    A    
C22   H7    S    
H21   N2    S    
H20   N2    S    
Cu4   O4    S    
Cu3   O3    S    
C61   C65   A    
C66   N4    S    
C45   C66   A    
C26   O15   A    
Cu2   O9    S    
C65   N3    S    
C46   O4    A    
C18   H16   S    
C25   O14   A    
C17   H15   S    
C26   O13   A    
Cu1   O11   S    
C50   F3    S    
