data_mof_unit_17598.cif
_audit_creation_date              2012-12-10T17:57:49-0500
_audit_creation_method            fapswitch 2.2
_symmetry_space_group_name_H-M    P1
_symmetry_Int_Tables_number       1
_space_group_crystal_system       triclinic
_cell_length_a                    10.835108
_cell_length_b                    9.507035
_cell_length_c                    15.085561
_cell_angle_alpha                 89.999943
_cell_angle_beta                  90.168048
_cell_angle_gamma                 90.00003
_cell_volume                      1553.95319816

loop_
_atom_site_label
_atom_site_type_symbol
_atom_type_description
_atom_site_fract_x
_atom_site_fract_y
_atom_site_fract_z
_atom_type_partial_charge
C1    C     C_R   0.262023 0.500000 0.499930 0.790954
C2    C     C_R   0.737977 0.500000 0.500069 0.790954
C3    C     C_R   0.499884 0.756386 0.046209 -0.210198
C4    C     C_R   0.500123 0.243616 0.953790 -0.210200
C5    C     C_R   0.063843 0.372173 0.499949 -0.184359
C6    C     C_R   0.936157 0.627827 0.500051 -0.184359
C7    C     C_R   0.936156 0.372173 0.500051 -0.184360
C8    C     C_R   0.063843 0.627827 0.499949 -0.184359
C9    C     C_R   0.871802 0.500000 0.500078 -0.018059
C10   C     C_R   0.128197 0.500000 0.499922 -0.018059
C11   C     C_R   0.423734 0.074461 0.444487 -0.028424
C12   C     C_R   0.576266 0.925539 0.555513 -0.028424
C13   C     C_R   0.576266 0.074460 0.555513 -0.028424
C14   C     C_R   0.423734 0.925539 0.444487 -0.028424
C15   C     C_R   0.499831 0.500000 0.328508 0.818568
C16   C     C_R   0.500169 0.500000 0.671491 0.818570
C17   C     C_R   0.500350 0.372040 0.814755 -0.246289
C18   C     C_R   0.499663 0.627964 0.185245 -0.246285
C19   C     C_R   0.500313 0.500000 0.768374 -0.075013
C20   C     C_R   0.499688 0.500000 0.231626 -0.075010
C21   C     C_R   0.500328 0.627959 0.814755 -0.246290
C22   C     C_R   0.499662 0.372037 0.185244 -0.246284
C23   C     C_R   0.500194 0.628867 0.907116 0.108954
C24   C     C_R   0.499803 0.371132 0.092883 0.108956
C25   C     C_R   0.500103 0.500000 0.953533 0.062495
C26   C     C_R   0.499900 0.500001 0.046466 0.062489
C27   C     C_R   0.500211 0.371133 0.907116 0.108956
C28   C     C_R   0.499796 0.628870 0.092883 0.108957
C29   C     C_R   0.500091 0.756384 0.953791 -0.210201
C30   C     C_R   0.499907 0.243615 0.046209 -0.210198
Cu1   Cu    Cu3+1 0.500000 0.640660 0.500000 0.941547
Cu2   Cu    Cu3+1 0.500000 0.359340 0.500000 0.941547
H1    H     H_    0.500428 0.272977 0.779124 0.153513
H2    H     H_    0.499595 0.727031 0.220875 0.153511
H3    H     H_    0.500156 0.855972 0.918837 0.135859
H4    H     H_    0.499837 0.144025 0.081163 0.135855
H5    H     H_    0.499807 0.855976 0.081163 0.135854
H6    H     H_    0.500205 0.144028 0.918836 0.135857
H7    H     H_    0.111872 0.272237 0.499901 0.148801
H8    H     H_    0.888128 0.727763 0.500099 0.148801
H9    H     H_    0.888127 0.272237 0.500099 0.148801
H10   H     H_    0.111872 0.727763 0.499901 0.148801
H11   H     H_    0.362670 0.130679 0.400048 0.116722
H12   H     H_    0.637330 0.869321 0.599952 0.116723
H13   H     H_    0.637330 0.130678 0.599952 0.116721
H14   H     H_    0.362670 0.869321 0.400048 0.116722
N1    N     N_R   0.500000 0.852070 0.500000 -0.156361
N2    N     N_R   0.500000 0.147930 0.500000 -0.156360
O1    O     O_R   0.319640 0.618740 0.499990 -0.588915
O2    O     O_R   0.680360 0.381260 0.500010 -0.588915
O3    O     O_R   0.680360 0.618740 0.500010 -0.588915
O4    O     O_R   0.319640 0.381260 0.499990 -0.588915
O5    O     O_R   0.499970 0.618800 0.370260 -0.587728
O6    O     O_R   0.500030 0.381200 0.629740 -0.587729
O7    O     O_R   0.500030 0.618800 0.629740 -0.587730
O8    O     O_R   0.499970 0.381200 0.370260 -0.587728
H15   H     H_    0.500389 0.727022 0.779124 0.153516
H16   H     H_    0.499589 0.272970 0.220875 0.153510

loop_
_geom_bond_atom_site_label_1
_geom_bond_atom_site_label_2
_ccdc_geom_bond_type
C22   H16   S    
C13   N2    A    
C13   H13   S    
C5    C7    A    
C11   H11   S    
C14   N1    A    
C25   C27   A    
Cu2   N2    S    
C29   H3    S    
C26   C28   A    
Cu1   Cu2   S    
C30   H4    S    
C8    H10   S    
C15   O8    A    
C4    C27   A    
C6    C9    A    
C5    H7    S    
C16   O7    A    
C5    C10   A    
C12   H12   S    
Cu1   N1    S    
Cu1   O5    S    
C21   H15   S    
C18   H2    S    
Cu2   O2    S    
C11   N2    A    
C17   H1    S    
Cu1   O1    S    
C12   N1    A    
C23   C29   A    
Cu2   O6    S    
C3    C28   A    
C11   C14   A    
C4    H6    S    
C22   C24   A    
C23   C25   A    
C21   C23   A    
C16   C19   S    
C15   C20   S    
C1    O4    A    
C16   O6    A    
C24   C30   A    
C2    O3    A    
C17   C19   A    
C17   C27   A    
C15   O5    A    
C6    H8    S    
C18   C28   A    
C12   C13   A    
C3    H5    S    
C18   C20   A    
C14   H14   S    
Cu1   O3    S    
C3    C29   A    
C7    C9    A    
Cu2   O4    S    
C6    C8    A    
C2    O2    A    
Cu1   O7    S    
C25   C26   A    
C2    C9    S    
C1    O1    A    
Cu2   O8    S    
C8    C10   A    
C4    C30   A    
C1    C10   S    
C24   C26   A    
C7    H9    S    
C20   C22   A    
C19   C21   A    
