data_mof_unit_26946.cif
_audit_creation_date              2012-12-10T16:42:59-0500
_audit_creation_method            fapswitch 2.2
_symmetry_space_group_name_H-M    P1
_symmetry_Int_Tables_number       1
_space_group_crystal_system       triclinic
_cell_length_a                    7.46388
_cell_length_b                    8.683772
_cell_length_c                    12.968467
_cell_angle_alpha                 88.071727
_cell_angle_beta                  79.256609
_cell_angle_gamma                 102.747718
_cell_volume                      803.001448512

loop_
_atom_site_label
_atom_site_type_symbol
_atom_type_description
_atom_site_fract_x
_atom_site_fract_y
_atom_site_fract_z
_atom_type_partial_charge
C1    C     C_R   0.452849 0.199739 0.503201 0.886540
C2    C     C_R   0.547150 0.800261 0.496799 0.886540
C3    C     C_R   0.466432 0.495112 0.701345 0.841615
C4    C     C_R   0.533568 0.504888 0.298655 0.841615
C5    C     C_R   0.553111 0.511249 0.185038 -0.178152
C6    C     C_R   0.446889 0.488751 0.814962 -0.178152
C7    C     C_R   0.250751 0.428496 0.988753 0.669677
C8    C     C_R   0.749249 0.571503 0.011247 0.669677
C9    C     C_R   0.269244 0.436778 0.880164 -0.181817
C10   C     C_R   0.730756 0.563222 0.119836 -0.181816
C11   C     C_R   0.606384 0.533225 0.858530 -0.203715
C12   C     C_R   0.393616 0.466775 0.141470 -0.203715
C13   C     C_R   0.589737 0.526443 0.967138 -0.047490
C14   C     C_R   0.410263 0.473557 0.032862 -0.047490
C15   C     C_2   0.426276 0.031913 0.504731 -0.353708
C16   C     C_2   0.573724 0.968087 0.495269 -0.353709
Cu1   Cu    Cu3+1 0.686350 0.517570 0.488220 0.969870
Cu2   Cu    Cu3+1 0.313650 0.482430 0.511780 0.969870
H1    H     H_    0.256731 0.426243 0.192189 0.218055
H2    H     H_    0.743269 0.573757 0.807811 0.218055
H3    H     H_    0.855357 0.599066 0.152775 0.196677
H4    H     H_    0.144643 0.400934 0.847225 0.196677
H5    H     H_    0.934060 0.376521 0.583090 0.227245
H6    H     H_    0.065940 0.623479 0.416910 0.227244
H7    H     H_    0.284077 0.960501 0.513651 0.181854
H8    H     H_    0.715923 0.039499 0.486349 0.181854
N1    N     N_2   0.033570 0.455950 0.529530 -0.214995
N2    N     N_2   0.966430 0.544050 0.470470 -0.214995
O1    O     O_R   0.621060 0.286250 0.492350 -0.582719
O2    O     O_R   0.378940 0.713750 0.507650 -0.582719
O3    O     O_R   0.306310 0.256580 0.512240 -0.586368
O4    O     O_R   0.693690 0.743420 0.487760 -0.586368
O5    O     O_R   0.631800 0.512400 0.642670 -0.595091
O6    O     O_R   0.368200 0.487600 0.357330 -0.595091
O7    O     O_R   0.317060 0.482730 0.662570 -0.580048
O8    O     O_R   0.682940 0.517270 0.337430 -0.580048
F1    F     F_    0.077748 0.375729 0.050342 -0.667429
F2    F     F_    0.922252 0.624271 0.949658 -0.667429

loop_
_geom_bond_atom_site_label_1
_geom_bond_atom_site_label_2
_ccdc_geom_bond_type
C4    O8    A    
C8    C13   A    
C1    C15   S    
Cu1   O8    S    
H5    N1    S    
Cu1   O1    S    
Cu2   O7    S    
C3    O7    A    
C2    O2    A    
C3    C6    S    
C6    C9    A    
C1    O1    A    
Cu1   Cu2   S    
C7    F1    S    
C5    C10   A    
C13   C14   A    
C11   C13   A    
C6    C11   A    
Cu1   O5    S    
C8    F2    S    
Cu2   O2    S    
C12   H1    S    
C2    O4    A    
C12   C14   A    
Cu2   O6    S    
C10   H3    S    
C16   H8    S    
C11   H2    S    
C4    O6    A    
C9    H4    S    
C15   H7    S    
C3    O5    A    
C15   C16   D    
C1    O3    A    
C2    C16   S    
C5    C12   A    
C8    C10   A    
N1    N2    D    
C7    C9    A    
Cu1   O4    S    
Cu2   O3    S    
Cu1   N2    S    
C7    C14   A    
Cu2   N1    S    
H6    N2    S    
C4    C5    S    
