data_mof_unit_50261.cif
_audit_creation_date              2013-03-05T15:56:49-0500
_audit_creation_method            fapswitch 2.2
_symmetry_space_group_name_H-M    P1
_symmetry_Int_Tables_number       1
_space_group_crystal_system       triclinic
_cell_length_a                    21.307064
_cell_length_b                    21.37229
_cell_length_c                    13.658875
_cell_angle_alpha                 90.294206
_cell_angle_beta                  91.898527
_cell_angle_gamma                 90.082692
_cell_volume                      6216.48434726

loop_
_atom_site_label
_atom_site_type_symbol
_atom_site_description
_atom_site_fract_x
_atom_site_fract_y
_atom_site_fract_z
_atom_type_partial_charge
O1    O     O_R   0.064880 0.435140 0.582280 -0.548739
O2    O     O_R   0.935120 0.564860 0.417720 -0.551210
O3    O     O_R   0.935120 0.564860 0.582280 -0.595545
O4    O     O_R   0.064880 0.435140 0.417720 -0.597983
O5    O     O_R   0.935120 0.435140 0.417720 -0.549239
O6    O     O_R   0.064880 0.564860 0.582280 -0.555064
O7    O     O_R   0.064880 0.564860 0.417720 -0.600636
O8    O     O_R   0.935120 0.435140 0.582280 -0.599826
O9    O     O_R   0.564880 0.935140 0.582280 -0.548667
O10   O     O_R   0.435120 0.064860 0.417720 -0.551017
O11   O     O_R   0.435120 0.064860 0.582280 -0.595647
O12   O     O_R   0.564880 0.935140 0.417720 -0.597963
O13   O     O_R   0.435120 0.935140 0.417720 -0.548890
O14   O     O_R   0.564880 0.064860 0.582280 -0.554963
O15   O     O_R   0.564880 0.064860 0.417720 -0.600686
O16   O     O_R   0.435120 0.935140 0.582280 -0.599898
C1    C     C_R   0.086724 0.415571 0.501099 0.806677
C2    C     C_R   0.913473 0.584805 0.498774 0.809476
C3    C     C_R   0.914116 0.413887 0.498289 0.812016
C4    C     C_R   0.087896 0.584147 0.501837 0.806975
C5    C     C_R   0.586727 0.915577 0.501099 0.806699
C6    C     C_R   0.413467 0.084800 0.498774 0.809395
C7    C     C_R   0.414084 0.913920 0.498290 0.811972
C8    C     C_R   0.587888 0.084157 0.501838 0.806972
Cu1   Cu    Cu3+1 0.000000 0.500000 0.597420 0.999775
Cu2   Cu    Cu3+1 1.000000 0.500000 0.402580 0.990014
Cu3   Cu    Cu3+1 0.500000 1.000000 0.597420 0.999762
Cu4   Cu    Cu3+1 0.500000 1.000000 0.402580 0.990227
C9    C     C_R   0.168029 0.643266 0.416392 -0.222723
C10   C     C_R   0.865727 0.324868 0.579831 -0.233109
C11   C     C_R   0.868616 0.679866 0.566110 -0.229904
C12   C     C_R   0.131603 0.320608 0.434825 -0.230189
C13   C     C_R   0.668105 0.143183 0.416423 -0.222741
C14   C     C_R   0.365807 0.824814 0.579737 -0.233216
C15   C     C_R   0.368560 0.179808 0.566215 -0.229865
C16   C     C_R   0.631513 0.820528 0.434994 -0.230310
C17   C     C_R   0.143848 0.625517 0.505659 -0.149672
C18   C     C_R   0.871201 0.359681 0.494430 -0.148705
C19   C     C_R   0.865147 0.633297 0.495276 -0.142425
C20   C     C_R   0.135918 0.368266 0.503680 -0.142882
C21   C     C_R   0.643846 0.125518 0.505677 -0.149760
C22   C     C_R   0.371134 0.859753 0.494437 -0.148866
C23   C     C_R   0.365145 0.133297 0.495282 -0.142512
C24   C     C_R   0.635923 0.868278 0.503677 -0.142813
C25   C     C_R   0.174632 0.645139 0.594458 -0.041943
C26   C     C_R   0.838794 0.340166 0.407457 -0.020008
C27   C     C_R   0.816709 0.633141 0.422963 -0.044117
C28   C     C_R   0.187418 0.371991 0.570153 -0.054336
C29   C     C_R   0.674574 0.145194 0.594490 -0.041645
C30   C     C_R   0.338529 0.840400 0.407556 -0.019881
C31   C     C_R   0.316754 0.133200 0.422894 -0.043895
C32   C     C_R   0.687510 0.872097 0.569968 -0.054280
C33   C     C_R   0.230867 0.681138 0.591121 -0.043957
C34   C     C_R   0.806410 0.282161 0.406045 -0.034467
C35   C     C_R   0.772992 0.683366 0.418976 -0.047087
C36   C     C_R   0.231514 0.322153 0.574536 -0.036186
C37   C     C_R   0.730832 0.181161 0.591184 -0.044034
C38   C     C_R   0.306193 0.782374 0.406048 -0.034308
C39   C     C_R   0.273082 0.183457 0.418878 -0.047061
C40   C     C_R   0.731620 0.822269 0.574355 -0.036131
C41   C     C_R   0.248488 0.705550 0.499426 0.027868
C42   C     C_R   0.794100 0.252979 0.496410 0.019848
C43   C     C_R   0.774958 0.728736 0.496153 0.020182
C44   C     C_R   0.228698 0.275670 0.499113 0.020593
C45   C     C_R   0.748542 0.205486 0.499481 0.027818
C46   C     C_R   0.294026 0.753059 0.496357 0.019650
C47   C     C_R   0.274961 0.228736 0.496177 0.020147
C48   C     C_R   0.728697 0.775676 0.499098 0.020538
C49   C     C_R   0.218791 0.684310 0.411045 0.094860
C50   C     C_R   0.825504 0.273186 0.583865 0.095761
C51   C     C_R   0.823477 0.727170 0.570115 0.106159
C52   C     C_R   0.179066 0.276034 0.426952 0.105960
C53   C     C_R   0.718914 0.184173 0.411092 0.094892
C54   C     C_R   0.325547 0.773162 0.583772 0.095812
C55   C     C_R   0.323390 0.227079 0.570274 0.106185
C56   C     C_R   0.678956 0.775931 0.427121 0.105948
C57   C     C_R   0.269606 0.694399 0.676156 -0.042715
C58   C     C_R   0.785347 0.253031 0.316992 -0.044312
C59   C     C_R   0.727507 0.689481 0.340715 -0.044805
C60   C     C_R   0.277819 0.317494 0.651732 -0.046019
C61   C     C_R   0.769509 0.194466 0.676261 -0.042807
C62   C     C_R   0.285035 0.753363 0.316953 -0.044191
C63   C     C_R   0.227734 0.189691 0.340455 -0.044764
C64   C     C_R   0.778038 0.817721 0.651404 -0.045899
C65   C     C_R   0.817106 0.240680 0.672829 0.079779
C66   C     C_R   0.240712 0.704070 0.319011 0.065076
C67   C     C_R   0.178339 0.233214 0.347164 0.076574
C68   C     C_R   0.825504 0.771757 0.647735 0.076266
C69   C     C_R   0.317223 0.740589 0.672693 0.079825
C70   C     C_R   0.740956 0.203800 0.319068 0.065152
C71   C     C_R   0.678096 0.732978 0.347508 0.076470
C72   C     C_R   0.325296 0.271541 0.648069 0.076379
H1    H     H_    0.144167 0.627016 0.350311 0.173647
H2    H     H_    0.891518 0.340704 0.644494 0.168539
H3    H     H_    0.907069 0.677114 0.619242 0.161080
H4    H     H_    0.091148 0.320983 0.385218 0.160050
H5    H     H_    0.644276 0.126904 0.350330 0.173648
H6    H     H_    0.391742 0.840537 0.644324 0.168502
H7    H     H_    0.406981 0.177025 0.619398 0.161140
H8    H     H_    0.590996 0.820849 0.385511 0.159986
C73   C     C_R   0.999537 0.444386 0.792707 0.062566
C74   C     C_R   0.000352 0.555606 0.207282 0.059137
C75   C     C_R   0.000262 0.555606 0.793634 0.070726
C76   C     C_R   0.999811 0.444394 0.206355 0.082267
C77   C     C_R   0.499500 0.944387 0.792705 0.062313
C78   C     C_R   0.500403 0.055606 0.207285 0.059370
C79   C     C_R   0.500284 0.055606 0.793636 0.071028
C80   C     C_R   0.499724 0.944393 0.206352 0.082183
N1    N     N_R   0.000000 0.500000 0.743810 -0.177428
N2    N     N_R   1.000000 0.500000 0.256190 -0.187986
N3    N     N_R   0.500000 1.000000 0.743810 -0.177440
N4    N     N_R   0.500000 0.000000 0.256190 -0.187817
C81   C     C_R   0.000435 0.556951 0.896785 -0.004072
C82   C     C_R   0.999450 0.443047 0.103201 -0.002061
C83   C     C_R   0.999336 0.443040 0.895820 -0.004043
C84   C     C_R   0.000509 0.556949 0.104169 -0.009136
C85   C     C_R   0.500457 0.056951 0.896787 -0.004060
C86   C     C_R   0.499373 0.943047 0.103198 -0.002129
C87   C     C_R   0.499284 0.943040 0.895817 -0.004003
C88   C     C_R   0.500544 0.056949 0.104171 -0.009201
C89   C     C_R   0.999928 0.499996 0.948133 0.094578
C90   C     C_R   0.999966 0.499997 0.051854 0.083136
C91   C     C_R   0.499912 0.999996 0.948133 0.094524
C92   C     C_R   0.499947 0.999997 0.051854 0.083263
C93   C     C_R   0.001082 0.613597 0.949550 -0.192225
C94   C     C_R   0.998519 0.386399 0.050440 -0.180865
C95   C     C_R   0.998511 0.386388 0.947597 -0.192310
C96   C     C_R   0.001147 0.613600 0.052390 -0.168672
C97   C     C_R   0.501140 0.113597 0.949553 -0.192184
C98   C     C_R   0.498398 0.886401 0.050433 -0.181205
C99   C     C_R   0.498409 0.886389 0.947592 -0.192192
C100  C     C_R   0.501218 0.113599 0.052394 -0.168679
H9    H     H_    0.999245 0.401072 0.751235 0.124475
H10   H     H_    0.000550 0.598917 0.248748 0.136949
H11   H     H_    0.000419 0.598904 0.752850 0.124878
H12   H     H_    0.999731 0.401072 0.247111 0.148221
H13   H     H_    0.499184 0.901072 0.751233 0.124457
H14   H     H_    0.500647 0.098917 0.248752 0.136883
H15   H     H_    0.500461 0.098904 0.752853 0.124849
H16   H     H_    0.499575 0.901072 0.247106 0.147939
H17   H     H_    0.001556 0.657865 0.911338 0.137306
H18   H     H_    0.997710 0.342148 0.088676 0.142342
H19   H     H_    0.997807 0.342110 0.908588 0.144950
H20   H     H_    0.001705 0.657876 0.091394 0.149784
H21   H     H_    0.501634 0.157865 0.911343 0.137279
H22   H     H_    0.497546 0.842151 0.088665 0.142245
H23   H     H_    0.497679 0.842112 0.908581 0.144888
H24   H     H_    0.501811 0.157874 0.091400 0.149836
C101  C     C_2   0.143245 0.637020 0.688869 0.863229
O17   O     O_2   0.144327 0.586296 0.729958 -0.530960
O18   O     O_R   0.114253 0.688370 0.731953 -0.756008
H25   H     H_    0.095579 0.677678 0.797088 0.327330
C102  C     C_2   0.825847 0.385105 0.326595 0.868890
O19   O     O_2   0.866795 0.399333 0.270201 -0.585931
O20   O     O_R   0.764509 0.406681 0.310526 -0.706914
H26   H     H_    0.759927 0.433984 0.250265 0.350293
C103  C     C_2   0.807065 0.575615 0.363176 0.859242
O21   O     O_2   0.768029 0.537129 0.387029 -0.550819
O22   O     O_R   0.842129 0.566017 0.279649 -0.714246
H27   H     H_    0.830938 0.525504 0.244421 0.344802
C104  C     C_2   0.200858 0.433078 0.618621 0.862404
O23   O     O_2   0.171519 0.449481 0.689761 -0.511347
O24   O     O_R   0.247553 0.471558 0.582018 -0.737158
H28   H     H_    0.251724 0.512621 0.619006 0.378312
C105  C     C_2   0.643110 0.137187 0.688863 0.863172
O25   O     O_2   0.644145 0.086508 0.730087 -0.530838
O26   O     O_R   0.614107 0.188595 0.731760 -0.756135
H29   H     H_    0.595379 0.177983 0.796888 0.327226
C106  C     C_2   0.325308 0.885494 0.327006 0.868708
O27   O     O_2   0.366146 0.900098 0.270631 -0.585575
O28   O     O_R   0.263845 0.906767 0.311139 -0.707019
H30   H     H_    0.259075 0.934214 0.251057 0.350760
C107  C     C_2   0.307039 0.075684 0.363114 0.859033
O29   O     O_2   0.267879 0.037302 0.386886 -0.551272
O30   O     O_R   0.342131 0.065999 0.279642 -0.714078
H31   H     H_    0.330784 0.025561 0.244308 0.345254
C108  C     C_2   0.700983 0.933243 0.618240 0.862053
O31   O     O_2   0.671665 0.949749 0.689345 -0.511296
O32   O     O_R   0.747689 0.971657 0.581504 -0.737117
H32   H     H_    0.751893 0.012758 0.618384 0.378130
C109  C     C_2   0.265386 0.655793 0.765764 0.844311
O33   O     O_2   0.249494 0.679608 0.842663 -0.570017
O34   O     O_R   0.279895 0.592134 0.761618 -0.738636
H33   H     H_    0.275145 0.570551 0.826885 0.364380
C110  C     C_2   0.815522 0.269141 0.223658 0.849923
O35   O     O_2   0.783712 0.286250 0.152634 -0.574122
O36   O     O_R   0.880868 0.265930 0.218482 -0.755641
H34   H     H_    0.896210 0.278646 0.151970 0.336222
C111  C     C_2   0.736099 0.657490 0.245408 0.853201
O37   O     O_2   0.775935 0.676613 0.190479 -0.563186
O38   O     O_R   0.699279 0.605422 0.219287 -0.742111
H35   H     H_    0.710024 0.587562 0.153025 0.342499
C112  C     C_2   0.271177 0.353778 0.743783 0.856170
O39   O     O_2   0.306199 0.397904 0.762827 -0.564110
O40   O     O_R   0.223597 0.337972 0.807203 -0.741278
H36   H     H_    0.223099 0.366248 0.866993 0.349618
C113  C     C_2   0.765267 0.155849 0.765856 0.844365
O41   O     O_2   0.749420 0.179665 0.842779 -0.570099
O42   O     O_R   0.779682 0.092168 0.761657 -0.738329
H37   H     H_    0.774919 0.070577 0.826913 0.364401
C114  C     C_2   0.315041 0.769698 0.223564 0.849770
O43   O     O_2   0.283084 0.786751 0.152662 -0.574112
O44   O     O_R   0.380393 0.766795 0.218212 -0.755876
H38   H     H_    0.395607 0.779694 0.151709 0.336233
C115  C     C_2   0.236492 0.157811 0.245103 0.853205
O45   O     O_2   0.276494 0.176938 0.190470 -0.563240
O46   O     O_R   0.199644 0.105831 0.218614 -0.742345
H39   H     H_    0.210511 0.088041 0.152361 0.342461
C116  C     C_2   0.771541 0.854140 0.743360 0.856132
O47   O     O_2   0.806585 0.898296 0.762110 -0.564021
O48   O     O_R   0.724068 0.838427 0.807027 -0.741251
H40   H     H_    0.723665 0.866789 0.866724 0.349648
C117  C     C_3   0.859934 0.253615 0.763032 -0.408978
C118  C     C_3   0.835386 0.307693 0.824654 -0.725795
H41   H     H_    0.831843 0.351414 0.781436 0.239041
H42   H     H_    0.788260 0.296335 0.851940 0.296922
H43   H     H_    0.867911 0.316031 0.888615 0.238034
H44   H     H_    0.865374 0.211841 0.810330 0.223792
H45   H     H_    0.908830 0.263119 0.741745 0.185515
C119  C     C_3   0.219298 0.670994 0.223971 -0.378296
C120  C     C_3   0.159599 0.700366 0.179168 -0.734839
H46   H     H_    0.120348 0.698128 0.230383 0.225348
H47   H     H_    0.167830 0.750121 0.160700 0.293333
H48   H     H_    0.145357 0.674774 0.111017 0.245654
H49   H     H_    0.256384 0.671544 0.168916 0.228940
H50   H     H_    0.211933 0.620244 0.236121 0.193432
C121  C     C_3   0.126988 0.235788 0.265923 -0.397098
C122  C     C_3   0.138565 0.288951 0.194240 -0.796996
H51   H     H_    0.138126 0.335156 0.231579 0.252176
H52   H     H_    0.184647 0.282566 0.159869 0.277186
H53   H     H_    0.101242 0.288625 0.135594 0.240092
H54   H     H_    0.123590 0.191705 0.223290 0.241811
H55   H     H_    0.079648 0.239531 0.296760 0.203128
C123  C     C_3   0.876633 0.769080 0.729302 -0.404249
C124  C     C_3   0.861799 0.719547 0.805516 -0.784562
H56   H     H_    0.816730 0.730734 0.840209 0.278201
H57   H     H_    0.858247 0.672251 0.771926 0.251597
H58   H     H_    0.899644 0.718914 0.863348 0.242267
H59   H     H_    0.923650 0.761213 0.699085 0.202348
H60   H     H_    0.882909 0.814371 0.767913 0.241863
C125  C     C_3   0.360114 0.753468 0.762849 -0.408963
C126  C     C_3   0.335653 0.807562 0.824529 -0.726194
H61   H     H_    0.332157 0.851300 0.781347 0.239142
H62   H     H_    0.288521 0.796254 0.851836 0.296943
H63   H     H_    0.368205 0.815836 0.888477 0.237842
H64   H     H_    0.365531 0.711685 0.810133 0.223756
H65   H     H_    0.409008 0.762919 0.741501 0.185535
C127  C     C_3   0.719596 0.170642 0.224069 -0.378432
C128  C     C_3   0.659991 0.200059 0.179028 -0.734881
H66   H     H_    0.620685 0.197962 0.230157 0.225392
H67   H     H_    0.668332 0.249773 0.160420 0.293295
H68   H     H_    0.645770 0.174402 0.110928 0.245762
H69   H     H_    0.756743 0.171070 0.169111 0.228902
H70   H     H_    0.712138 0.119920 0.236336 0.193488
C129  C     C_3   0.626560 0.735355 0.266537 -0.397068
C130  C     C_3   0.637951 0.788344 0.194464 -0.796767
H71   H     H_    0.637608 0.834637 0.231542 0.252101
H72   H     H_    0.683938 0.781872 0.159837 0.277226
H73   H     H_    0.600483 0.787882 0.136045 0.240031
H74   H     H_    0.623072 0.691165 0.224191 0.241805
H75   H     H_    0.579297 0.739169 0.297629 0.203074
C131  C     C_3   0.376284 0.268715 0.729838 -0.404370
C132  C     C_3   0.361346 0.218992 0.805697 -0.784576
H76   H     H_    0.316201 0.230058 0.840243 0.278184
H77   H     H_    0.357892 0.171771 0.771835 0.251626
H78   H     H_    0.399086 0.218256 0.863689 0.242380
H79   H     H_    0.423362 0.260956 0.699781 0.202311
H80   H     H_    0.382460 0.313915 0.768736 0.241850

loop_
_geom_bond_atom_site_label_1
_geom_bond_atom_site_label_2
_geom_bond_distance
_ccdc_geom_bond_type
C132  H78   1.110077 S    
C63   C67   1.410567 A    
O28   H30   1.013661 S    
C94   C95   1.404706 A    
C83   C89   1.408167 A    
C27   C103  1.482721 S    
O5    Cu2   1.972747 S    
C98   H22   1.083083 S    
C114  O44   1.398251 S    
C114  O43   1.222693 D    
O24   H28   1.012700 S    
C14   C22   1.394768 A    
O34   H33   1.013804 S    
C44   C52   1.421583 A    
C23   C31   1.404698 A    
C87   C91   1.408165 A    
C122  H52   1.110580 S    
C104  O23   1.222812 D    
C95   H19   1.083464 S    
C47   C55   1.421847 A    
C83   C95   1.405716 A    
C132  H76   1.110595 S    
C12   C52   1.396716 A    
C78   N4    1.366436 A    
C117  C118  1.529300 S    
O10   C6    1.284410 A    
C60   C112  1.484691 S    
C118  H41   1.109148 S    
O13   C7    1.286430 A    
C128  H66   1.109088 S    
C105  O25   1.223198 D    
C7    C22   1.474320 S    
C84   C90   1.408119 A    
O12   Cu4   1.965936 S    
C54   C69   1.419099 A    
C27   C35   1.422320 A    
C75   C81   1.408955 A    
C39   C63   1.425489 A    
C53   C70   1.421397 A    
C120  H48   1.110552 S    
C65   C117  1.532467 S    
C101  O18   1.397039 S    
C131  H80   1.105698 S    
C82   C94   1.405531 A    
C127  H70   1.109795 S    
C110  O36   1.398224 S    
O6    Cu1   1.972744 S    
O2    C2    1.284405 A    
C41   C49   1.416564 A    
C46   C54   1.414945 A    
C130  H73   1.109881 S    
C29   C37   1.425148 A    
C79   C85   1.408953 A    
C42   C50   1.414936 A    
O3    C2    1.290776 A    
C111  O38   1.398574 S    
C125  C126  1.529320 S    
C106  O27   1.222123 D    
O14   C8    1.287410 A    
C31   C107  1.482684 S    
C75   H11   1.082625 S    
C32   C108  1.484080 S    
C122  H51   1.109305 S    
C16   C56   1.396736 A    
C39   C47   1.428076 A    
C43   C48   1.408804 A    
C33   C41   1.420966 A    
C41   C46   1.405142 A    
C38   C46   1.417743 A    
C103  O21   1.221983 D    
C110  O35   1.222702 D    
C121  C122  1.528758 S    
C93   H17   1.083066 S    
C108  O32   1.396812 S    
C130  H72   1.110563 S    
C93   C96   1.404642 A    
C57   C109  1.484701 S    
C124  H56   1.110632 S    
C36   C44   1.427250 A    
O13   Cu4   1.972747 S    
C99   H23   1.083467 S    
O14   Cu3   1.972744 S    
C102  O20   1.397365 S    
C32   C40   1.421548 A    
Cu2   N2    1.999523 S    
C59   C71   1.410554 A    
Cu1   N1    1.999523 S    
C97   C100  1.404641 A    
C85   C97   1.405564 A    
C24   C32   1.402757 A    
O16   Cu3   1.961621 S    
C107  O30   1.398682 S    
C121  H54   1.106054 S    
C77   N3    1.366553 A    
Cu3   N3    1.999523 S    
O42   H37   1.013798 S    
C103  O22   1.398710 S    
C107  O29   1.221985 D    
O1    Cu1   1.974056 S    
C8    C21   1.482584 S    
C124  H57   1.109371 S    
C105  O26   1.397036 S    
C123  H60   1.105762 S    
C15   H7    1.078230 S    
C61   C113  1.484733 S    
C21   C29   1.420722 A    
C119  C120  1.530121 S    
C10   C50   1.399511 A    
C115  O46   1.398581 S    
C61   C65   1.416674 A    
C126  H61   1.109147 S    
C9    C49   1.395646 A    
C109  O34   1.396938 S    
C117  H45   1.109631 S    
C121  H55   1.108740 S    
C128  H67   1.109200 S    
C126  H63   1.110485 S    
O46   H39   1.013756 S    
O8    C3    1.297210 A    
C44   C47   1.408733 A    
C129  H75   1.108753 S    
O3    Cu1   1.965936 S    
C74   C84   1.408957 A    
C38   C62   1.422562 A    
O2    Cu2   1.974056 S    
C45   C53   1.416553 A    
C131  H79   1.108726 S    
C80   H16   1.082829 S    
C9    H1    1.076876 S    
C127  H69   1.108802 S    
C122  H53   1.109894 S    
C104  O24   1.396782 S    
C28   C104  1.484018 S    
C34   C42   1.417789 A    
C112  O40   1.397314 S    
Cu1   Cu2   2.661294 S    
C109  O33   1.222921 D    
C77   H13   1.082699 S    
O12   C5    1.287957 A    
C94   H18   1.083095 S    
C58   C70   1.414829 A    
C25   C101  1.483037 S    
C125  H64   1.108679 S    
C35   C43   1.428173 A    
C1    C20   1.457076 S    
C100  H24   1.083405 S    
C60   C72   1.412836 A    
C33   C57   1.429363 A    
C2    C19   1.461835 S    
C74   H10   1.082625 S    
O48   H40   1.013793 S    
C29   C105  1.483076 S    
C120  H46   1.109084 S    
C86   C98   1.405528 A    
C3    C18   1.474504 S    
C80   C86   1.408888 A    
C71   C129  1.533553 S    
C5    C24   1.457005 S    
C35   C59   1.425533 A    
C126  H62   1.109543 S    
O22   H27   1.012728 S    
O11   Cu3   1.965936 S    
O18   H25   1.013588 S    
C57   C69   1.416659 A    
C130  H71   1.109302 S    
C26   C34   1.417644 A    
C116  O47   1.223322 D    
C30   C38   1.417542 A    
C119  H50   1.109807 S    
C111  O37   1.222580 D    
C16   H8    1.078665 S    
C58   C110  1.488390 S    
C66   C119  1.530832 S    
C51   C68   1.421424 A    
C96   H20   1.083407 S    
C89   C90   1.416684 A    
C97   H21   1.083071 S    
C87   C99   1.405712 A    
C22   C30   1.414732 A    
C76   C82   1.408878 A    
O4    C1    1.287986 A    
C55   C72   1.421407 A    
C13   C53   1.395671 A    
O15   C8    1.299148 A    
C12   H4    1.078671 S    
C43   C51   1.421862 A    
C112  O39   1.223309 D    
O16   C7    1.297170 A    
C91   C92   1.416690 A    
O44   H38   1.013921 S    
C84   C96   1.405598 A    
C73   C83   1.408999 A    
C124  H58   1.110098 S    
C69   C125  1.532499 S    
C16   C24   1.383641 A    
C31   C39   1.422214 A    
C123  C124  1.528546 S    
C17   C25   1.420737 A    
C129  C130  1.528758 S    
C86   C92   1.408090 A    
O26   H29   1.013577 S    
C52   C67   1.419172 A    
C15   C23   1.384696 A    
C127  C128  1.530099 S    
O9    Cu3   1.974056 S    
C19   C27   1.404700 A    
C106  O28   1.397359 S    
O10   Cu4   1.974056 S    
O38   H35   1.013756 S    
C28   C36   1.421512 A    
C26   C102  1.486585 S    
C115  O45   1.222581 D    
C129  H74   1.106064 S    
C116  O48   1.397305 S    
C128  H68   1.110556 S    
C76   H12   1.082820 S    
C42   C45   1.405200 A    
C78   C88   1.408952 A    
C88   C100  1.405599 A    
C79   N3    1.366361 A    
C15   C55   1.398496 A    
C37   C45   1.420917 A    
C118  H43   1.110491 S    
C62   C114  1.488524 S    
O4    Cu2   1.965936 S    
C117  H44   1.108681 S    
C131  C132  1.528539 S    
O5    C3    1.286411 A    
C73   H9    1.082701 S    
O32   H32   1.012731 S    
C48   C56   1.421566 A    
C68   C123  1.533547 S    
O11   C6    1.290785 A    
C67   C121  1.533568 S    
C36   C60   1.423929 A    
C62   C66   1.414838 A    
C75   N1    1.366360 A    
C13   C21   1.393502 A    
C14   H6    1.077336 S    
C113  O42   1.396976 S    
C98   C99   1.404705 A    
C85   C91   1.408184 A    
C118  H42   1.109537 S    
O36   H34   1.013904 S    
C120  H47   1.109206 S    
O30   H31   1.012757 S    
C132  H77   1.109322 S    
C101  O17   1.223190 D    
O8    Cu1   1.961621 S    
C76   N2    1.366468 A    
C4    C17   1.482602 S    
C40   C64   1.423924 A    
C63   C115  1.484136 S    
O9    C5    1.284923 A    
O15   Cu4   1.961618 S    
C64   C68   1.412829 A    
O7    Cu2   1.961618 S    
O6    C4    1.287427 A    
C74   N2    1.366438 A    
C11   H3    1.078244 S    
C81   C93   1.405562 A    
C11   C51   1.398503 A    
C64   C116  1.484713 S    
C11   C19   1.384668 A    
C119  H49   1.108815 S    
C30   C106  1.486542 S    
C13   H5    1.076892 S    
C123  H59   1.108759 S    
C12   C20   1.383675 A    
C79   H15   1.082615 S    
C113  O41   1.222909 D    
C37   C61   1.429293 A    
C70   C127  1.530857 S    
C18   C26   1.414828 A    
C78   H14   1.082618 S    
C108  O31   1.222801 D    
C56   C71   1.419138 A    
C25   C33   1.425150 A    
O40   H36   1.013800 S    
C82   C90   1.408084 A    
C80   N4    1.366471 A    
C81   C89   1.408186 A    
O1    C1    1.284937 A    
C40   C48   1.427305 A    
C10   H2    1.077422 S    
O7    C4    1.299112 A    
C59   C111  1.484130 S    
C9    C17   1.393490 A    
O20   H26   1.013563 S    
C77   C87   1.408999 A    
C125  H65   1.109644 S    
C14   C54   1.399493 A    
C10   C18   1.394824 A    
C34   C58   1.422611 A    
C102  O19   1.221959 D    
C50   C65   1.419141 A    
C73   N1    1.366555 A    
C20   C28   1.402773 A    
Cu4   N4    1.999523 S    
C6    C23   1.461842 S    
C72   C131  1.533561 S    
C49   C66   1.421456 A    
C88   C92   1.408115 A    
Cu3   Cu4   2.661294 S    
