data_mof_unit_56731.cif
_audit_creation_date              2012-12-11T15:46:55-0500
_audit_creation_method            fapswitch 2.2
_symmetry_space_group_name_H-M    P1
_symmetry_Int_Tables_number       1
_space_group_crystal_system       triclinic
_cell_length_a                    11.544711
_cell_length_b                    11.50833
_cell_length_c                    19.534989
_cell_angle_alpha                 90.593039
_cell_angle_beta                  90.053603
_cell_angle_gamma                 59.801386
_cell_volume                      2243.04477317

loop_
_atom_site_label
_atom_site_type_symbol
_atom_type_description
_atom_site_fract_x
_atom_site_fract_y
_atom_site_fract_z
_atom_type_partial_charge
C1    C     C_R   0.615480 0.085834 0.606249 0.537545
C2    C     C_1   0.641075 0.704397 0.668095 0.004434
C3    C     C_1   0.146731 0.188225 0.863179 0.003340
C4    C     C_1   0.227261 0.145159 0.735587 -0.028409
C5    C     C_1   0.187784 0.164196 0.805064 -0.027278
C6    C     C_1   0.258393 0.133191 0.675950 -0.000946
C7    C     C_1   0.668893 0.181219 0.864609 0.002363
C8    C     C_1   0.633394 0.137189 0.736721 -0.029196
C9    C     C_1   0.648185 0.161217 0.806361 -0.027242
C10   C     C_1   0.624909 0.115163 0.676973 -0.003284
C11   C     C_R   0.678252 0.631266 0.200290 0.018096
C12   C     C_R   0.612486 0.746030 0.598661 0.534161
C13   C     C_R   0.582799 0.616966 0.236763 0.019638
C14   C     C_R   0.575748 0.626994 0.306427 0.017357
C15   C     C_R   0.778978 0.638460 0.307904 -0.170501
C16   C     C_R   0.784082 0.630054 0.236419 -0.165521
C17   C     C_3   0.434939 0.687583 0.227296 -0.243003
C18   C     C_3   0.424844 0.698221 0.304249 -0.252375
C19   C     C_R   0.664572 0.654802 0.342117 0.019700
C20   C     C_R   0.158872 0.181399 0.188065 0.023983
C21   C     C_R   0.217906 0.247544 0.219807 -0.025363
C22   C     C_R   0.242386 0.234368 0.288624 0.023826
C23   C     C_R   0.297779 0.120292 0.605384 0.536714
C24   C     C_R   0.176458 0.067730 0.295955 -0.141846
C25   C     C_R   0.152955 0.078111 0.225447 0.196506
C26   C     C_3   0.184583 0.391160 0.220945 -0.265214
C27   C     C_3   0.209393 0.376847 0.297402 -0.251736
C28   C     C_R   0.210911 0.154157 0.328898 -0.024337
C29   C     C_R   0.678180 0.190667 0.196255 0.009407
C30   C     C_R   0.771300 0.070826 0.226670 0.096713
C31   C     C_R   0.769284 0.051955 0.295532 0.044167
C32   C     C_R   0.584712 0.278858 0.309143 -0.159304
C33   C     C_R   0.588189 0.298025 0.238558 -0.162574
C34   C     C_R   0.645731 0.113242 0.403126 0.556454
C35   C     C_3   0.803838 0.931334 0.208868 -0.268680
C36   C     C_3   0.801401 0.909943 0.284885 -0.266556
C37   C     C_R   0.671612 0.152089 0.337312 0.010950
C38   C     C_R   0.084552 0.229534 0.929314 0.543590
C39   C     C_R   0.683769 0.604688 0.929582 0.547117
C40   C     C_R   0.707146 0.205238 0.930831 0.541276
C41   C     C_R   0.084851 0.233766 0.124764 0.564253
C42   C     C_R   0.685718 0.605522 0.127754 0.543819
C43   C     C_R   0.708060 0.211590 0.127089 0.543601
C44   C     C_R   0.619380 0.733503 0.404446 0.546039
C45   C     C_R   0.247453 0.139333 0.400319 0.559373
C46   C     C_1   0.670016 0.647180 0.860282 0.005808
C47   C     C_1   0.654444 0.684493 0.728573 -0.030399
C48   C     C_1   0.663017 0.667586 0.799849 -0.029715
Cr1   Cr    Cr6+3 0.404720 0.198220 0.499960 1.024825
Cr2   Cr    Cr6+3 0.698290 0.897110 0.500380 1.021386
Cr3   Cr    Cr6+3 0.396970 0.904720 0.499610 1.024271
Cr4   Cr    Cr6+3 0.926290 0.152010 0.028150 1.089703
Cr5   Cr    Cr6+3 0.921440 0.451830 0.027490 1.028577
Cr6   Cr    Cr6+3 0.626370 0.446880 0.028730 1.035683
H1    H     H_    0.854525 0.650091 0.334911 0.124317
H2    H     H_    0.259747 0.405581 0.192530 0.141008
H3    H     H_    0.297403 0.384944 0.313103 0.142784
H4    H     H_    0.117070 0.438054 0.328458 0.141111
H5    H     H_    0.510421 0.359985 0.340742 0.122748
H6    H     H_    0.520546 0.395018 0.217143 0.129964
H7    H     H_    0.905217 0.870554 0.185714 0.193808
H8    H     H_    0.721824 0.928099 0.180564 0.121551
H9    H     H_    0.716712 0.896102 0.300612 0.153018
H10   H     H_    0.901150 0.836258 0.305796 0.150575
H11   H     H_    0.865422 0.630809 0.209563 0.126686
H12   H     H_    0.398819 0.622488 0.205079 0.153552
H13   H     H_    0.396606 0.786153 0.201866 0.184459
H14   H     H_    0.375067 0.804319 0.321844 0.174321
H15   H     H_    0.384626 0.637371 0.326932 0.132209
H16   H     H_    0.162929 0.995885 0.325153 0.153161
H17   H     H_    0.078891 0.463024 0.208336 0.157076
O1    O     O_R   0.267750 0.231960 0.575440 -0.499144
O2    O     O_R   0.685950 0.784660 0.430010 -0.507383
O3    O     O_R   0.502510 0.767000 0.423980 -0.522054
O4    O     O_R   0.288320 0.026340 0.429250 -0.501917
O5    O     O_3   0.499990 0.000020 0.499980 -0.291998
O6    O     O_R   0.821590 0.119350 0.952850 -0.505003
O7    O     O_R   0.037230 0.162540 0.957390 -0.492307
O8    O     O_R   0.056530 0.344750 0.951370 -0.505192
O9    O     O_R   0.798000 0.560370 0.957490 -0.492813
O10   O     O_R   0.596230 0.579400 0.952760 -0.500335
O11   O     O_R   0.639160 0.321170 0.958690 -0.494744
O12   O     O_R   0.527290 0.186640 0.570530 -0.498547
O13   O     O_R   0.821370 0.124220 0.104400 -0.469334
O14   O     O_R   0.037020 0.167050 0.097880 -0.435156
O15   O     O_R   0.056310 0.349620 0.102920 -0.532691
O16   O     O_R   0.797790 0.564880 0.097980 -0.508577
O17   O     O_R   0.596000 0.584270 0.104310 -0.512405
O18   O     O_R   0.638950 0.325690 0.099180 -0.513103
O19   O     O_3   0.824700 0.350240 0.028120 -0.263088
O20   O     O_R   0.728110 0.003450 0.576380 -0.488494
O21   O     O_R   0.682980 0.789190 0.570500 -0.510028
O22   O     O_R   0.499300 0.771880 0.575540 -0.507215
O23   O     O_R   0.285350 0.030870 0.569740 -0.480663
O24   O     O_R   0.270960 0.227070 0.423890 -0.508635
O25   O     O_R   0.530270 0.182120 0.430040 -0.501127
O26   O     O_R   0.731320 0.998570 0.424830 -0.508736
Cl1   Cl    Cl    0.107684 0.965011 0.189885 -0.652855

loop_
_geom_bond_atom_site_label_1
_geom_bond_atom_site_label_2
_ccdc_geom_bond_type
C21   C26   S    
C43   O13   A    
C34   C37   S    
C14   C18   S    
Cr4   O19   S    
C35   C36   S    
Cr3   O3    S    
C2    C12   S    
C20   C41   S    
C24   H16   S    
C15   C19   A    
C41   O15   A    
C26   C27   S    
C43   O18   A    
C30   C35   S    
Cr4   O14   S    
Cr5   O8    S    
C34   O25   A    
Cr6   O19   S    
C30   C31   A    
C20   C25   A    
C18   H14   S    
C15   C16   A    
C29   C33   A    
C34   O26   A    
C11   C42   S    
Cr4   O13   S    
C3    C38   S    
C8    C9    S    
Cr1   O1    S    
C7    C40   S    
Cr5   O15   S    
C36   H9    S    
C18   H15   S    
C1    O20   A    
C22   C28   A    
C13   C14   A    
C29   C43   S    
C26   H17   S    
Cr4   O7    S    
C14   C19   A    
C46   C48   T    
C28   C45   S    
C17   H13   S    
C40   O11   A    
Cr5   O9    S    
C24   C25   A    
C39   O10   A    
Cr6   O18   S    
C4    C6    T    
C27   H3    S    
Cr2   O2    S    
C38   O7    A    
Cr1   O24   S    
C31   C37   A    
C15   H1    S    
C29   C30   A    
Cr2   O5    S    
C11   C16   A    
C25   Cl1   S    
C47   C48   S    
C17   C18   S    
C17   H12   S    
Cr1   O5    S    
Cr5   O16   S    
C32   C37   A    
Cr3   O5    S    
C44   O3    A    
Cr3   O22   S    
C39   C46   S    
Cr2   O21   S    
C33   H6    S    
C22   C27   S    
C12   O22   A    
C42   O17   A    
Cr4   O6    S    
C45   O24   A    
Cr6   O11   S    
C19   C44   S    
C7    C9    T    
Cr2   O26   S    
C31   C36   S    
C23   O1    A    
C12   O21   A    
C1    C10   S    
C24   C28   A    
Cr3   O4    S    
C4    C5    S    
C3    C5    T    
C27   H4    S    
C26   H2    S    
C42   O16   A    
C2    C47   T    
C1    O12   A    
C41   O14   A    
C23   O23   A    
C13   C17   S    
C45   O4    A    
C32   C33   A    
Cr1   O12   S    
C36   H10   S    
C39   O9    A    
Cr6   O17   S    
C11   C13   A    
C35   H7    S    
C6    C23   S    
C35   H8    S    
Cr1   O25   S    
C44   O2    A    
Cr3   O23   S    
Cr2   O20   S    
C20   C21   A    
C8    C10   T    
C38   O8    A    
Cr5   O19   S    
C40   O6    A    
C16   H11   S    
C32   H5    S    
C21   C22   A    
Cr6   O10   S    
