data_mof_unit_38915.cif
_audit_creation_date              2012-12-10T20:32:45-0500
_audit_creation_method            fapswitch 2.2
_symmetry_space_group_name_H-M    P1
_symmetry_Int_Tables_number       1
_space_group_crystal_system       triclinic
_cell_length_a                    11.527393
_cell_length_b                    10.734352
_cell_length_c                    9.898812
_cell_angle_alpha                 89.198854
_cell_angle_beta                  90.939642
_cell_angle_gamma                 89.162499
_cell_volume                      1224.45057383

loop_
_atom_site_label
_atom_site_type_symbol
_atom_type_description
_atom_site_fract_x
_atom_site_fract_y
_atom_site_fract_z
_atom_type_partial_charge
C1    C     C_R   0.489598 0.260977 0.500487 0.926527
C2    C     C_R   0.586618 0.441972 0.075679 -0.013950
C3    C     C_R   0.588520 0.443679 0.932616 0.125604
C4    C     C_R   0.282010 0.499776 0.499180 0.966886
C5    C     C_R   0.417285 0.563382 0.925886 0.194146
C6    C     C_3   0.289695 0.542137 0.920824 -0.265010
C7    C     C_3   0.290058 0.560383 0.074800 0.109129
C8    C     C_R   0.500967 0.739972 0.499364 0.934852
C9    C     C_R   0.718016 0.499791 0.500911 0.897274
C10   C     C_1   0.161559 0.499372 0.497908 -0.089499
C11   C     C_1   0.059373 0.499267 0.499013 0.035488
C12   C     C_R   0.475634 0.129038 0.501856 -0.160937
C13   C     C_1   0.940745 0.499374 0.501341 0.030231
C14   C     C_1   0.838524 0.499562 0.502373 -0.147753
C15   C     C_R   0.514684 0.064292 0.617186 -0.145192
C16   C     C_R   0.440980 0.064261 0.384972 0.378426
C17   C     C_R   0.459005 0.936437 0.382422 -0.172916
C18   C     C_R   0.501180 0.872566 0.497742 -0.178811
C19   C     C_R   0.531609 0.937068 0.614312 0.000627
C20   C     C_3   0.488635 0.916783 0.755028 0.270017
C21   C     C_3   0.458580 0.055840 0.754138 0.381879
C22   C     C_R   0.419545 0.567974 0.068085 0.159556
H1    H     H_    0.268755 0.445317 0.891166 0.217884
H2    H     H_    0.604721 0.137028 0.837338 0.204701
H3    H     H_    0.481509 0.217114 0.860269 0.226457
H4    H     H_    0.741211 0.457830 0.838589 0.241260
H5    H     H_    0.658663 0.336096 0.787443 0.218452
H6    H     H_    0.139204 0.634860 0.861950 0.258043
H7    H     H_    0.259841 0.723939 0.847345 0.269015
H8    H     H_    0.260277 0.477051 0.131514 0.158368
H9    H     H_    0.432151 0.885808 0.293640 0.245848
H10   H     H_    0.412011 0.855425 0.759765 0.127492
H11   H     H_    0.655352 0.394612 0.132752 0.168224
H12   H     H_    0.230038 0.213643 0.379085 0.353445
H13   H     H_    0.052792 0.636947 0.141703 0.349703
H14   H     H_    0.618329 0.841188 0.086151 0.378530
H15   H     H_    0.159844 0.027871 0.623121 0.397722
N1    N     N_R   0.499240 0.499140 0.142800 -0.143938
N2    N     N_R   0.499240 0.499180 0.857150 -0.116060
N3    N     N_3   0.517173 0.127161 0.859841 -0.316517
N4    N     N_3   0.686375 0.387024 0.870319 -0.444742
N5    N     N_3   0.226726 0.634687 0.836387 -0.375926
O1    O     O_R   0.500010 0.316790 0.614690 -0.642146
O2    O     O_2   0.284115 0.041749 0.182178 -0.157569
O3    O     O_3   0.275824 0.251727 0.305877 -0.554449
O4    O     O_2   0.244234 0.715484 0.283390 -0.292400
O5    O     O_2   0.286461 0.812926 0.066720 -0.193145
O6    O     O_3   0.085172 0.711189 0.096212 -0.496125
O7    O     O_2   0.629063 0.730047 0.849773 -0.307262
O8    O     O_2   0.712939 0.937255 0.843577 -0.273940
O9    O     O_3   0.561523 0.888813 0.028911 -0.501078
O10   O     O_2   0.253648 0.046285 0.882247 -0.165839
O11   O     O_2   0.279199 0.220932 0.723850 -0.334141
O12   O     O_R   0.500000 0.316760 0.385350 -0.563424
O13   O     O_3   0.242546 0.001486 0.625076 -0.585825
O14   O     O_R   0.334450 0.500030 0.614670 -0.598899
O15   O     O_R   0.334440 0.500000 0.385330 -0.573479
O16   O     O_R   0.500000 0.683240 0.614650 -0.590912
O17   O     O_R   0.499990 0.683210 0.385310 -0.605511
O18   O     O_R   0.665560 0.500000 0.614670 -0.622928
O19   O     O_R   0.665550 0.499970 0.385330 -0.625920
O20   O     O_2   0.442764 0.186452 0.147382 -0.258193
S1    S     S_3+6 0.360384 0.135331 0.249474 0.098710
S2    S     S_3+6 0.227969 0.704726 0.133319 0.065808
S3    S     S_3+6 0.603923 0.866101 0.869232 0.045108
S4    S     S_3+6 0.303953 0.084676 0.749259 0.026934
Zn1   Zn    Zn3+2 0.500010 0.500020 0.653130 1.008553
Zn2   Zn    Zn3+2 0.499990 0.499980 0.346870 1.043542

loop_
_geom_bond_atom_site_label_1
_geom_bond_atom_site_label_2
_ccdc_geom_bond_type
C4    O15   A    
C22   N1    A    
C1    O12   A    
O18   Zn1   S    
C6    C7    S    
C16   S1    S    
O17   Zn2   S    
O14   Zn1   S    
H7    N5    S    
H5    N4    S    
C19   C20   S    
C12   C15   A    
C9    C14   S    
C9    O18   A    
O10   S4    D    
C2    C3    A    
C3    N2    A    
H3    N3    S    
C7    H8    S    
O3    S1    S    
C13   C14   T    
C4    O14   A    
O9    S3    S    
C15   C19   A    
O11   S4    D    
C11   C13   S    
O19   Zn2   S    
O20   S1    D    
H14   O9    S    
O7    S3    D    
C9    O19   A    
H13   O6    S    
C2    H11   S    
H6    N5    S    
C20   S3    S    
H2    N3    S    
N1    Zn2   S    
C17   C18   A    
C5    N2    A    
C8    O17   A    
C6    N5    S    
C5    C6    S    
C17   H9    S    
O8    S3    D    
C8    C18   S    
C7    S2    S    
O6    S2    S    
O12   Zn2   S    
C10   C11   T    
C6    H1    S    
O15   Zn2   S    
C4    C10   S    
C7    C22   S    
O16   Zn1   S    
C15   C21   S    
O13   S4    S    
H15   O13   S    
C20   C21   S    
C3    N4    S    
O1    Zn1   S    
O2    S1    D    
C20   H10   S    
O5    S2    D    
H12   O3    S    
C2    N1    A    
C18   C19   A    
C8    O16   A    
N2    Zn1   S    
C1    O1    A    
C1    C12   S    
C5    C22   A    
C12   C16   A    
H4    N4    S    
O4    S2    D    
C16   C17   A    
C21   S4    S    
C21   N3    S    
