data_mof_unit_31992.cif
_audit_creation_date              2013-03-05T16:06:21-0500
_audit_creation_method            fapswitch 2.2
_symmetry_space_group_name_H-M    P1
_symmetry_Int_Tables_number       1
_space_group_crystal_system       triclinic
_cell_length_a                    10.803052
_cell_length_b                    9.623386
_cell_length_c                    27.849465
_cell_angle_alpha                 89.684358
_cell_angle_beta                  93.07898
_cell_angle_gamma                 90.015183
_cell_volume                      2891.06101133

loop_
_atom_site_label
_atom_site_type_symbol
_atom_site_description
_atom_site_fract_x
_atom_site_fract_y
_atom_site_fract_z
_atom_type_partial_charge
O1    O     O_R   0.319640 0.618740 0.500000 -0.581393
O2    O     O_R   0.680360 0.381260 0.500000 -0.587096
O3    O     O_R   0.680360 0.618740 0.500000 -0.583299
O4    O     O_R   0.319640 0.381260 0.500000 -0.587430
C1    C     C_R   0.262379 0.499997 0.499791 0.759919
C2    C     C_R   0.737565 0.500027 0.499823 0.759917
O5    O     O_R   0.500020 0.618770 0.430260 -0.561855
O6    O     O_R   0.499980 0.381230 0.569740 -0.567066
O7    O     O_R   0.499980 0.618770 0.569740 -0.562941
O8    O     O_R   0.500020 0.381230 0.430260 -0.565428
C3    C     C_R   0.499966 0.500697 0.407537 0.870949
C4    C     C_R   0.500570 0.499764 0.592429 0.875819
Cu1   Cu    Cu3+1 0.500000 0.640660 0.500000 0.968171
Cu2   Cu    Cu3+1 0.500000 0.359340 0.500000 0.969067
C5    C     C_R   0.389085 0.523447 0.175981 0.631157
C6    C     C_R   0.606583 0.511230 0.824079 0.633761
O9    O     O_2   0.283647 0.523446 0.199848 -0.460911
O10   O     O_2   0.711099 0.532905 0.800658 -0.463650
N1    N     N_R   0.500572 0.519900 0.201652 -0.435799
N2    N     N_R   0.496644 0.496318 0.798061 -0.436427
C7    C     C_R   0.609961 0.525077 0.179320 0.629306
C8    C     C_R   0.388033 0.475244 0.819899 0.636601
C9    C     C_R   0.552641 0.626236 0.280452 0.384651
C10   C     C_R   0.438169 0.607513 0.720168 0.382554
C11   C     C_R   0.557484 0.618188 0.331209 0.234684
C12   C     C_R   0.435705 0.605539 0.669313 0.235573
C13   C     C_R   0.445623 0.397382 0.326524 0.412764
C14   C     C_R   0.562693 0.395081 0.672676 0.410681
C15   C     C_R   0.452577 0.400355 0.276435 -0.299946
C16   C     C_R   0.555136 0.391969 0.722665 -0.296098
C17   C     C_R   0.502930 0.514898 0.253373 0.196515
C18   C     C_R   0.495927 0.498379 0.746410 0.200119
C19   C     C_R   0.496895 0.531380 0.101567 -0.181705
C20   C     C_R   0.498071 0.496082 0.898170 -0.181787
C21   C     C_R   0.384316 0.527198 0.125142 -0.117053
C22   C     C_R   0.610805 0.504747 0.874777 -0.118518
C23   C     C_R   0.270811 0.532937 0.097657 0.363584
C24   C     C_R   0.724369 0.501124 0.902215 0.366590
C25   C     C_R   0.610376 0.541782 0.129099 -0.112496
C26   C     C_R   0.384939 0.480459 0.870463 -0.098174
C27   C     C_R   0.502220 0.504206 0.354434 -0.270399
C28   C     C_R   0.499204 0.499612 0.645478 -0.268147
H1    H     H_    0.415685 0.314668 0.255059 0.182839
H2    H     H_    0.597777 0.307577 0.743456 0.182617
C29   C     C_R   0.384651 0.496509 0.972378 0.024307
C30   C     C_R   0.610532 0.529471 0.027488 0.020027
C31   C     C_R   0.612296 0.511034 0.976782 -0.075720
C32   C     C_R   0.382713 0.516807 0.023030 -0.073360
C33   C     C_R   0.498386 0.502657 0.949225 0.016784
C34   C     C_R   0.496571 0.524827 0.050558 0.014431
C35   C     C_R   0.276733 0.462466 0.944243 -0.175637
C36   C     C_R   0.718476 0.564030 0.055617 -0.164776
C37   C     C_R   0.273914 0.462879 0.894408 0.386735
C38   C     C_R   0.720143 0.569332 0.105402 0.400275
O11   O     O_2   0.284489 0.447041 0.792456 -0.497580
O12   O     O_2   0.717571 0.509613 0.205724 -0.495958
C39   C     C_R   0.270994 0.538799 0.047033 0.276064
C40   C     C_R   0.724202 0.491835 0.952718 0.276350
H3    H     H_    0.191781 0.433084 0.960033 0.219590
H4    H     H_    0.802375 0.596665 0.039670 0.216158
C41   C     C_R   0.063960 0.373652 0.500184 -0.172750
C42   C     C_R   0.935953 0.626192 0.498941 -0.184064
C43   C     C_R   0.936031 0.373669 0.500120 -0.174682
C44   C     C_R   0.063743 0.626155 0.498451 -0.184634
H5    H     H_    0.112075 0.274887 0.500851 0.197022
H6    H     H_    0.888001 0.724967 0.498774 0.193279
H7    H     H_    0.888034 0.274906 0.500668 0.197753
H8    H     H_    0.111584 0.724914 0.497529 0.194894
C45   C     C_R   0.871546 0.499983 0.499592 -0.030738
C46   C     C_R   0.128328 0.499940 0.499451 -0.029843
C47   C     C_R   0.406073 0.073500 0.476607 0.426210
C48   C     C_R   0.593764 0.926178 0.523527 0.418228
C49   C     C_R   0.593884 0.072895 0.523427 0.424680
C50   C     C_R   0.406346 0.926800 0.476423 0.424621
N3    N     N_R   0.500000 0.852070 0.500000 -0.327112
N4    N     N_R   0.500000 0.147930 0.500000 -0.332121
O13   O     O_3   0.386828 0.288288 0.348720 -0.570397
C51   C     C_3   0.257699 0.290054 0.336374 0.096224
H9    H     H_    0.218447 0.190052 0.348571 0.202681
H10   H     H_    0.236284 0.295587 0.296888 0.162314
C52   C     C_3   0.191522 0.407503 0.361551 -0.814198
H11   H     H_    0.220432 0.510194 0.347618 0.241755
H12   H     H_    0.089740 0.396973 0.354739 0.228362
H13   H     H_    0.213219 0.402900 0.400878 0.240380
O14   O     O_3   0.627464 0.292582 0.649863 -0.571284
C53   C     C_3   0.756319 0.303365 0.661960 0.096068
H14   H     H_    0.800567 0.204926 0.651278 0.201010
H15   H     H_    0.778198 0.314346 0.701254 0.163224
C54   C     C_3   0.815444 0.422123 0.634618 -0.818365
H16   H     H_    0.779424 0.523908 0.646219 0.240530
H17   H     H_    0.917531 0.420548 0.641842 0.226030
H18   H     H_    0.794909 0.410077 0.595484 0.242583
O15   O     O_3   0.309115 0.137451 0.451424 -0.687829
H19   H     H_    0.340963 0.223725 0.437890 0.384806
O16   O     O_3   0.690452 0.861906 0.548928 -0.687357
H20   H     H_    0.658436 0.776648 0.563304 0.366433
O17   O     O_3   0.690518 0.136200 0.548796 -0.684513
H21   H     H_    0.658663 0.222412 0.562074 0.387923
O18   O     O_3   0.310155 0.863177 0.450769 -0.688774
H22   H     H_    0.342544 0.778292 0.436575 0.367034
O19   O     O_3   0.160687 0.539500 0.120809 -0.638271
H23   H     H_    0.089242 0.526799 0.097461 0.376615
O20   O     O_3   0.834512 0.496549 0.879020 -0.649707
H24   H     H_    0.905744 0.510187 0.902400 0.370445
O21   O     O_3   0.375161 0.710141 0.643102 -0.557778
C55   C     C_3   0.251437 0.668378 0.632450 0.076628
H25   H     H_    0.203219 0.643689 0.665867 0.160719
H26   H     H_    0.248027 0.575791 0.608584 0.134216
C56   C     C_3   0.181887 0.786459 0.606470 -0.723204
H27   H     H_    0.227818 0.813934 0.572954 0.259238
H28   H     H_    0.084836 0.754311 0.597180 0.207969
H29   H     H_    0.180829 0.879281 0.629970 0.248482
O22   O     O_3   0.610688 0.725569 0.357945 -0.558371
C57   C     C_3   0.737192 0.694667 0.368053 0.082778
H30   H     H_    0.786715 0.681203 0.334283 0.162429
H31   H     H_    0.748138 0.598589 0.390397 0.134268
C58   C     C_3   0.797313 0.814497 0.396001 -0.726308
H32   H     H_    0.750002 0.830532 0.429988 0.259835
H33   H     H_    0.896684 0.791088 0.404665 0.205747
H34   H     H_    0.790371 0.911383 0.374149 0.247501
O23   O     O_3   0.384970 0.713350 0.745369 -0.701965
H35   H     H_    0.353515 0.786524 0.722776 0.361934
O24   O     O_3   0.595371 0.740773 0.256099 -0.706788
H36   H     H_    0.621535 0.814128 0.279250 0.361688
O25   O     O_3   0.160355 0.444896 0.870504 -0.674052
H37   H     H_    0.146725 0.527836 0.849608 0.365004
O26   O     O_3   0.829594 0.609100 0.129147 -0.678643
H38   H     H_    0.808753 0.673959 0.155020 0.364952
O27   O     O_3   0.161802 0.575551 0.021913 -0.602078
C59   C     C_3   0.162909 0.720158 0.013096 0.071731
H39   H     H_    0.245194 0.751504 0.993098 0.147805
H40   H     H_    0.162846 0.778522 0.047531 0.165041
C60   C     C_3   0.047211 0.759687 0.982562 -0.717947
H41   H     H_    0.963085 0.732909 0.001840 0.254895
H42   H     H_    0.047203 0.873191 0.975143 0.192796
H43   H     H_    0.045126 0.703038 0.947881 0.256062
O28   O     O_3   0.833629 0.454520 0.977588 -0.601252
C61   C     C_3   0.832785 0.309612 0.985811 0.074627
H44   H     H_    0.832273 0.252439 0.951123 0.163991
H45   H     H_    0.750905 0.277428 0.005900 0.148139
C62   C     C_3   0.948968 0.269166 0.015897 -0.709207
H46   H     H_    0.952109 0.325330 0.050685 0.263744
H47   H     H_    0.948730 0.155563 0.023116 0.189853
H48   H     H_    0.032682 0.295806 0.996360 0.253144

loop_
_geom_bond_atom_site_label_1
_geom_bond_atom_site_label_2
_geom_bond_distance
_ccdc_geom_bond_type
C41   C46   1.400626 A    
C2    C45   1.447758 S    
C16   C18   1.395815 A    
O19   H23   0.990129 S    
C13   C15   1.401156 A    
O16   H20   0.981937 S    
O3    C2    1.299163 A    
N1    C17   1.439776 S    
C57   H30   1.114853 S    
C61   H44   1.114109 S    
C32   C39   1.427104 A    
C31   C33   1.417382 A    
O13   C51   1.418774 S    
C5    N1    1.367523 A    
C19   C25   1.414454 A    
O1    C1    1.299149 A    
C44   H8    1.082557 S    
C39   O27   1.383768 S    
N1    C7    1.365418 A    
C10   C12   1.415337 A    
O27   C59   1.411929 S    
C62   H47   1.110526 S    
C47   N4    1.378700 A    
C53   H15   1.112675 S    
C1    C46   1.447688 S    
C25   C38   1.412076 A    
C55   H25   1.115110 S    
C29   C35   1.408884 A    
C30   C36   1.410216 A    
C14   C28   1.411470 A    
C41   C43   1.381922 A    
O7    Cu1   1.952470 S    
C42   C44   1.381318 A    
C36   H4    1.076530 S    
C56   H28   1.110610 S    
C24   C40   1.408934 A    
C48   O16   1.374822 S    
C62   H46   1.110919 S    
Cu1   N3    2.034480 S    
C60   H43   1.110875 S    
C4    C28   1.478237 S    
C44   C46   1.400305 A    
C54   H17   1.110459 S    
O3    Cu1   1.959880 S    
C6    N2    1.365584 A    
C32   C34   1.416308 A    
O28   C61   1.412051 S    
Cu1   Cu2   2.707251 S    
C15   H1    1.083020 S    
C16   H2    1.083241 S    
O2    C2    1.299288 A    
C48   N3    1.377479 A    
C12   O21   1.383802 S    
C5    C21   1.414292 A    
C52   H12   1.110410 S    
C36   C38   1.386841 A    
O17   H21   0.980158 S    
C43   H7    1.082983 S    
C50   N3    1.376872 A    
C42   H6    1.082538 S    
C43   C45   1.400811 A    
O24   H36   0.989559 S    
O8    Cu2   1.952470 S    
C56   H29   1.110696 S    
C11   C27   1.418191 A    
C51   H9    1.110403 S    
O4    C1    1.299327 A    
C9    O24   1.383157 S    
C19   C34   1.422116 A    
O14   C53   1.418428 S    
C53   C54   1.528469 S    
C52   H11   1.110554 S    
C42   C45   1.400097 A    
C35   C37   1.386557 A    
C9    C17   1.403650 A    
C59   H40   1.114060 S    
C10   C18   1.403335 A    
C24   O20   1.384892 S    
C11   O22   1.383763 S    
C47   C50   1.411788 A    
C13   C27   1.411440 A    
O5    C3    1.303623 A    
O18   H22   0.982122 S    
C7    C25   1.407198 A    
C29   C33   1.419011 A    
O6    C4    1.306910 A    
C8    C26   1.411539 A    
C38   O26   1.378554 S    
O15   H19   0.979836 S    
C54   H18   1.107185 S    
C51   H10   1.112489 S    
O23   H35   0.989713 S    
C8    O11   1.348813 S    
C37   O25   1.375331 S    
C47   O15   1.372753 S    
C40   O28   1.384073 S    
N2    C8    1.364871 A    
C49   O17   1.373059 S    
C60   H41   1.109672 S    
C49   N4    1.378348 A    
C20   C26   1.418299 A    
C62   H48   1.109435 S    
C59   C60   1.520720 S    
O1    Cu1   1.959768 S    
O26   H38   0.990922 S    
O20   H24   0.990157 S    
C52   H13   1.108326 S    
C12   C28   1.416704 A    
O22   C57   1.411845 S    
N2    C18   1.438088 S    
C29   C32   1.426432 A    
C5    O9    1.349286 S    
C30   C31   1.425347 A    
C20   C33   1.423426 A    
O6    Cu2   1.954777 S    
C21   C23   1.411104 A    
C53   H14   1.110418 S    
C48   C49   1.411904 A    
C13   O13   1.386509 S    
C61   C62   1.520714 S    
C7    O12   1.349579 S    
C57   H31   1.114415 S    
C50   O18   1.374723 S    
C61   H45   1.114663 S    
O21   C55   1.412246 S    
C30   C34   1.419547 A    
C58   H33   1.110452 S    
C59   H39   1.114710 S    
C14   C16   1.399074 A    
C15   C17   1.397455 A    
C58   H32   1.111104 S    
C6    C22   1.411212 A    
C31   C40   1.425931 A    
C23   O19   1.384894 S    
C51   C52   1.530760 S    
O25   H37   0.991540 S    
C55   H26   1.113948 S    
C22   C24   1.410408 A    
C10   O23   1.382661 S    
C19   C21   1.413257 A    
C58   H34   1.110928 S    
C3    C27   1.480608 S    
C20   C22   1.413924 A    
C9    C11   1.413409 A    
O4    Cu2   1.959880 S    
O2    Cu2   1.959768 S    
O7    C4    1.304802 A    
C57   C58   1.520734 S    
O8    C3    1.309267 A    
C41   H5    1.083019 S    
O5    Cu1   1.954777 S    
C35   H3    1.075843 S    
C6    O10   1.349559 S    
C26   C37   1.412969 A    
C14   O14   1.386095 S    
C60   H42   1.110536 S    
C54   H16   1.110154 S    
C56   H27   1.110991 S    
C23   C39   1.410790 A    
Cu2   N4    2.034481 S    
C55   C56   1.520630 S    
