data_mof_unit_6592.cif
_audit_creation_date              2012-12-10T16:41:53-0500
_audit_creation_method            fapswitch 2.2
_symmetry_space_group_name_H-M    P1
_symmetry_Int_Tables_number       1
_space_group_crystal_system       triclinic
_cell_length_a                    10.844145
_cell_length_b                    8.701846
_cell_length_c                    7.572676
_cell_angle_alpha                 103.175142
_cell_angle_beta                  96.701035
_cell_angle_gamma                 94.508174
_cell_volume                      686.924897412

loop_
_atom_site_label
_atom_site_type_symbol
_atom_type_description
_atom_site_fract_x
_atom_site_fract_y
_atom_site_fract_z
_atom_type_partial_charge
C1    C     C_R   0.488564 0.199621 0.452828 0.784082
C2    C     C_2   0.499060 0.967441 0.568093 -0.356629
C3    C     C_R   0.265684 0.501266 0.497643 0.727414
C4    C     C_R   0.498860 0.799343 0.546079 0.902542
C5    C     C_R   0.732867 0.485592 0.499840 0.891864
C6    C     C_2   0.917595 0.385185 0.362095 0.044837
C7    C     C_2   0.862027 0.451591 0.506459 -0.278997
C8    C     C_2   0.053581 0.377341 0.395055 -0.132226
C9    C     C_2   0.132657 0.508962 0.484914 -0.217966
C10   C     C_2   0.460749 0.031116 0.427561 -0.203861
Cu1   Cu    Cu3+1 0.513740 0.517380 0.684380 0.997780
Cu2   Cu    Cu3+1 0.486260 0.482620 0.315620 1.033046
N1    N     N_2   0.465540 0.456420 0.038510 -0.191888
N2    N     N_2   0.534460 0.543580 0.961490 -0.214854
O1    O     O_R   0.508930 0.286130 0.619780 -0.626393
O2    O     O_R   0.485720 0.256780 0.308360 -0.545321
O3    O     O_R   0.333540 0.514670 0.655670 -0.634651
O4    O     O_R   0.310330 0.485320 0.344250 -0.516909
O5    O     O_R   0.514280 0.743220 0.691640 -0.553563
O6    O     O_R   0.491070 0.713870 0.380220 -0.599693
O7    O     O_R   0.689670 0.514680 0.655750 -0.549719
O8    O     O_R   0.666460 0.485330 0.344330 -0.596137
C11   C     C_2   0.851511 0.314381 0.174191 0.511181
H1    H     H_    0.899271 0.320435 0.057350 0.069779
O9    O     O_2   0.748591 0.238920 0.148443 -0.522023
H2    H     H_    0.916897 0.484612 0.641923 0.147853
C12   C     C_2   0.100209 0.218398 0.337526 0.444155
H3    H     H_    0.199005 0.204707 0.357513 0.069357
O10   O     O_2   0.027706 0.099277 0.269699 -0.478015
C13   C     C_2   0.096610 0.673382 0.535239 0.451815
H4    H     H_    0.154330 0.761101 0.644930 0.081226
O11   O     O_2   0.008816 0.715520 0.448485 -0.500409
C14   C     C_2   0.381372 0.943092 0.254090 0.425963
H5    H     H_    0.393009 0.975624 0.126454 0.109716
O12   O     O_2   0.297372 0.841098 0.254461 -0.505612
H6    H     H_    0.544463 0.041204 0.698956 0.183481
C15   C     C_2   0.370429 0.337987 0.933847 0.650141
H7    H     H_    0.351311 0.309064 0.788264 0.067486
O13   O     O_2   0.305493 0.262459 0.012457 -0.585379
C16   C     C_2   0.629393 0.662194 0.066248 0.653724
H8    H     H_    0.648703 0.690740 0.211796 0.080345
O14   O     O_2   0.693914 0.738355 0.987763 -0.517547

loop_
_geom_bond_atom_site_label_1
_geom_bond_atom_site_label_2
_ccdc_geom_bond_type
C2    C4    S    
C11   H1    S    
C6    C7    D    
C3    C9    S    
C4    O6    A    
C12   O10   D    
N1    C15   S    
Cu1   Cu2   S    
Cu2   O6    S    
C16   O14   D    
C14   H5    S    
C15   O13   D    
C1    O2    A    
N1    N2    D    
C13   O11   D    
Cu1   O5    S    
C15   H7    S    
C7    H2    S    
C9    C13   S    
C1    O1    A    
C6    C11   S    
C16   H8    S    
C14   O12   D    
C3    O3    A    
C10   C14   S    
C11   O9    D    
C13   H4    S    
Cu1   N2    S    
C1    C10   S    
N2    C16   S    
C2    C10   D    
Cu2   O8    S    
C5    O7    A    
Cu2   N1    S    
C3    O4    A    
C2    H6    S    
C12   H3    S    
C5    C7    S    
C8    C12   S    
Cu1   O3    S    
C6    C8    S    
C4    O5    A    
Cu1   O1    S    
Cu1   O7    S    
C5    O8    A    
Cu2   O2    S    
C8    C9    D    
Cu2   O4    S    
