data_mof_unit_44922.cif
_audit_creation_date              2012-12-10T20:28:39-0500
_audit_creation_method            fapswitch 2.2
_symmetry_space_group_name_H-M    P1
_symmetry_Int_Tables_number       1
_space_group_crystal_system       triclinic
_cell_length_a                    10.766543
_cell_length_b                    10.778899
_cell_length_c                    9.875782
_cell_angle_alpha                 88.944289
_cell_angle_beta                  91.897191
_cell_angle_gamma                 92.077836
_cell_volume                      1144.54748646

loop_
_atom_site_label
_atom_site_type_symbol
_atom_type_description
_atom_site_fract_x
_atom_site_fract_y
_atom_site_fract_z
_atom_type_partial_charge
C1    C     C_R   0.503619 0.259977 0.500746 0.864159
C2    C     C_R   0.069078 0.550848 0.616769 0.070748
C3    C     C_R   0.128450 0.532056 0.493895 -0.199454
C4    C     C_R   0.057090 0.508902 0.374673 0.274414
C5    C     C_R   0.931333 0.488328 0.382601 -0.244397
C6    C     C_R   0.874403 0.487196 0.507613 -0.190640
C7    C     C_R   0.442799 0.058386 0.598059 0.099566
C8    C     C_R   0.505753 0.127177 0.498713 -0.176340
C9    C     C_R   0.554089 0.066609 0.385996 0.205074
C10   C     C_R   0.546126 0.937126 0.383910 -0.232589
C11   C     C_R   0.496411 0.870667 0.493318 -0.137279
C12   C     C_R   0.260974 0.513234 0.497584 0.904883
C13   C     C_R   0.441117 0.931458 0.596058 0.108692
C14   C     C_3   0.462284 0.917118 0.744826 -0.422661
C15   C     C_3   0.461490 0.056313 0.749309 -0.520867
C16   C     C_R   0.401958 0.448567 0.068367 0.250799
C17   C     C_R   0.587141 0.566980 0.074774 -0.179126
C18   C     C_R   0.586102 0.569096 0.931021 0.264220
C19   C     C_R   0.399753 0.452929 0.926211 0.126141
C20   C     C_3   0.343985 0.326333 0.915769 -0.029307
C21   C     C_3   0.353961 0.316751 0.070357 -0.547040
C22   C     C_R   0.500951 0.739528 0.498553 0.908115
C23   C     C_R   0.740233 0.492030 0.502811 0.901334
C24   C     C_R   0.128566 0.611554 0.728299 -0.126206
C25   C     C_R   0.075192 0.606591 0.854667 -0.112768
C26   C     C_R   0.965626 0.536539 0.872426 -0.087989
C27   C     C_R   0.901793 0.485244 0.760416 -0.119723
C28   C     C_R   0.946332 0.506195 0.628621 0.102979
H1    H     H_    0.554878 0.881594 0.773024 0.260261
H2    H     H_    0.378104 0.082963 0.802076 0.207732
H3    H     H_    0.551458 0.100399 0.784914 0.214514
H4    H     H_    0.657683 0.620162 0.131440 0.180194
H5    H     H_    0.405949 0.267997 0.860419 0.172531
H6    H     H_    0.263682 0.303933 0.120750 0.242118
H7    H     H_    0.425778 0.251766 0.107435 0.216006
H8    H     H_    0.215630 0.663843 0.718106 0.145066
H9    H     H_    0.121652 0.652949 0.939331 0.181683
H10   H     H_    0.927423 0.525225 0.972023 0.183167
H11   H     H_    0.818451 0.429762 0.779215 0.164856
H12   H     H_    0.877821 0.474895 0.288770 0.197242
H13   H     H_    0.587192 0.887531 0.303315 0.182063
H14   H     H_    0.382147 0.869633 0.794825 0.196436
N1    N     N_R   0.499160 0.499140 0.142800 -0.121468
N2    N     N_R   0.499160 0.499180 0.857150 -0.154353
O1    O     O_R   0.500020 0.316790 0.614690 -0.629388
O2    O     O_R   0.500000 0.316760 0.385350 -0.599321
O3    O     O_R   0.316770 0.500020 0.614690 -0.613658
O4    O     O_R   0.316760 0.499980 0.385350 -0.561149
O5    O     O_R   0.500000 0.683240 0.614650 -0.591623
O6    O     O_R   0.499980 0.683210 0.385310 -0.624106
O7    O     O_R   0.683240 0.500020 0.614650 -0.592772
O8    O     O_R   0.683230 0.499980 0.385310 -0.635195
Zn1   Zn    Zn3+2 0.500010 0.500020 0.653130 0.974473
Zn2   Zn    Zn3+2 0.499990 0.499980 0.346870 0.982318
Br1   Br    Br    0.118931 0.514359 0.195047 -0.638471
Br2   Br    Br    0.700067 0.682655 0.846154 -0.560966
N3    N     N_2   0.216831 0.331173 0.861921 -0.252086
H15   H     H_    0.153362 0.365428 0.926235 0.269667
C29   C     C_3   0.170061 0.225438 0.785886 -0.757313
H16   H     H_    0.073889 0.242260 0.747547 0.235851
H17   H     H_    0.168463 0.140748 0.851702 0.234168
H18   H     H_    0.228357 0.212378 0.696947 0.249575
N4    N     N_2   0.619119 0.136106 0.283657 -0.283461
H19   H     H_    0.691713 0.192975 0.319115 0.228915
C30   C     C_3   0.636587 0.082380 0.152610 -0.791521
H20   H     H_    0.710307 0.012919 0.160328 0.247057
H21   H     H_    0.665959 0.156788 0.079993 0.235595
H22   H     H_    0.548041 0.038694 0.112727 0.250626

loop_
_geom_bond_atom_site_label_1
_geom_bond_atom_site_label_2
_ccdc_geom_bond_type
O7    Zn1   S    
C17   N1    A    
C15   H3    S    
C16   C21   S    
C21   H7    S    
C18   N2    A    
C1    C8    S    
C9    C10   A    
C11   C22   S    
C23   O7    A    
C19   C20   S    
C14   H14   S    
C22   O6    A    
C30   H22   S    
N4    C30   S    
O2    Zn2   S    
C7    C15   S    
C17   C18   A    
C23   O8    A    
O1    Zn1   S    
C29   H16   S    
C30   H20   S    
O6    Zn2   S    
C13   C14   S    
C24   C25   A    
C10   H13   S    
O4    Zn2   S    
C18   Br2   S    
C11   C13   A    
C16   N1    A    
C1    O1    A    
C26   C27   A    
C24   H8    S    
C12   O3    A    
O5    Zn1   S    
O3    Zn1   S    
C25   C26   A    
C12   O4    A    
O8    Zn2   S    
C2    C3    A    
N3    H15   S    
C16   C19   A    
C4    Br1   S    
C2    C24   A    
C5    C6    A    
C1    O2    A    
N3    C29   S    
C4    C5    A    
C29   H17   S    
C10   C11   A    
C20   H5    S    
C14   H1    S    
N4    H19   S    
C7    C13   A    
C19   N2    A    
C15   H2    S    
C7    C8    A    
C5    H12   S    
C22   O5    A    
C27   C28   A    
C20   N3    S    
C17   H4    S    
C14   C15   S    
C26   H10   S    
C29   H18   S    
C2    C28   A    
C21   H6    S    
N1    Zn2   S    
C25   H9    S    
C20   C21   S    
C6    C23   S    
C9    N4    S    
C3    C12   S    
N2    Zn1   S    
C6    C28   A    
C3    C4    A    
C27   H11   S    
C8    C9    A    
C30   H21   S    
