data_mof_unit_54889.cif
_audit_creation_date              2012-12-11T15:52:06-0500
_audit_creation_method            fapswitch 2.2
_symmetry_space_group_name_H-M    P1
_symmetry_Int_Tables_number       1
_space_group_crystal_system       triclinic
_cell_length_a                    8.275257
_cell_length_b                    19.033405
_cell_length_c                    18.938047
_cell_angle_alpha                 98.416586
_cell_angle_beta                  94.509564
_cell_angle_gamma                 91.729253
_cell_volume                      2938.97272856

loop_
_atom_site_label
_atom_site_type_symbol
_atom_type_description
_atom_site_fract_x
_atom_site_fract_y
_atom_site_fract_z
_atom_type_partial_charge
Ba1   Ba    Ba6+2 0.152000 0.534910 0.469330 1.693003
Ba2   Ba    Ba6+2 0.658180 0.465080 0.530610 1.730951
C1    C     C_3   0.331359 0.717713 0.210169 -0.268751
C2    C     C_3   0.359312 0.691393 0.281980 0.322630
C3    C     C_3   0.508629 0.682161 0.648182 0.268628
C4    C     C_3   0.519848 0.761866 0.674120 0.385752
C5    C     C_3   0.897866 0.268878 0.679792 0.381812
C6    C     C_3   0.884570 0.196950 0.705686 -0.325257
C7    C     C_3   0.412417 0.292981 0.717412 0.482135
C8    C     C_3   0.436940 0.259885 0.786886 0.303429
C9    C     C_R   0.927213 0.199910 0.479750 -0.062676
C10   C     C_R   0.982009 0.271556 0.476810 0.010391
C11   C     C_R   0.151289 0.189887 0.566656 -0.168409
C12   C     C_3   0.884416 0.730619 0.314757 0.346677
C13   C     C_R   0.222677 0.252415 0.550764 0.079939
C14   C     C_R   0.658926 0.815201 0.441454 -0.176343
C15   C     C_R   0.592332 0.748172 0.448156 0.039599
C16   C     C_R   0.866149 0.801292 0.535017 -0.033327
C17   C     C_R   0.824660 0.727547 0.525769 0.073535
C18   C     C_R   0.011490 0.156333 0.526356 0.033439
C19   C     C_R   0.133906 0.294846 0.509763 -0.154199
C20   C     C_R   0.787850 0.847366 0.490316 0.020925
C21   C     C_R   0.682147 0.702850 0.485260 -0.193352
C22   C     C_R   0.213806 0.029678 0.582597 -0.093598
C23   C     C_3   0.922228 0.804497 0.296218 0.364065
C24   C     C_R   0.311274 0.972426 0.590577 -0.085461
C25   C     C_R   0.272346 0.907143 0.549501 -0.060072
C26   C     C_R   0.126545 0.897315 0.507201 -0.097312
C27   C     C_R   0.008077 0.948422 0.514481 0.019378
C28   C     C_R   0.060429 0.020699 0.541828 0.063261
C29   C     C_R   0.842168 0.927099 0.495731 -0.004865
C30   C     C_R   0.731882 0.983538 0.493511 0.060144
C31   C     C_R   0.787708 0.056537 0.515413 0.000478
C32   C     C_R   0.954561 0.077802 0.531091 -0.002891
C33   C     C_R   0.564787 0.971149 0.470804 -0.081482
C34   C     C_3   0.790556 0.382272 0.310506 0.293561
C35   C     C_R   0.460972 0.026543 0.467658 -0.029123
C36   C     C_R   0.510043 0.093296 0.502130 0.043786
C37   C     C_R   0.670761 0.107470 0.528447 -0.094735
C38   C     C_R   0.604000 0.535666 0.303535 -0.302547
C39   C     C_R   0.457631 0.498950 0.278537 0.071041
C40   C     C_R   0.402612 0.493277 0.206078 -0.129264
C41   C     C_R   0.495683 0.522484 0.157526 -0.026937
C42   C     C_R   0.646567 0.557246 0.183200 -0.110054
C43   C     C_R   0.701169 0.562717 0.255865 0.001095
C44   C     C_R   0.464288 0.567452 0.038935 -0.071435
C45   C     C_3   0.768873 0.366198 0.229076 -0.359387
C46   C     C_R   0.412297 0.558195 0.965954 -0.068959
C47   C     C_R   0.335100 0.493810 0.931768 0.067044
C48   C     C_R   0.307673 0.439643 0.972921 0.016361
C49   C     C_R   0.360041 0.448809 0.045917 -0.036913
C50   C     C_R   0.439399 0.512834 0.079863 0.045440
C51   C     C_R   0.141157 0.445934 0.824113 -0.137988
C52   C     C_R   0.096773 0.438563 0.750201 -0.009962
C53   C     C_R   0.341816 0.504466 0.733525 0.035893
C54   C     C_R   0.387496 0.511901 0.806808 -0.059414
C55   C     C_R   0.287995 0.482742 0.853205 0.012059
C56   C     C_3   0.014403 0.617472 0.689952 0.303110
C57   C     C_R   0.200244 0.465690 0.705176 -0.292883
C58   C     C_3   0.031033 0.633771 0.771378 -0.377875
C59   C     C_3   0.290530 0.308569 0.340791 0.866270
C60   C     C_3   0.281747 0.234268 0.293722 0.352417
H1    H     H_    0.292359 0.639482 0.279151 0.085148
H2    H     H_    0.676144 0.322278 0.212034 0.142019
H3    H     H_    0.728568 0.413845 0.206442 0.064584
H4    H     H_    0.886028 0.350467 0.207698 0.124126
H5    H     H_    0.133034 0.602437 0.670752 0.001218
H6    H     H_    0.924219 0.572587 0.673605 0.068017
H7    H     H_    0.126086 0.676500 0.789416 0.128545
H8    H     H_    0.065176 0.585803 0.794771 0.059851
H9    H     H_    0.913577 0.651296 0.791119 0.130045
H10   H     H_    0.166502 0.323424 0.354505 -0.141034
H11   H     H_    0.199685 0.722207 0.196289 0.181706
H12   H     H_    0.160344 0.224878 0.262796 -0.046229
H13   H     H_    0.375259 0.232314 0.253875 0.021826
H14   H     H_    0.491057 0.683643 0.291458 -0.062251
H15   H     H_    0.380515 0.679711 0.167773 0.065560
H16   H     H_    0.630081 0.664672 0.633659 0.006845
H17   H     H_    0.419972 0.671536 0.600213 0.069373
H18   H     H_    0.611227 0.774091 0.720995 0.051136
H19   H     H_    0.399901 0.780270 0.690157 0.044632
H20   H     H_    0.393985 0.770558 0.212491 0.171310
H21   H     H_    0.858759 0.844666 0.331581 -0.053514
H22   H     H_    0.827811 0.266109 0.626919 0.037882
H23   H     H_    0.026631 0.281097 0.673613 -0.063716
H24   H     H_    0.754813 0.178052 0.702098 0.131330
H25   H     H_    0.952846 0.156880 0.672474 0.045708
H26   H     H_    0.937942 0.201341 0.762165 0.152100
H27   H     H_    0.283159 0.281246 0.698185 -0.323167
H28   H     H_    0.432189 0.351959 0.727408 0.053637
H29   H     H_    0.318791 0.258399 0.811073 -0.003022
H30   H     H_    0.926409 0.730777 0.372058 -0.048554
H31   H     H_    0.473326 0.203940 0.774578 -0.005658
H32   H     H_    0.818969 0.179442 0.446586 0.125904
H33   H     H_    0.198035 0.174688 0.615815 0.045990
H34   H     H_    0.608728 0.840831 0.397985 0.079148
H35   H     H_    0.961833 0.821433 0.575729 0.068208
H36   H     H_    0.184372 0.346223 0.502752 0.080743
H37   H     H_    0.637163 0.648876 0.485209 0.047263
H38   H     H_    0.266669 0.077911 0.611129 0.056833
H39   H     H_    0.425794 0.980728 0.623198 0.099460
H40   H     H_    0.357257 0.865217 0.549710 0.173617
H41   H     H_    0.751283 0.720110 0.306911 -0.067736
H42   H     H_    0.099292 0.848010 0.472004 0.107851
H43   H     H_    0.504243 0.920381 0.458365 0.076651
H44   H     H_    0.335529 0.015739 0.446988 0.126097
H45   H     H_    0.420837 0.132774 0.510090 0.132706
H46   H     H_    0.705713 0.158088 0.559970 0.089822
H47   H     H_    0.498979 0.541651 0.827486 0.081893
H48   H     H_    0.431652 0.601878 0.936427 0.068542
H49   H     H_    0.522649 0.617751 0.063470 0.101839
H50   H     H_    0.288842 0.464449 0.187483 0.088448
H51   H     H_    0.249587 0.389322 0.948278 0.104994
H52   H     H_    0.054827 0.817494 0.306623 0.068828
H53   H     H_    0.341318 0.405015 0.075366 0.075508
H54   H     H_    0.058317 0.426126 0.858839 0.112392
H55   H     H_    0.724610 0.577011 0.146565 0.108879
H56   H     H_    0.163906 0.461755 0.648536 0.057959
H57   H     H_    0.648545 0.538072 0.359124 0.064623
H58   H     H_    0.672674 0.396816 0.330997 0.028630
H59   H     H_    0.880404 0.427503 0.325961 0.056879
O1    O     O_2   0.116570 0.673370 0.549300 -0.463935
O2    O     O_3   0.355197 0.355661 0.299063 -0.709224
O3    O     O_3   0.965505 0.679514 0.271010 -0.567714
O4    O     O_2   0.693730 0.326590 0.450680 -0.357914
O5    O     O_3   0.940960 0.415230 0.456980 -0.514484
O6    O     O_3   0.457750 0.369120 0.580200 -0.448832
O7    O     O_3   0.844514 0.321437 0.337061 -0.615955
O8    O     O_3   0.373690 0.535540 0.586160 -0.479264
O9    O     O_3   0.872560 0.404620 0.618320 -0.516608
O10   O     O_2   0.765523 0.453052 0.745092 -0.430264
O11   O     O_3   0.836377 0.320648 0.729914 -0.504160
O12   O     O_3   0.869340 0.584760 0.542960 -0.501065
O13   O     O_3   0.436600 0.464450 0.413780 -0.450683
O14   O     O_2   0.628980 0.533090 0.672420 -0.458174
O15   O     O_3   0.457656 0.647697 0.703695 -0.691594
O16   O     O_2   0.551050 0.249148 0.526231 -0.426108
O17   O     O_3   0.513631 0.262190 0.665779 -0.635758
O18   O     O_3   0.352540 0.630870 0.419750 -0.482375
O19   O     O_2   0.266982 0.753708 0.474026 -0.488375
O20   O     O_3   0.964170 0.678507 0.662863 -0.630175
O21   O     O_3   0.303094 0.741196 0.335931 -0.600802
O22   O     O_2   0.181320 0.466870 0.327560 -0.479760
O23   O     O_3   0.937730 0.595370 0.381630 -0.489134
O24   O     O_2   0.032136 0.545676 0.253429 -0.490427
P1    P     P_3+3 0.945400 0.662120 0.569160 0.985952
P2    P     P_3+3 0.355390 0.445380 0.336430 1.019111
P3    P     P_3+3 0.908209 0.595353 0.289309 0.970316
P4    P     P_3+3 0.864900 0.337880 0.430780 1.046226
P5    P     P_3+3 0.893850 0.404598 0.711234 1.023053
P6    P     P_3+3 0.380204 0.720824 0.418736 0.958901
P7    P     P_3+3 0.448940 0.555784 0.675823 0.940583
P8    P     P_3+3 0.434977 0.279716 0.581480 1.018544
F1    F     F_    0.391331 0.309146 0.402756 -0.659761
S1    S     S_3+6 0.322216 0.161800 0.341714 -0.049893
O25   O     O_2   0.232064 0.169380 0.407838 -0.329959
O26   O     O_2   0.265871 0.092836 0.295229 -0.274319
O27   O     O_3   0.523249 0.161335 0.364491 -0.492545
H60   H     H_    0.561436 0.118486 0.335150 0.351011
F2    F     F_    0.565556 0.797830 0.620149 -0.764310
S2    S     S_3+6 0.580848 0.308222 0.854020 -0.059669
O28   O     O_2   0.518278 0.308409 0.926550 -0.308379
O29   O     O_2   0.606251 0.383895 0.841527 -0.270256
O30   O     O_3   0.759439 0.268680 0.853775 -0.475885
H61   H     H_    0.735601 0.220607 0.865592 0.325331
S3    S     S_3+6 0.860256 0.811542 0.204398 -0.046954
O31   O     O_2   0.796619 0.740970 0.163594 -0.317178
O32   O     O_2   0.729253 0.864570 0.202044 -0.254585
O33   O     O_3   0.022504 0.839984 0.166156 -0.493307
H62   H     H_    0.991263 0.831212 0.113751 0.366559

loop_
_geom_bond_atom_site_label_1
_geom_bond_atom_site_label_2
_ccdc_geom_bond_type
C3    O15   S    
C21   H37   S    
C53   C54   A    
C38   C39   A    
C53   C57   A    
S1    O26   D    
C43   P3    S    
O11   P5    S    
O33   H62   S    
C46   H48   S    
O23   P3    S    
C59   F1    S    
O6    P8    S    
S2    O28   D    
C53   P7    S    
C52   P5    S    
C34   O7    S    
C51   C52   A    
C60   S1    S    
O22   P2    D    
O13   P2    S    
O3    P3    S    
C2    H1    S    
C24   C25   A    
C31   C37   A    
C11   H33   S    
Ba1   O22   S    
C58   H7    S    
C26   C27   A    
C33   C35   A    
C35   C36   A    
C22   C24   A    
C16   C17   A    
Ba1   O8    S    
C24   H39   S    
C2    O21   S    
C3    C4    S    
O5    P4    S    
C41   C50   S    
C56   C58   S    
O14   P7    D    
C44   C50   A    
Ba2   O8    S    
C47   C55   S    
C54   C55   A    
C34   C45   S    
Ba1   Ba2   S    
C39   C40   A    
C36   H45   S    
C40   H50   S    
Ba1   O1    S    
C13   P8    S    
S2    O29   D    
C1    H11   S    
C14   C15   A    
O9    P5    S    
C56   H5    S    
C16   H35   S    
C3    H17   S    
C7    C8    S    
C45   H4    S    
Ba1   O18   S    
C51   H54   S    
C18   C32   S    
Ba2   O6    S    
Ba2   P4    S    
C5    H22   S    
C4    H19   S    
C22   H38   S    
C44   H49   S    
S1    O27   S    
S3    O32   D    
Ba1   P1    S    
C15   P6    S    
Ba1   O12   S    
O15   P7    S    
C31   C32   A    
C52   C57   A    
C37   H46   S    
C44   C46   A    
C9    C18   A    
C14   H34   S    
C17   P1    S    
C12   O3    S    
C20   C29   S    
C28   C32   A    
C49   C50   A    
Ba2   O12   S    
C30   C33   A    
C5    C6    S    
C36   C37   A    
Ba1   O5    S    
O8    P7    S    
C7    H27   S    
C45   H2    S    
C51   C55   A    
C8    H31   S    
C10   C19   A    
C49   H53   S    
C6    H26   S    
O21   P6    S    
C17   C21   A    
C41   C42   A    
C27   C28   A    
C33   H43   S    
C7    O17   S    
C26   H42   S    
C4    H18   S    
C29   C30   A    
C39   P2    S    
C58   H8    S    
C1    H20   S    
C48   C49   A    
O16   P8    D    
C15   C21   A    
O19   P6    D    
C12   H30   S    
C5    O11   S    
O4    P4    D    
O20   P1    S    
Ba2   O5    S    
C59   H10   S    
C56   H6    S    
C46   C47   A    
O2    P2    S    
C8    H29   S    
C57   H56   S    
C11   C13   A    
O27   H60   S    
C60   H13   S    
Ba1   P2    S    
C40   C41   A    
Ba1   O13   S    
C1    H15   S    
C54   H47   S    
C25   C26   A    
S2    O30   S    
O24   P3    D    
O17   P8    S    
O30   H61   S    
C14   C20   A    
C11   C18   A    
C16   C20   A    
C10   P4    S    
C42   C43   A    
C9    H32   S    
C7    H28   S    
C4    F2    S    
C9    C10   A    
Ba2   O13   S    
C23   S3    S    
C8    S2    S    
C25   H40   S    
Ba2   O14   S    
C58   H9    S    
C59   O2    S    
C48   H51   S    
C30   C31   A    
C6    H25   S    
C34   H59   S    
C35   H44   S    
C27   C29   A    
Ba1   O23   S    
C23   H52   S    
C19   H36   S    
C56   O20   S    
C12   H41   S    
C5    H23   S    
S3    O31   D    
C42   H55   S    
O18   P6    S    
Ba2   O9    S    
C6    H24   S    
O1    P1    D    
C12   C23   S    
C59   C60   S    
C34   H58   S    
C22   C28   A    
C2    H14   S    
Ba2   O4    S    
O7    P4    S    
C13   C19   A    
C38   H57   S    
C38   C43   A    
S3    O33   S    
C47   C48   A    
S1    O25   D    
C23   H21   S    
C60   H12   S    
O10   P5    D    
O12   P1    S    
C3    H16   S    
C45   H3    S    
C1    C2    S    
