data_mof_unit_30905.cif
_audit_creation_date              2012-12-10T16:44:39-0500
_audit_creation_method            fapswitch 2.2
_symmetry_space_group_name_H-M    P1
_symmetry_Int_Tables_number       1
_space_group_crystal_system       triclinic
_cell_length_a                    14.959911
_cell_length_b                    8.706787
_cell_length_c                    7.533619
_cell_angle_alpha                 102.483969
_cell_angle_beta                  95.421767
_cell_angle_gamma                 94.658577
_cell_volume                      948.558315591

loop_
_atom_site_label
_atom_site_type_symbol
_atom_type_description
_atom_site_fract_x
_atom_site_fract_y
_atom_site_fract_z
_atom_type_partial_charge
C1    C     C_R   0.495179 0.200505 0.454705 0.827222
C2    C     C_R   0.504821 0.799495 0.545295 0.827219
C3    C     C_R   0.023892 0.217186 0.337961 -0.055753
C4    C     C_R   0.976108 0.782814 0.662038 -0.055753
C5    C     C_2   0.477806 0.033939 0.438084 -0.196339
C6    C     C_2   0.522195 0.966061 0.561916 -0.196339
C7    C     C_R   0.329119 0.496127 0.499761 0.820305
C8    C     C_R   0.670881 0.503872 0.500239 0.820305
C9    C     C_R   0.824224 0.637391 0.592391 -0.153409
C10   C     C_R   0.175776 0.362609 0.407609 -0.153409
C11   C     C_R   0.767236 0.504809 0.499273 -0.052330
C12   C     C_R   0.232763 0.495190 0.500726 -0.052330
C13   C     C_R   0.801237 0.371847 0.404648 -0.149551
C14   C     C_R   0.198763 0.628153 0.595352 -0.149551
C15   C     C_R   0.894543 0.364238 0.410246 0.046428
C16   C     C_R   0.105457 0.635762 0.589753 0.046428
C17   C     C_R   0.953235 0.501537 0.499034 0.029734
C18   C     C_R   0.046765 0.498463 0.500965 0.029734
C19   C     C_R   0.917756 0.642233 0.584531 0.080740
C20   C     C_R   0.082244 0.357767 0.415469 0.080740
C21   C     C_R   0.929393 0.222408 0.329698 -0.069827
C22   C     C_R   0.070607 0.777593 0.670301 -0.069827
Cu1   Cu    Cu3+1 0.510010 0.517380 0.684380 1.096593
Cu2   Cu    Cu3+1 0.489990 0.482620 0.315620 1.096593
H1    H     H_    0.794131 0.735784 0.669339 0.194406
H2    H     H_    0.205869 0.264216 0.330661 0.194406
H3    H     H_    0.753388 0.273276 0.331918 0.142791
H4    H     H_    0.246612 0.726724 0.668082 0.142791
N1    N     N_2   0.474890 0.456420 0.038520 0.060122
N2    N     N_2   0.525110 0.543580 0.961480 0.060122
O1    O     O_R   0.506510 0.286130 0.619770 -0.530084
O2    O     O_R   0.493490 0.713870 0.380230 -0.530085
O3    O     O_R   0.489600 0.256770 0.308360 -0.598033
O4    O     O_R   0.510400 0.743230 0.691640 -0.598033
O5    O     O_R   0.378710 0.514640 0.655720 -0.559427
O6    O     O_R   0.621290 0.485360 0.344280 -0.559427
O7    O     O_R   0.361800 0.485290 0.344300 -0.544248
O8    O     O_R   0.638200 0.514710 0.655700 -0.544248
C23   C     C_2   0.866259 0.077105 0.249710 0.362739
H5    H     H_    0.813619 0.041125 0.326376 0.159780
O9    O     O_2   0.869513 0.001131 0.094677 -0.568890
C24   C     C_2   0.133741 0.922895 0.750289 0.362741
H6    H     H_    0.186381 0.958875 0.673623 0.159781
O10   O     O_2   0.130487 0.998869 0.905321 -0.568891
C25   C     C_2   0.060087 0.061364 0.280453 0.433844
H7    H     H_    0.026766 0.972584 0.164784 0.153059
O11   O     O_2   0.125566 0.027085 0.367376 -0.565080
C26   C     C_2   0.939913 0.938636 0.719545 0.433843
H8    H     H_    0.973233 0.027416 0.835214 0.153060
O12   O     O_2   0.874433 0.972915 0.632622 -0.565080
C27   C     C_2   0.397771 0.955651 0.306237 0.418347
H9    H     H_    0.384041 0.992246 0.178310 0.112315
O13   O     O_2   0.343631 0.858233 0.343945 -0.520073
C28   C     C_2   0.602230 0.044348 0.693763 0.418346
H10   H     H_    0.615961 0.007750 0.821688 0.112315
O14   O     O_2   0.656369 0.141768 0.656055 -0.520073
Br1   Br    Br    0.386216 0.299085 0.901230 -0.375380
Br2   Br    Br    0.613784 0.700915 0.098770 -0.375381

loop_
_geom_bond_atom_site_label_1
_geom_bond_atom_site_label_2
_ccdc_geom_bond_type
Cu1   Cu2   S    
Cu2   O2    S    
C28   O14   D    
N1    N2    D    
Cu1   O8    S    
C4    C22   A    
C18   C20   A    
Cu2   O3    S    
C21   C23   S    
C15   C21   A    
Cu1   O4    S    
C10   H2    S    
C26   O12   D    
Cu2   O7    S    
C7    O7    A    
C1    O3    A    
C3    C20   A    
C23   O9    D    
Cu2   O6    S    
C25   H7    S    
C9    C11   A    
C2    O4    A    
C22   C24   S    
C24   O10   D    
C8    O8    A    
C6    C28   S    
C8    C11   S    
C1    C5    S    
C10   C12   A    
C16   C18   A    
C26   H8    S    
C17   C19   A    
C12   C14   A    
C17   C18   A    
Cu1   O5    S    
C13   C15   A    
C4    C26   S    
C5    C6    D    
C14   C16   A    
C7    C12   S    
C3    C21   A    
C11   C13   A    
C24   H6    S    
C9    H1    S    
C27   H9    S    
Cu1   N2    S    
N2    Br2   S    
C1    O1    A    
C2    O2    A    
C9    C19   A    
C8    O6    A    
C25   O11   D    
C10   C20   A    
C23   H5    S    
C15   C17   A    
C28   H10   S    
C13   H3    S    
C16   C22   A    
C14   H4    S    
Cu2   N1    S    
C4    C19   A    
C7    O5    A    
C3    C25   S    
C5    C27   S    
C2    C6    S    
N1    Br1   S    
C27   O13   D    
Cu1   O1    S    
