data_mof_unit_39769.cif
_audit_creation_date              2013-03-05T15:41:10-0500
_audit_creation_method            fapswitch 2.2
_symmetry_space_group_name_H-M    P1
_symmetry_Int_Tables_number       1
_space_group_crystal_system       triclinic
_cell_length_a                    15.819656
_cell_length_b                    8.833512
_cell_length_c                    7.564249
_cell_angle_alpha                 101.608518
_cell_angle_beta                  99.063268
_cell_angle_gamma                 94.13564
_cell_volume                      1016.59697879

loop_
_atom_site_label
_atom_site_type_symbol
_atom_site_description
_atom_site_fract_x
_atom_site_fract_y
_atom_site_fract_z
_atom_type_partial_charge
O1    O     O_R   0.506050 0.286130 0.619770 -0.551330
O2    O     O_R   0.490330 0.256780 0.308370 -0.515493
C1    C     C_R   0.493949 0.200766 0.455003 0.842410
O3    O     O_R   0.387300 0.514690 0.655770 -0.551077
O4    O     O_R   0.371580 0.485340 0.344370 -0.532239
C2    C     C_R   0.339836 0.494810 0.493298 0.838347
Cu1   Cu    Cu3+1 0.509300 0.517380 0.684380 1.135881
Cu2   Cu    Cu3+1 0.490700 0.482620 0.315620 1.166997
O5    O     O_R   0.509670 0.743220 0.691630 -0.538684
O6    O     O_R   0.493950 0.713870 0.380230 -0.571517
O7    O     O_R   0.628420 0.514660 0.655630 -0.581447
O8    O     O_R   0.612700 0.485310 0.344230 -0.582959
C3    C     C_R   0.503184 0.799227 0.544477 0.826233
C4    C     C_R   0.660218 0.505225 0.506407 0.805452
C5    C     C_3   0.060015 0.412989 0.629038 0.093539
C6    C     C_3   0.018170 0.404309 0.282799 -0.410230
C7    C     C_3   0.921937 0.416267 0.306604 0.204232
H1    H     H_    0.033461 0.460448 0.171106 0.220254
H2    H     H_    0.028682 0.280387 0.240375 0.238699
H3    H     H_    0.892569 0.296047 0.292307 0.206208
C8    C     C_1   0.751346 0.514725 0.522551 0.078124
C9    C     C_3   0.080131 0.483380 0.465013 -0.019656
C10   C     C_3   0.962040 0.412982 0.640510 -0.027724
C11   C     C_3   0.918056 0.509434 0.505105 -0.194291
C12   C     C_3   0.970644 0.677612 0.540515 0.532213
C13   C     C_3   0.064602 0.656197 0.503775 -0.479324
C14   C     C_1   0.827541 0.518053 0.525016 0.206464
C15   C     C_1   0.171877 0.478397 0.457891 0.089536
C16   C     C_1   0.248660 0.484384 0.473369 -0.012444
H4    H     H_    0.113779 0.721143 0.621761 0.225002
H5    H     H_    0.080032 0.704715 0.386883 0.238555
H6    H     H_    0.095819 0.494259 0.754615 0.164353
H7    H     H_    0.957933 0.472826 0.779557 0.211482
C17   C     C_2   0.477049 0.034916 0.434362 0.126716
C18   C     C_2   0.516986 0.965492 0.564027 0.041829
N1    N     N_2   0.476670 0.456430 0.038530 0.034091
N2    N     N_2   0.523330 0.543570 0.961470 -0.171496
H8    H     H_    0.569900 0.620892 0.052120 0.215772
S1    S     S_3+6 0.906854 0.221067 0.622785 0.144578
O9    O     O_2   0.810814 0.219355 0.582659 -0.203044
O10   O     O_2   0.933054 0.106694 0.472236 -0.148357
O11   O     O_3   0.932480 0.165034 0.822096 -0.348612
H9    H     H_    0.980216 0.241295 0.895671 0.341454
N3    N     N_R   0.926605 0.771866 0.420537 0.208794
O12   O     O_R   0.851146 0.813656 0.443810 -0.227734
O13   O     O_R   0.965141 0.831055 0.306224 -0.244208
S2    S     S_3+6 0.390994 0.940900 0.254455 0.060676
O14   O     O_2   0.427695 0.855324 0.096187 -0.231969
O15   O     O_2   0.334237 0.828405 0.320911 -0.298210
O16   O     O_3   0.330957 0.073902 0.182675 -0.477852
H10   H     H_    0.287778 0.014153 0.078017 0.402115
N4    N     N_R   0.582888 0.049679 0.712365 0.134585
O17   O     O_R   0.649165 0.126967 0.677322 -0.272925
O18   O     O_R   0.582850 0.031557 0.878905 -0.245574
N5    N     N_R   0.409390 0.356691 0.924978 0.289495
O19   O     O_R   0.331348 0.393433 0.927075 -0.288313
O20   O     O_R   0.419906 0.210518 0.876092 -0.282590
N6    N     N_R   0.093992 0.262381 0.633618 0.188475
O21   O     O_R   0.131271 0.237828 0.789856 -0.294554
O22   O     O_R   0.103160 0.167273 0.483982 -0.275126
S3    S     S_3+6 0.855278 0.475518 0.118307 0.039720
O23   O     O_2   0.907708 0.584569 0.040806 -0.236943
O24   O     O_2   0.820759 0.333271 0.972589 -0.190248
O25   O     O_3   0.769807 0.563637 0.175064 -0.506865
H11   H     H_    0.740134 0.587226 0.059861 0.387728
S4    S     S_3+6 0.982118 0.790903 0.773691 0.082849
O26   O     O_2   0.028939 0.945387 0.776400 -0.187582
O27   O     O_2   0.895566 0.814484 0.826650 -0.153928
O28   O     O_3   0.042471 0.713650 0.929421 -0.581128
H12   H     H_    0.064520 0.801589 0.034371 0.412814

loop_
_geom_bond_atom_site_label_1
_geom_bond_atom_site_label_2
_geom_bond_distance
_ccdc_geom_bond_type
S3    O25   1.678882 S    
S4    O27   1.502998 D    
C10   C11   1.572041 S    
C3    C18   1.443199 S    
N2    H8    1.029199 S    
S1    O11   1.678989 S    
S1    O10   1.495133 D    
O5    C3    1.298942 A    
S2    O14   1.503282 D    
C11   C14   1.468975 S    
O8    C4    1.305555 A    
Cu2   O8    1.905787 S    
C6    C9    1.560953 S    
O25   H11   0.990684 S    
S3    O23   1.491580 D    
N5    O19   1.300649 A    
C5    C10   1.565942 S    
O16   H10   0.990639 S    
Cu1   N2    2.036367 S    
C5    H6    1.111713 S    
S2    O15   1.503628 D    
N1    N5    1.385287 S    
C9    C15   1.464336 S    
C11   C12   1.600698 S    
Cu1   O7    1.931972 S    
C18   N4    1.443176 S    
O4    C2    1.294068 A    
O3    Cu1   1.905785 S    
C10   S1    1.819976 S    
C4    C8    1.422381 S    
C6    H1    1.110830 S    
N1    N2    1.308177 D    
O7    C4    1.296598 A    
N4    O18   1.301534 A    
C10   H7    1.092086 S    
C13   H4    1.114311 S    
S2    O16   1.682974 S    
O2    C1    1.297421 A    
N5    O20   1.299951 A    
C6    H2    1.109333 S    
O28   H12   0.990366 S    
C8    C14   1.200730 T    
C5    N6    1.475085 S    
N6    O21   1.301371 A    
C7    C11   1.573100 S    
C13   H5    1.109280 S    
O11   H9    0.988515 S    
C12   S4    1.818798 S    
N6    O22   1.301778 A    
S4    O28   1.681687 S    
Cu1   O5    1.984211 S    
Cu1   Cu2   2.710215 S    
C2    C16   1.420689 S    
S4    O26   1.499815 D    
N4    O17   1.301087 A    
C12   N3    1.480128 S    
Cu2   O6    1.997367 S    
C17   C18   1.356454 D    
Cu2   N1    2.036368 S    
S1    O9    1.500076 D    
S3    O24   1.498684 D    
O4    Cu2   1.931972 S    
C15   C16   1.198086 T    
C9    C13   1.540594 S    
C17   S2    1.787004 S    
C1    C17   1.442396 S    
C7    S3    1.822387 S    
C12   C13   1.572224 S    
O1    Cu1   1.997367 S    
O3    C2    1.307071 A    
C7    H3    1.105488 S    
C5    C9    1.560010 S    
O2    Cu2   1.984211 S    
N3    O12   1.302254 A    
N3    O13   1.301828 A    
C6    C7    1.569427 S    
O1    C1    1.297848 A    
O6    C3    1.297443 A    
