data_mof_unit_18804.cif
_audit_creation_date              2012-10-26T19:09:30-0400
_audit_creation_method            fapswitch 2.2
_symmetry_space_group_name_H-M    P1
_symmetry_Int_Tables_number       1
_space_group_crystal_system       triclinic
_cell_length_a                    10.76114
_cell_length_b                    9.525965
_cell_length_c                    19.349985
_cell_angle_alpha                 88.744846
_cell_angle_beta                  89.882242
_cell_angle_gamma                 89.785671
_cell_volume                      1983.07798971

loop_
_atom_site_label
_atom_site_type_symbol
_atom_type_description
_atom_site_fract_x
_atom_site_fract_y
_atom_site_fract_z
_atom_type_partial_charge
C1    C     C_R   0.262716 0.500298 0.500333 0.603836
C2    C     C_R   0.066305 0.561064 0.556398 0.066807
C3    C     C_R   0.871865 0.499440 0.502253 0.039896
C4    C     C_R   0.129306 0.500991 0.500849 0.040902
C5    C     C_R   0.404199 0.073314 0.528914 0.023317
C6    C     C_R   0.595138 0.926654 0.470231 -0.004533
C7    C     C_R   0.595692 0.075282 0.470900 0.014208
C8    C     C_R   0.405207 0.924731 0.530103 0.003241
C9    C     C_R   0.445073 0.628484 0.254430 0.184862
C10   C     C_R   0.444982 0.376393 0.747016 0.218279
C11   C     C_R   0.496464 0.625737 0.745817 0.199775
C12   C     C_R   0.737656 0.499775 0.500695 0.575453
C13   C     C_R   0.481170 0.375248 0.253526 0.206987
C14   C     C_R   0.435511 0.630016 0.181689 0.206048
C15   C     C_R   0.444721 0.375040 0.819550 0.222728
C16   C     C_R   0.472405 0.628977 0.817042 0.217096
C17   C     C_R   0.445838 0.375221 0.183884 0.216133
C18   C     C_R   0.435689 0.502911 0.146548 -0.042681
C19   C     C_R   0.454521 0.502580 0.854854 -0.065523
C20   C     C_R   0.477723 0.502338 0.290628 -0.079063
C21   C     C_R   0.480898 0.499283 0.709490 -0.081278
C22   C     C_3   0.290339 0.750593 0.305789 0.024294
C23   C     C_R   0.445590 0.505198 0.930721 0.348031
C24   C     C_3   0.264213 0.863714 0.358662 -0.248193
C25   C     C_3   0.130413 0.857684 0.384984 -0.491022
C26   C     C_3   0.287983 0.264700 0.689761 0.028606
C27   C     C_3   0.190580 0.268115 0.747999 -0.268887
C28   C     C_3   0.059556 0.247866 0.719786 -0.505728
C29   C     C_3   0.643770 0.791162 0.720625 0.029121
C30   C     C_3   0.677498 0.904021 0.666413 -0.240257
C31   C     C_3   0.808718 0.960127 0.676601 -0.496057
C32   C     C_3   0.640204 0.228762 0.286315 0.026616
C33   C     C_3   0.670884 0.071703 0.287393 -0.251226
C34   C     C_R   0.435993 0.505068 0.070507 0.397355
C35   C     C_3   0.805659 0.041814 0.307356 -0.507492
C36   C     C_3   0.515301 0.842670 0.146264 0.040140
C37   C     C_3   0.519938 0.931887 0.079511 -0.247529
C38   C     C_3   0.631660 0.030307 0.078205 -0.471743
C39   C     C_3   0.524033 0.196673 0.888901 0.025901
C40   C     C_3   0.605544 0.110750 0.840517 -0.260035
C41   C     C_3   0.708953 0.035533 0.880916 -0.488878
C42   C     C_3   0.344597 0.795851 0.863997 0.022564
C43   C     C_3   0.277377 0.855643 0.799826 -0.256790
C44   C     C_3   0.143313 0.894953 0.816858 -0.502417
C45   C     C_R   0.495289 0.501038 0.367051 0.582929
C46   C     C_3   0.299156 0.220522 0.147731 0.031055
C47   C     C_3   0.256593 0.127568 0.208578 -0.258831
C48   C     C_3   0.120887 0.085418 0.200436 -0.504606
C49   C     C_R   0.495417 0.499124 0.632921 0.559518
C50   C     C_R   0.065840 0.441546 0.445732 0.046014
C51   C     C_R   0.936438 0.556721 0.558626 0.062522
C52   C     C_R   0.935908 0.443481 0.445776 0.063849
Cu1   Cu    Cu3+1 0.500000 0.640660 0.500000 0.954038
Cu2   Cu    Cu3+1 0.500000 0.359340 0.500000 0.970813
H1    H     H_    0.326056 0.128131 0.550559 0.100669
H2    H     H_    0.894335 0.288472 0.380183 0.219652
H3    H     H_    0.105414 0.728567 0.615383 0.245773
H4    H     H_    0.117274 0.570954 0.657337 0.218674
H5    H     H_    0.259751 0.647744 0.328672 0.133437
H6    H     H_    0.235137 0.773961 0.258277 0.148269
H7    H     H_    0.327497 0.847711 0.403067 0.215823
H8    H     H_    0.282991 0.969056 0.335515 0.166416
H9    H     H_    0.063807 0.866310 0.341411 0.135413
H10   H     H_    0.113408 0.945683 0.420545 0.143945
H11   H     H_    0.113825 0.757279 0.413648 0.167258
H12   H     H_    0.671186 0.871872 0.445938 0.122985
H13   H     H_    0.270278 0.169436 0.659569 0.137632
H14   H     H_    0.275040 0.356571 0.653975 0.139786
H15   H     H_    0.210746 0.183607 0.786690 0.213082
H16   H     H_    0.194061 0.370750 0.774116 0.155312
H17   H     H_    0.036737 0.331914 0.681234 0.147957
H18   H     H_    0.991183 0.251810 0.762763 0.149643
H19   H     H_    0.051797 0.144510 0.694748 0.143219
H20   H     H_    0.708991 0.700939 0.715700 0.115504
H21   H     H_    0.654904 0.834248 0.772934 0.171431
H22   H     H_    0.671117 0.858457 0.614205 0.202134
H23   H     H_    0.672398 0.131922 0.447699 0.118831
H24   H     H_    0.610228 0.992641 0.669219 0.194486
H25   H     H_    0.815066 0.016400 0.726017 0.138840
H26   H     H_    0.831774 0.035100 0.633764 0.152326
H27   H     H_    0.877723 0.873200 0.676689 0.173951
H28   H     H_    0.677383 0.275970 0.333703 0.179485
H29   H     H_    0.687977 0.277918 0.240538 0.108823
H30   H     H_    0.608043 0.014166 0.323644 0.197775
H31   H     H_    0.656614 0.031354 0.235052 0.149729
H32   H     H_    0.869624 0.107615 0.275454 0.143676
H33   H     H_    0.827457 0.929543 0.298630 0.148267
H34   H     H_    0.328909 0.868373 0.554130 0.133641
H35   H     H_    0.820740 0.062537 0.362833 0.130644
H36   H     H_    0.605289 0.784300 0.151287 0.122403
H37   H     H_    0.504338 0.913015 0.190583 0.183197
H38   H     H_    0.526065 0.862719 0.034232 0.200468
H39   H     H_    0.433316 0.994496 0.074348 0.184291
H40   H     H_    0.626838 0.104371 0.121479 0.197013
H41   H     H_    0.632372 0.092840 0.029224 0.143828
H42   H     H_    0.719538 0.969086 0.081823 0.136659
H43   H     H_    0.490573 0.126499 0.931547 0.160430
H44   H     H_    0.581127 0.279263 0.913284 0.125799
H45   H     H_    0.111273 0.277428 0.385149 0.231978
H46   H     H_    0.547222 0.032401 0.814222 0.223075
H47   H     H_    0.647808 0.181271 0.800531 0.160486
H48   H     H_    0.764281 0.112139 0.910340 0.142040
H49   H     H_    0.772498 0.981142 0.845100 0.138318
H50   H     H_    0.668668 0.956156 0.917334 0.180297
H51   H     H_    0.347270 0.878622 0.903541 0.158392
H52   H     H_    0.290236 0.707428 0.887277 0.131365
H53   H     H_    0.327435 0.949913 0.779752 0.209493
H54   H     H_    0.275583 0.776338 0.758635 0.182261
H55   H     H_    0.091546 0.800997 0.835786 0.148368
H56   H     H_    0.109820 0.436451 0.343533 0.210184
H57   H     H_    0.096577 0.936619 0.769602 0.144209
H58   H     H_    0.140731 0.976391 0.857050 0.157900
H59   H     H_    0.282320 0.164158 0.099039 0.159861
H60   H     H_    0.239795 0.316988 0.144778 0.126131
H61   H     H_    0.314974 0.031455 0.211541 0.205170
H62   H     H_    0.266810 0.185385 0.257462 0.190384
H63   H     H_    0.060468 0.180183 0.197718 0.139766
H64   H     H_    0.091871 0.019618 0.245471 0.143500
H65   H     H_    0.108577 0.023891 0.152843 0.159251
H66   H     H_    0.777630 0.599849 0.615191 0.239148
H67   H     H_    0.898920 0.545079 0.660962 0.209499
H68   H     H_    0.891470 0.452189 0.344037 0.217014
N1    N     N_R   0.500000 0.852070 0.500000 -0.242870
N2    N     N_3   0.135557 0.624699 0.610810 -0.633249
N3    N     N_R   0.500000 0.147930 0.500000 -0.218244
N4    N     N_R   0.519071 0.586554 0.035665 -0.233618
N5    N     N_R   0.362121 0.423763 0.965489 -0.211655
N6    N     N_R   0.523719 0.586881 0.967029 -0.217504
N7    N     N_R   0.357557 0.423669 0.034203 -0.237011
N8    N     N_3   0.134558 0.383330 0.389313 -0.632655
N9    N     N_3   0.873710 0.609128 0.618714 -0.656634
N10   N     N_3   0.867853 0.392356 0.388005 -0.657325
O1    O     O_R   0.319640 0.618740 0.500000 -0.507182
O2    O     O_3   0.411996 0.254099 0.714384 -0.538299
O3    O     O_3   0.519107 0.750905 0.710390 -0.533744
O4    O     O_3   0.509528 0.247339 0.285188 -0.530687
O5    O     O_3   0.410899 0.753250 0.144660 -0.559707
O6    O     O_3   0.417512 0.250057 0.854313 -0.545957
O7    O     O_3   0.469215 0.757915 0.848999 -0.561089
O8    O     O_3   0.428418 0.248460 0.151858 -0.557200
O9    O     O_R   0.680360 0.381260 0.500000 -0.501096
O10   O     O_R   0.680360 0.618740 0.500000 -0.520185
O11   O     O_R   0.319640 0.381260 0.500000 -0.503337
O12   O     O_R   0.499980 0.618820 0.400140 -0.463964
O13   O     O_R   0.500020 0.381180 0.599860 -0.479282
O14   O     O_R   0.500020 0.618820 0.599860 -0.453367
O15   O     O_R   0.499980 0.381180 0.400140 -0.457268
O16   O     O_3   0.418774 0.749781 0.289737 -0.553700

loop_
_geom_bond_atom_site_label_1
_geom_bond_atom_site_label_2
_ccdc_geom_bond_type
C24   H7    S    
H66   N9    S    
C14   C18   A    
C19   C23   S    
C43   C44   S    
C21   C49   S    
C31   H26   S    
Cu1   Cu2   S    
C12   O9    A    
C47   H61   S    
C26   C27   S    
C37   C38   S    
C1    O11   A    
C26   H13   S    
C46   O8    S    
C36   C37   S    
C10   C15   A    
C22   H6    S    
C30   C31   S    
C35   H32   S    
C39   H43   S    
C41   H48   S    
Cu1   O10   S    
C25   H9    S    
C33   H31   S    
C3    C12   S    
C50   N8    S    
C40   H47   S    
C15   C19   A    
C35   H33   S    
H45   N8    S    
C6    C7    A    
C34   N7    A    
C38   H41   S    
C45   O12   A    
C50   C52   A    
C36   O5    S    
C20   C45   S    
C46   H59   S    
C7    H23   S    
C15   O6    S    
C44   H55   S    
Cu2   O11   S    
C39   O6    S    
C28   H18   S    
C6    N1    A    
H67   N9    S    
C1    O1    A    
C28   H19   S    
H68   N10   S    
C42   H51   S    
C13   C20   A    
C48   H65   S    
C10   C21   A    
C47   H62   S    
Cu2   N3    S    
C46   H60   S    
C37   H39   S    
C52   N10   S    
Cu1   O1    S    
C24   C25   S    
Cu1   N1    S    
C39   C40   S    
C32   O4    S    
C3    C51   A    
C39   H44   S    
C48   H64   S    
C29   H20   S    
C11   C21   A    
C41   H49   S    
C4    C50   A    
C8    H34   S    
C25   H10   S    
C30   H24   S    
C2    C4    A    
C9    C14   A    
N5    N7    A    
C29   C30   S    
C26   O2    S    
C11   O3    S    
C30   H22   S    
C11   C16   A    
C9    C20   A    
C47   C48   S    
C14   O5    S    
C34   N4    A    
C38   H40   S    
C17   C18   A    
C49   O13   A    
C43   H53   S    
C7    N3    A    
N4    N6    A    
C18   C34   S    
H2    N10   S    
C27   H16   S    
Cu2   O13   S    
C35   H35   S    
C36   H37   S    
C40   C41   S    
C29   O3    S    
C22   O16   S    
C13   O4    S    
C22   C24   S    
C28   H17   S    
C42   C43   S    
C38   H42   S    
C44   H58   S    
C22   H5    S    
C23   N5    A    
C36   H36   S    
C32   H29   S    
C46   C47   S    
C24   H8    S    
C37   H38   S    
C42   O7    S    
C45   O15   A    
C5    H1    S    
C10   O2    S    
C27   H15   S    
C40   H46   S    
C5    C8    A    
C3    C52   A    
C8    N1    A    
C31   H25   S    
C48   H63   S    
C29   H21   S    
C2    N2    S    
C32   H28   S    
C9    O16   S    
H4    N2    S    
C31   H27   S    
C41   H50   S    
C13   C17   A    
C1    C4    S    
C26   H14   S    
C32   C33   S    
Cu1   O12   S    
H3    N2    S    
C16   C19   A    
Cu1   O14   S    
C33   C35   S    
C12   O10   A    
C49   O14   A    
H56   N8    S    
C17   O8    S    
C43   H54   S    
C33   H30   S    
C2    C51   A    
C42   H52   S    
C44   H57   S    
C6    H12   S    
Cu2   O9    S    
C51   N9    S    
C5    N3    A    
C16   O7    S    
C25   H11   S    
Cu2   O15   S    
C23   N6    A    
C27   C28   S    
