data_mof_unit_38877.cif
_audit_creation_date              2012-12-11T17:10:39-0500
_audit_creation_method            fapswitch 2.2
_symmetry_space_group_name_H-M    P1
_symmetry_Int_Tables_number       1
_space_group_crystal_system       triclinic
_cell_length_a                    15.086272
_cell_length_b                    14.871279
_cell_length_c                    14.914407
_cell_angle_alpha                 109.212619
_cell_angle_beta                  109.604929
_cell_angle_gamma                 109.50353
_cell_volume                      2578.72766848

loop_
_atom_site_label
_atom_site_type_symbol
_atom_type_description
_atom_site_fract_x
_atom_site_fract_y
_atom_site_fract_z
_atom_type_partial_charge
C1    C     C_R   0.199286 0.291267 0.198636 -0.114640
C2    C     C_R   0.571911 0.570003 0.869707 0.064078
C3    C     C_R   0.485838 0.173517 0.505675 0.020812
C4    C     C_R   0.173761 0.449256 0.497582 -0.043807
C5    C     C_R   0.399723 0.708235 0.412311 -0.108307
C6    C     C_R   0.800297 0.497925 0.590657 -0.117733
C7    C     C_R   0.567230 0.475585 0.254218 -0.016551
C8    C     C_R   0.719151 0.811983 0.738845 -0.102496
C9    C     C_R   0.813169 0.723205 0.746734 -0.117375
C10   C     C_R   0.472663 0.563333 0.247589 -0.071934
C11   C     C_R   0.494090 0.797953 0.593730 -0.103218
C12   C     C_R   0.599328 0.507704 0.804879 -0.124780
C13   C     C_R   0.705111 0.401828 0.408476 -0.120679
C14   C     C_R   0.426586 0.800179 0.506491 0.039449
C15   C     C_R   0.798999 0.433513 0.498596 0.056828
C16   C     C_R   0.548518 0.547186 0.221408 0.039744
C17   C     C_R   0.820742 0.824022 0.767517 0.058175
C18   C     C_R   0.004317 0.434546 0.162778 -0.017089
C19   C     C_R   0.020223 0.455717 0.267049 -0.115811
C20   C     C_R   0.967628 0.369570 0.283077 -0.010032
C21   C     C_R   0.893207 0.262399 0.191116 -0.058940
C22   C     C_R   0.879492 0.242758 0.087376 -0.089199
C23   C     C_R   0.461396 0.183940 0.411652 0.309013
C24   C     C_R   0.936001 0.328035 0.073736 -0.127768
C25   C     C_R   0.888047 0.391900 0.397883 -0.206936
C26   C     C_R   0.881509 0.406776 0.491753 0.062172
C27   C     C_R   0.958632 0.406184 0.576602 0.048259
C28   C     C_R   0.050331 0.408854 0.571744 -0.175050
C29   C     C_R   0.065371 0.413917 0.485272 0.089484
C30   C     C_R   0.977174 0.393875 0.391831 0.060896
C31   C     C_R   0.027601 0.492824 0.777749 -0.226520
C32   C     C_R   0.011934 0.500837 0.866566 0.402997
C33   C     C_R   0.916368 0.421962 0.849977 -0.202395
C34   C     C_R   0.275382 0.532301 0.590906 -0.054617
C35   C     C_R   0.836875 0.334185 0.744486 -0.169153
C36   C     C_R   0.851913 0.326398 0.655214 -0.102654
C37   C     C_R   0.947043 0.406621 0.671284 0.050008
C38   C     C_R   0.663520 0.561686 0.036752 0.135028
C39   C     C_R   0.610661 0.606923 0.986080 0.063725
C40   C     C_R   0.576159 0.670260 0.043558 -0.079908
C41   C     C_R   0.568888 0.662555 0.132258 -0.152230
C42   C     C_R   0.593819 0.589766 0.161977 0.056175
C43   C     C_R   0.651132 0.549179 0.119950 0.064527
C44   C     C_3   0.651947 0.442400 0.082637 0.166995
C45   C     C_R   0.546617 0.278490 0.595201 -0.181846
C46   C     C_3   0.667295 0.457784 0.992427 -0.601800
C47   C     C_R   0.322610 0.876390 0.424156 0.106133
C48   C     C_R   0.383213 0.876961 0.518670 -0.117969
C49   C     C_R   0.446054 0.978828 0.617187 0.332021
C50   C     C_R   0.486414 0.075093 0.612558 -0.277649
C51   C     C_R   0.449791 0.071746 0.510853 0.007412
C52   C     C_R   0.359324 0.973897 0.418938 0.174214
C53   C     C_3   0.249408 0.961535 0.371995 -0.441722
C54   C     C_3   0.211713 0.865002 0.389021 0.192674
C55   C     C_R   0.003762 0.074540 0.033874 -0.081583
C56   C     C_R   0.190274 0.425845 0.409464 -0.074798
C57   C     C_R   0.102061 0.109808 0.034836 -0.005176
C58   C     C_R   0.105477 0.059084 0.938766 0.340956
C59   C     C_R   0.010847 0.966219 0.846161 -0.231102
C60   C     C_R   0.915239 0.927138 0.850851 0.029996
C61   C     C_R   0.911482 0.984307 0.943115 0.044522
C62   C     C_3   0.875152 0.940668 0.009670 -0.347654
C63   C     C_3   0.974930 0.043721 0.110654 0.201598
C64   C     C_R   0.508911 0.598307 0.806173 -0.077730
C65   C     C_R   0.288482 0.199052 0.196027 0.032666
C66   C     C_R   0.195515 0.197755 0.137045 0.081720
H1    H     H_    0.144976 0.320990 0.171156 0.136826
H2    H     H_    0.856595 0.529134 0.675335 0.117653
H3    H     H_    0.624970 0.449233 0.252371 0.107746
H4    H     H_    0.698355 0.875837 0.747183 0.159564
H5    H     H_    0.878827 0.705419 0.765412 0.128525
H6    H     H_    0.441890 0.616273 0.235018 0.113801
H7    H     H_    0.519200 0.844799 0.678502 0.180871
H8    H     H_    0.669843 0.338472 0.324954 0.141447
H9    H     H_    0.924756 0.311719 0.993362 0.122993
H10   H     H_    0.043988 0.500788 0.150350 0.181927
H11   H     H_    0.073013 0.539090 0.335283 0.146196
H12   H     H_    0.664408 0.490527 0.832489 0.111826
H13   H     H_    0.823682 0.161656 0.016380 0.176768
H14   H     H_    0.825400 0.384148 0.328821 0.154274
H15   H     H_    0.110007 0.407687 0.635635 0.192791
H16   H     H_    0.100154 0.556401 0.791048 0.179353
H17   H     H_    0.903194 0.429412 0.918420 0.145464
H18   H     H_    0.762831 0.273244 0.731636 0.141169
H19   H     H_    0.788530 0.259648 0.573469 0.143998
H20   H     H_    0.542378 0.714655 0.013119 0.150763
H21   H     H_    0.531840 0.703154 0.167651 0.148337
H22   H     H_    0.748019 0.474418 0.000484 0.195015
H23   H     H_    0.597371 0.393387 0.909225 0.235267
H24   H     H_    0.542664 0.151604 0.688917 0.170126
H25   H     H_    0.244182 0.031123 0.423418 0.194500
H26   H     H_    0.217331 0.939620 0.284616 0.291140
H27   H     H_    0.192532 0.881189 0.456583 0.124193
H28   H     H_    0.012844 0.922455 0.773362 0.175329
H29   H     H_    0.877256 0.863412 0.996570 0.184201
H30   H     H_    0.958429 0.103200 0.159809 0.085469
H31   H     H_    0.582731 0.303466 0.681256 0.121171
H32   H     H_    0.133278 0.359608 0.327307 0.123711
H33   H     H_    0.492013 0.663314 0.836858 0.123581
H34   H     H_    0.315448 0.144654 0.163144 0.186897
N1    N     N_R   0.291070 0.347930 0.293870 -0.042959
N2    N     N_R   0.708930 0.502750 0.556810 -0.046190
N3    N     N_R   0.502760 0.445970 0.293860 -0.052909
N4    N     N_R   0.652110 0.708890 0.706130 -0.052150
N5    N     N_R   0.708930 0.652070 0.706130 -0.051063
N6    N     N_R   0.445950 0.502780 0.293850 -0.036428
N7    N     N_R   0.502760 0.708900 0.556790 -0.063256
N8    N     N_R   0.652110 0.445950 0.443190 -0.051156
N9    N     N_R   0.554050 0.497220 0.706150 -0.043426
N10   N     N_R   0.497240 0.291100 0.443210 -0.077883
N11   N     N_R   0.347890 0.554050 0.556810 -0.067567
N12   N     N_R   0.554050 0.347900 0.556830 -0.058677
N13   N     N_R   0.291070 0.497250 0.443190 -0.041860
N14   N     N_R   0.497240 0.554030 0.706140 -0.055302
N15   N     N_R   0.347890 0.291110 0.293870 -0.063788
N16   N     N_R   0.445950 0.652100 0.443170 -0.066128
Ni1   Ni    Ni4+2 0.369690 0.500010 0.369700 0.264008
Ni2   Ni    Ni4+2 0.630310 0.499990 0.630300 0.213851
Ni3   Ni    Ni4+2 0.500000 0.369720 0.369720 0.271616
Ni4   Ni    Ni4+2 0.500000 0.630280 0.630280 0.250428
C67   C     C_2   0.822686 0.172436 0.199816 1.000821
O1    O     O_2   0.860152 0.156882 0.276084 -0.615625
O2    O     O_R   0.712246 0.106779 0.121375 -0.729617
H35   H     H_    0.671554 0.049975 0.137174 0.358984
Br1   Br    Br    0.119402 0.622731 0.009230 -0.453099
Br2   Br    Br    0.426930 0.074967 0.273529 -0.505710
C68   C     C_2   0.748920 0.448535 0.163146 0.973950
O3    O     O_2   0.761963 0.369124 0.138699 -0.602591
O4    O     O_R   0.824380 0.545039 0.264113 -0.800087
H36   H     H_    0.888581 0.541021 0.309342 0.327248
Br3   Br    Br    0.514517 0.309519 0.019623 -0.404777
Br4   Br    Br    0.468205 0.992791 0.756756 -0.417167
C69   C     C_2   0.296642 0.608817 0.698080 0.954229
O5    O     O_2   0.336982 0.706969 0.728228 -0.597515
O6    O     O_R   0.277632 0.571356 0.767813 -0.827965
H37   H     H_    0.299275 0.633052 0.840328 0.340093
Br5   Br    Br    0.096835 0.730110 0.254708 -0.456280
Br6   Br    Br    0.236058 0.109760 0.931628 -0.412958
C70   C     C_2   0.769575 0.930866 0.000634 1.002136
O7    O     O_2   0.738525 0.901335 0.057133 -0.612690
O8    O     O_R   0.706003 0.952211 0.927041 -0.817266
H38   H     H_    0.634458 0.936641 0.925114 0.371461
Br7   Br    Br    0.072742 0.010207 0.198122 -0.507585
C71   C     C_2   0.317292 0.661426 0.297692 1.003592
O9    O     O_2   0.314392 0.720173 0.257002 -0.562675
O10   O     O_R   0.251176 0.547438 0.232178 -0.831065
H39   H     H_    0.207034 0.523313 0.151968 0.336682

loop_
_geom_bond_atom_site_label_1
_geom_bond_atom_site_label_2
_ccdc_geom_bond_type
C44   C68   S    
C1    N1    A    
C25   H14   S    
C41   C42   A    
C3    C23   A    
C35   C36   A    
C56   H32   S    
C57   C66   S    
C2    C12   A    
C45   N12   A    
O2    H35   S    
C46   H23   S    
C20   C30   S    
C53   C54   S    
C44   Br3   S    
C26   C27   A    
C62   C63   S    
C31   H16   S    
C18   C24   A    
C28   C29   A    
C22   H13   S    
O10   H39   S    
C38   C39   A    
C11   C14   A    
C54   Br5   S    
C9    N5    A    
N16   Ni1   S    
C18   C19   A    
C40   H20   S    
C19   H11   S    
C12   N9    A    
C54   H27   S    
C1    H1    S    
C6    C15   A    
C2    C39   S    
C50   H24   S    
C64   H33   S    
C47   C48   A    
C44   C46   S    
C12   H12   S    
C53   H25   S    
C56   N13   A    
N2    N8    A    
C59   H28   S    
C62   C70   S    
C4    C29   S    
N2    Ni2   S    
C58   Br6   S    
C6    H2    S    
C59   C60   A    
C7    N3    A    
C21   C22   A    
C4    C56   A    
C34   N11   A    
C65   N15   A    
N8    Ni3   S    
C13   N8    A    
N4    N5    A    
C2    C64   A    
N9    Ni2   S    
C1    C66   A    
C46   H22   S    
C41   H21   S    
C49   Br4   S    
C4    C34   A    
C64   N14   A    
C51   C52   A    
O6    H37   S    
C71   O10   S    
C11   H7    S    
C39   C40   A    
C3    C51   S    
C5    C71   S    
C14   C48   S    
C34   C69   S    
C58   C59   A    
C63   H30   S    
C3    C45   A    
C31   C37   A    
C55   C63   S    
N11   Ni4   S    
C32   Br1   S    
C43   C44   S    
C68   O4    S    
C29   C30   A    
C8    N4    A    
C31   C32   A    
C70   O7    D    
C53   H26   S    
C50   C51   A    
C5    C14   A    
N11   N13   A    
C55   C57   A    
C20   C21   A    
C33   H17   S    
C67   O1    D    
N3    Ni3   S    
N9    N14   A    
C47   C54   S    
N13   Ni1   S    
C9    C17   A    
C40   C41   A    
C49   C50   A    
N15   Ni3   S    
C23   Br2   S    
N6    Ni1   S    
C11   N7    A    
C69   O5    D    
N1    N15   A    
C22   C24   A    
N5    Ni2   S    
C10   N6    A    
C42   C43   A    
C68   O3    D    
C16   C42   S    
N7    Ni4   S    
C67   O2    S    
C52   C53   S    
O4    H36   S    
C25   C30   A    
C23   N10   A    
C36   C37   A    
C18   H10   S    
C28   H15   S    
C7    C16   A    
C9    H5    S    
C65   H34   S    
C71   O9    D    
C15   C26   S    
N10   Ni3   S    
C7    H3    S    
C35   H18   S    
C24   H9    S    
C47   C52   A    
C36   H19   S    
C8    H4    S    
C8    C17   A    
N1    Ni1   S    
C32   C33   A    
C19   C20   A    
C13   C15   A    
C25   C26   A    
C38   C43   A    
C5    N16   A    
C45   H31   S    
O8    H38   S    
N12   Ni2   S    
C70   O8    S    
C57   C58   A    
C27   C37   S    
C48   C49   A    
C55   C61   A    
C33   C35   A    
N3    N6    A    
C6    N2    A    
C21   C67   S    
C61   C62   S    
N10   N12   A    
N7    N16   A    
C38   C46   S    
C17   C60   S    
C13   H8    S    
C65   C66   A    
C27   C28   A    
C69   O6    S    
C63   Br7   S    
C60   C61   A    
C10   C16   A    
C62   H29   S    
N14   Ni4   S    
N4    Ni4   S    
C10   H6    S    
