data_mof_unit_40150.cif
_audit_creation_date              2012-12-11T17:07:43-0500
_audit_creation_method            fapswitch 2.2
_symmetry_space_group_name_H-M    P1
_symmetry_Int_Tables_number       1
_space_group_crystal_system       triclinic
_cell_length_a                    17.309032
_cell_length_b                    17.246904
_cell_length_c                    17.509826
_cell_angle_alpha                 89.874038
_cell_angle_beta                  89.650274
_cell_angle_gamma                 90.525737
_cell_volume                      5226.82885356

loop_
_atom_site_label
_atom_site_type_symbol
_atom_type_description
_atom_site_fract_x
_atom_site_fract_y
_atom_site_fract_z
_atom_type_partial_charge
C1    C     C_R   0.395772 0.304516 0.891306 0.023383
C2    C     C_R   0.171808 0.919431 0.357781 0.101362
C3    C     C_R   0.691005 0.741977 0.367895 -0.188684
C4    C     C_R   0.196591 0.301224 0.698583 -0.209392
C5    C     C_R   0.307306 0.750031 0.640511 -0.200955
C6    C     C_R   0.826514 0.729341 0.756252 -0.188100
C7    C     C_R   0.733973 0.287536 0.637979 -0.158338
C8    C     C_R   0.686807 0.334885 0.684438 -0.184683
C9    C     C_R   0.811450 0.718049 0.835157 -0.225135
C10   C     C_R   0.349418 0.713175 0.699479 -0.160162
C11   C     C_R   0.210873 0.303036 0.777858 -0.213207
C12   C     C_R   0.647051 0.703742 0.310432 -0.151950
C13   C     C_R   0.109680 0.198853 0.403673 0.056093
C14   C     C_R   0.811725 0.250846 0.134431 -0.186770
C15   C     C_R   0.337701 0.230815 0.267034 -0.179251
C16   C     C_R   0.233797 0.791459 0.135803 -0.155924
C17   C     C_1   0.422808 0.227394 0.907083 0.050130
C18   C     C_1   0.751246 0.445544 0.848992 0.059629
C19   C     C_1   0.579696 0.767952 0.946415 0.022101
C20   C     C_1   0.238861 0.564826 0.868153 0.037690
C21   C     C_1   0.425224 0.772521 0.102839 0.042887
C22   C     C_1   0.749475 0.549058 0.151272 0.024314
C23   C     C_1   0.571921 0.227010 0.077593 0.064236
C24   C     C_R   0.824268 0.085300 0.361713 0.098413
C25   C     C_1   0.236124 0.428142 0.128958 0.039555
C26   C     C_1   0.927920 0.726792 0.419179 0.059099
C27   C     C_1   0.250367 0.945780 0.347617 0.075807
C28   C     C_1   0.075651 0.272869 0.420096 0.057603
C29   C     C_1   0.753248 0.044584 0.345222 0.026872
C30   C     C_1   0.926996 0.271444 0.604028 0.049158
C31   C     C_1   0.271395 0.073781 0.594119 0.040778
C32   C     C_1   0.072004 0.726773 0.583958 0.052717
C33   C     C_1   0.731352 0.919959 0.591109 0.014284
C34   C     C_2   0.141596 0.903746 0.150986 1.106445
C35   C     C_R   0.896453 0.193872 0.611244 0.042537
C36   C     C_2   0.369468 0.162524 0.391674 1.029472
C37   C     C_2   0.939068 0.198479 0.183146 1.073419
C38   C     C_2   0.658627 0.759839 0.444723 1.033805
C39   C     C_2   0.158688 0.366950 0.658521 1.058858
C40   C     C_2   0.343461 0.773281 0.566087 1.034208
C41   C     C_2   0.853973 0.662712 0.709163 1.036306
C42   C     C_2   0.744450 0.303547 0.554985 1.068532
C43   C     C_2   0.639679 0.398212 0.651327 1.100115
C44   C     C_2   0.869187 0.684824 0.888569 1.071490
C45   C     C_2   0.431419 0.691742 0.689166 1.078770
C46   C     C_R   0.196329 0.107567 0.603974 0.047106
C47   C     C_2   0.147977 0.320510 0.833924 1.061439
C48   C     C_2   0.564696 0.682702 0.322089 1.060632
C49   C     C_2   0.847821 0.280823 0.062415 1.016789
C50   C     C_2   0.377319 0.174155 0.217075 1.056177
C51   C     C_2   0.246421 0.809924 0.053624 1.063778
C52   C     C_R   0.106153 0.802001 0.596942 0.026686
C53   C     C_R   0.807469 0.898516 0.615296 0.035056
C54   C     C_3   0.751332 0.140816 0.795473 -0.499741
C55   C     C_3   0.672736 0.880748 0.742538 -0.465485
C56   C     C_3   0.139729 0.779758 0.774108 -0.521365
C57   C     C_R   0.672606 0.418928 0.858414 0.105435
C58   C     C_3   0.381300 0.237140 0.644848 -0.348575
C59   C     C_3   0.853824 0.774288 0.227898 -0.492976
C60   C     C_3   0.688182 0.220869 0.327575 -0.385378
C61   C     C_3   0.243588 0.390560 0.389425 -0.387422
C62   C     C_3   0.195676 0.690163 0.340174 -0.454676
C63   C     C_3   0.245985 0.640314 0.289573 -0.506136
C64   C     C_3   0.274037 0.422700 0.315194 -0.531564
C65   C     C_3   0.640274 0.258798 0.266464 -0.502791
C66   C     C_3   0.806419 0.733925 0.167190 -0.419854
C67   C     C_3   0.409921 0.258271 0.722792 -0.542048
C68   C     C_R   0.607479 0.699889 0.908019 0.026446
C69   C     C_3   0.187443 0.745694 0.837493 -0.360824
C70   C     C_3   0.639495 0.852010 0.816208 -0.469362
C71   C     C_3   0.700005 0.190855 0.844903 -0.462113
C72   C     C_R   0.413834 0.681217 0.865966 -0.112238
C73   C     C_R   0.307238 0.396181 0.886228 -0.112908
C74   C     C_R   0.577588 0.330469 0.856773 -0.164493
C75   C     C_R   0.697229 0.609804 0.900691 -0.093541
C76   C     C_R   0.412939 0.319751 0.134838 -0.128036
C77   C     C_R   0.304651 0.602348 0.109195 -0.122175
C78   C     C_R   0.583953 0.675833 0.139208 -0.144557
C79   C     C_R   0.317566 0.592678 0.869473 0.085877
C80   C     C_R   0.697868 0.390545 0.095652 -0.129312
C81   C     C_R   0.916905 0.176828 0.361268 -0.115739
C82   C     C_R   0.801878 0.889058 0.405566 -0.156706
C83   C     C_R   0.076314 0.831587 0.356007 -0.156903
C84   C     C_R   0.198632 0.107784 0.403838 -0.103894
C85   C     C_R   0.902328 0.811543 0.623637 -0.099571
C86   C     C_R   0.805957 0.100587 0.612724 -0.111405
C87   C     C_R   0.104318 0.196492 0.605900 -0.127721
C88   C     C_R   0.197127 0.892884 0.600429 -0.148170
C89   C     C_R   0.323624 0.321408 0.863561 0.102092
C90   C     C_R   0.394922 0.694780 0.108956 0.043630
C91   C     C_R   0.638177 0.361165 0.815573 0.073465
C92   C     C_R   0.684157 0.688416 0.890530 0.064194
C93   C     C_R   0.347101 0.656933 0.831021 0.041200
C94   C     C_R   0.320450 0.676855 0.129261 0.071441
C95   C     C_R   0.646215 0.647155 0.178252 0.033151
C96   C     C_R   0.683042 0.313309 0.107113 0.087613
C97   C     C_R   0.343214 0.338868 0.168762 0.040674
C98   C     C_R   0.816323 0.811989 0.394586 0.093255
C99   C     C_R   0.136796 0.862291 0.314509 0.067312
C100  C     C_R   0.188360 0.186044 0.392509 0.019361
C101  C     C_R   0.676142 0.585435 0.137924 0.093391
C102  C     C_R   0.854144 0.148308 0.321781 0.028978
C103  C     C_R   0.822548 0.174963 0.633493 0.064462
C104  C     C_R   0.181144 0.184665 0.622281 0.047348
C105  C     C_R   0.182523 0.815441 0.610628 0.102876
C106  C     C_R   0.828124 0.828384 0.649654 0.114254
C107  C     C_R   0.724090 0.257717 0.795140 0.186454
C108  C     C_R   0.716899 0.817694 0.833355 0.159539
C109  C     C_R   0.232197 0.705164 0.776415 0.157226
C110  C     C_R   0.331027 0.237476 0.751461 0.148099
C111  C     C_R   0.762558 0.696549 0.231443 0.156602
C112  C     C_R   0.605981 0.301242 0.095565 0.019161
C113  C     C_R   0.695209 0.224679 0.209313 0.158501
C114  C     C_R   0.258299 0.344827 0.282085 0.167938
C115  C     C_R   0.265816 0.712794 0.246782 0.160058
C116  C     C_R   0.221124 0.757657 0.291971 0.178761
C117  C     C_R   0.227457 0.315031 0.349807 0.132235
C118  C     C_R   0.737096 0.190022 0.264054 0.148392
C119  C     C_R   0.804345 0.732484 0.285557 0.140347
C120  C     C_R   0.304450 0.216314 0.679821 0.113074
C121  C     C_R   0.191190 0.737014 0.719682 0.161589
C122  C     C_R   0.747029 0.843912 0.764590 0.119177
C123  C     C_R   0.315334 0.403576 0.129496 0.064285
C124  C     C_R   0.769266 0.212664 0.750732 0.174859
C125  C     C_R   0.680116 0.315798 0.762731 -0.085654
C126  C     C_R   0.741087 0.746543 0.863780 0.002892
C127  C     C_R   0.310744 0.695282 0.769037 -0.063950
C128  C     C_R   0.284638 0.279438 0.802446 -0.005264
C129  C     C_R   0.684133 0.684636 0.240665 -0.050342
C130  C     C_R   0.731181 0.259691 0.147108 -0.028139
C131  C     C_R   0.309464 0.301776 0.237187 -0.013502
C132  C     C_R   0.268872 0.725732 0.169087 -0.052654
C133  C     C_R   0.178337 0.817255 0.260681 -0.081094
C134  C     C_R   0.893313 0.801012 0.404809 0.039057
C135  C     C_R   0.251014 0.242528 0.375489 0.028458
C136  C     C_R   0.816516 0.185314 0.258500 -0.056362
C137  C     C_R   0.769408 0.759665 0.351509 -0.018492
C138  C     C_R   0.233241 0.243313 0.655028 0.032158
C139  C     C_R   0.228059 0.764109 0.654307 -0.030286
C140  C     C_R   0.794974 0.796306 0.720612 -0.020340
C141  C     C_R   0.771088 0.223807 0.672775 -0.059663
C142  C     C_R   0.186775 0.838435 0.182987 -0.191140
C143  C     C_R   0.318803 0.211064 0.343248 -0.203050
C144  C     C_R   0.855217 0.212005 0.191749 -0.161654
H1    H     H_    0.718773 0.096683 0.762075 0.191386
H2    H     H_    0.336605 0.437880 0.316646 0.216649
H3    H     H_    0.642815 0.323252 0.268246 0.207265
H4    H     H_    0.840326 0.691527 0.133432 0.213061
H5    H     H_    0.424158 0.321020 0.728460 0.215378
H6    H     H_    0.153888 0.705436 0.874860 0.228984
H7    H     H_    0.592651 0.809162 0.805164 0.216081
H8    H     H_    0.721058 0.196825 0.904378 0.239895
H9    H     H_    0.802785 0.118732 0.826028 0.210453
H10   H     H_    0.644508 0.851892 0.693179 0.223470
H11   H     H_    0.079332 0.757220 0.773175 0.230254
H12   H     H_    0.677122 0.945074 0.739832 0.191815
H13   H     H_    0.378389 0.287381 0.605007 0.219181
H14   H     H_    0.914895 0.754916 0.229396 0.198112
H15   H     H_    0.719804 0.263414 0.363587 0.224715
H16   H     H_    0.288586 0.385596 0.434262 0.215052
H17   H     H_    0.133124 0.676228 0.334718 0.193515
H18   H     H_    0.296733 0.615954 0.319600 0.212614
H19   H     H_    0.236190 0.467660 0.290430 0.201142
H20   H     H_    0.581191 0.233542 0.261800 0.239132
H21   H     H_    0.770386 0.774091 0.133027 0.207674
H22   H     H_    0.454751 0.218035 0.744109 0.198382
H23   H     H_    0.145578 0.843884 0.769381 0.203585
H24   H     H_    0.222738 0.790112 0.867538 0.214619
H25   H     H_    0.624416 0.900107 0.855583 0.207237
H26   H     H_    0.637734 0.175528 0.839735 0.190435
H27   H     H_    0.448762 0.731978 0.853328 0.123965
H28   H     H_    0.252420 0.423400 0.881573 0.133038
H29   H     H_    0.543805 0.280240 0.841823 0.113494
H30   H     H_    0.753012 0.583603 0.905060 0.131778
H31   H     H_    0.453006 0.276060 0.151324 0.123687
H32   H     H_    0.248184 0.575885 0.107510 0.125006
H33   H     H_    0.551858 0.726732 0.153738 0.135716
H34   H     H_    0.411317 0.185721 0.621582 0.201601
H35   H     H_    0.754691 0.414712 0.086625 0.133247
H36   H     H_    0.951067 0.227554 0.347462 0.132277
H37   H     H_    0.745067 0.911985 0.415348 0.136212
H38   H     H_    0.040693 0.782811 0.340104 0.112315
H39   H     H_    0.252723 0.080147 0.414560 0.113742
H40   H     H_    0.937806 0.763323 0.639087 0.114388
H41   H     H_    0.750236 0.072086 0.614826 0.120014
H42   H     H_    0.075227 0.250994 0.605121 0.144946
H43   H     H_    0.252961 0.920690 0.602308 0.130455
H44   H     H_    0.073122 0.942472 0.066493 0.343762
H45   H     H_    0.845857 0.838212 0.228925 0.212786
H46   H     H_    0.414306 0.145002 0.495546 0.323836
H47   H     H_    0.046991 0.243423 0.185515 0.335256
H48   H     H_    0.676462 0.762858 0.558519 0.332771
H49   H     H_    0.131677 0.416785 0.557799 0.326477
H50   H     H_    0.328873 0.793999 0.453496 0.329675
H51   H     H_    0.852445 0.608726 0.606854 0.343866
H52   H     H_    0.760775 0.383043 0.471619 0.326073
H53   H     H_    0.568856 0.432850 0.566997 0.344789
H54   H     H_    0.894235 0.652919 0.996605 0.325198
H55   H     H_    0.542774 0.726948 0.685288 0.326104
H56   H     H_    0.656124 0.174758 0.359243 0.220689
H57   H     H_    0.112935 0.321773 0.944196 0.347558
H58   H     H_    0.454806 0.719092 0.333333 0.322211
H59   H     H_    0.834152 0.307074 0.950824 0.328555
H60   H     H_    0.372818 0.110611 0.120634 0.337146
H61   H     H_    0.265216 0.891779 0.972952 0.321689
H62   H     H_    0.189711 0.419240 0.408829 0.203669
H63   H     H_    0.216902 0.694333 0.399745 0.236735
H64   H     H_    0.212322 0.598406 0.254596 0.195897
N1    N     N_R   0.425360 0.368540 0.922560 -0.063306
N2    N     N_R   0.131460 0.925360 0.422560 -0.066895
N3    N     N_R   0.074640 0.131460 0.422560 -0.061674
N4    N     N_R   0.868540 0.074640 0.422560 -0.059665
N5    N     N_R   0.925360 0.131460 0.577440 -0.065395
N6    N     N_R   0.131460 0.074640 0.577440 -0.067875
N7    N     N_R   0.074640 0.868540 0.577440 -0.068963
N8    N     N_R   0.868540 0.925360 0.577440 -0.067901
N9    N     N_R   0.425340 0.631500 0.922560 -0.052002
N10   N     N_R   0.368500 0.425340 0.922560 -0.061833
N11   N     N_R   0.574660 0.368500 0.922560 -0.050937
N12   N     N_R   0.631460 0.425360 0.922560 -0.068916
N13   N     N_R   0.631500 0.574660 0.922560 -0.059830
N14   N     N_R   0.425340 0.368500 0.077440 -0.055148
N15   N     N_R   0.368500 0.574660 0.077440 -0.058227
N16   N     N_R   0.574660 0.631500 0.077440 -0.056600
N17   N     N_R   0.631500 0.425340 0.077440 -0.059852
N18   N     N_R   0.925340 0.131500 0.422560 -0.053111
N19   N     N_R   0.868500 0.925340 0.422560 -0.056455
N20   N     N_R   0.074660 0.868500 0.422560 -0.051076
N21   N     N_R   0.131500 0.074660 0.422560 -0.055797
N22   N     N_R   0.925340 0.868500 0.577440 -0.064168
N23   N     N_R   0.574640 0.631460 0.922560 -0.058734
N24   N     N_R   0.868500 0.074660 0.577440 -0.057756
N25   N     N_R   0.074660 0.131500 0.577440 -0.063819
N26   N     N_R   0.131500 0.925340 0.577440 -0.057865
N27   N     N_1   0.444224 0.165287 0.919398 -0.072781
N28   N     N_1   0.814769 0.465597 0.840837 -0.023756
N29   N     N_1   0.557967 0.822942 0.977130 -0.073977
N30   N     N_1   0.175126 0.543861 0.866981 -0.029011
N31   N     N_1   0.448229 0.835616 0.099116 -0.043448
N32   N     N_1   0.809139 0.521924 0.163273 -0.072618
N33   N     N_1   0.544928 0.167166 0.063478 -0.055456
N34   N     N_R   0.368540 0.574640 0.922560 -0.063655
N35   N     N_1   0.172073 0.446844 0.128599 -0.061354
N36   N     N_1   0.955247 0.666840 0.430009 -0.070355
N37   N     N_1   0.313864 0.965446 0.338688 -0.012469
N38   N     N_1   0.048036 0.332244 0.433265 -0.068261
N39   N     N_1   0.695461 0.013946 0.330418 -0.054191
N40   N     N_1   0.950533 0.334232 0.598293 -0.036614
N41   N     N_1   0.331885 0.046793 0.586266 -0.077765
N42   N     N_1   0.045294 0.665887 0.574206 -0.049919
N43   N     N_1   0.670597 0.937584 0.570330 -0.056286
N44   N     N_R   0.425360 0.631460 0.077440 -0.061568
N45   N     N_R   0.631460 0.574640 0.077440 -0.067383
N46   N     N_R   0.574640 0.368540 0.077440 -0.066470
N47   N     N_R   0.368540 0.425360 0.077440 -0.064827
N48   N     N_R   0.925360 0.868540 0.422560 -0.064244
Ni1   Ni    Ni4+2 0.500000 0.369720 0.000000 0.234451
Ni2   Ni    Ni4+2 0.630280 0.500000 0.000000 0.233151
Ni3   Ni    Ni4+2 0.500000 0.630280 0.000000 0.240547
Ni4   Ni    Ni4+2 0.369720 0.500000 0.000000 0.240404
Ni5   Ni    Ni4+2 0.000000 0.869720 0.500000 0.232187
Ni6   Ni    Ni4+2 0.130280 0.000000 0.500000 0.229730
Ni7   Ni    Ni4+2 0.000000 0.130280 0.500000 0.235246
Ni8   Ni    Ni4+2 0.869720 0.000000 0.500000 0.236004
O1    O     O_2   0.138237 0.965475 0.185018 -0.611939
O2    O     O_R   0.157108 0.368496 0.578638 -0.826542
O3    O     O_2   0.412172 0.789776 0.562006 -0.570411
O4    O     O_R   0.298258 0.776972 0.500262 -0.827330
O5    O     O_2   0.892439 0.611076 0.737342 -0.588809
O6    O     O_R   0.831265 0.656609 0.632801 -0.768933
O7    O     O_2   0.746264 0.249934 0.509466 -0.672606
O8    O     O_R   0.753673 0.379833 0.529064 -0.776863
O9    O     O_2   0.635469 0.460807 0.683691 -0.617971
O10   O     O_R   0.599076 0.385701 0.583593 -0.784928
O11   O     O_2   0.935116 0.671910 0.866965 -0.598062
O12   O     O_R   0.101892 0.894130 0.082290 -0.785617
O13   O     O_R   0.849919 0.674347 0.965663 -0.830121
O14   O     O_2   0.448496 0.623692 0.680540 -0.621039
O15   O     O_R   0.489045 0.748940 0.692064 -0.777414
O16   O     O_2   0.083815 0.339028 0.811917 -0.593205
O17   O     O_R   0.160216 0.309507 0.912118 -0.798651
O18   O     O_2   0.545256 0.614404 0.324224 -0.641804
O19   O     O_R   0.509131 0.740800 0.327084 -0.750326
O20   O     O_2   0.915384 0.301943 0.060872 -0.599384
O21   O     O_R   0.803800 0.285386 0.995871 -0.831131
O22   O     O_2   0.443226 0.153568 0.230696 -0.625963
O23   O     O_2   0.404914 0.107762 0.365298 -0.595668
O24   O     O_R   0.339894 0.147566 0.151522 -0.764341
O25   O     O_2   0.249914 0.757609 0.006794 -0.679098
O26   O     O_R   0.256292 0.886913 0.030045 -0.776653
O27   O     O_R   0.375745 0.179702 0.469198 -0.814021
O28   O     O_2   0.962472 0.132752 0.172210 -0.620381
O29   O     O_R   0.991253 0.260254 0.190875 -0.763085
O30   O     O_2   0.592000 0.781517 0.452096 -0.568264
O31   O     O_R   0.705105 0.751353 0.509211 -0.771370
O32   O     O_2   0.133612 0.422132 0.694365 -0.591530

loop_
_geom_bond_atom_site_label_1
_geom_bond_atom_site_label_2
_ccdc_geom_bond_type
N2    Ni6   S    
C55   H10   S    
C67   H5    S    
N21   Ni6   S    
C23   C112  S    
C82   H37   S    
C30   N40   T    
C59   C66   S    
C18   N28   T    
C103  C141  S    
C7    C42   S    
C32   C52   S    
N45   Ni2   S    
C109  C127  A    
C60   H15   S    
N11   Ni1   S    
C80   N17   A    
C65   H3    S    
N3    N21   A    
C66   H4    S    
C100  C135  S    
C61   H62   S    
C115  C132  A    
C63   C115  S    
N22   Ni5   S    
C82   C98   A    
N2    N20   A    
C107  C124  A    
N19   Ni8   S    
C87   H42   S    
C21   C90   S    
C14   C144  A    
C84   C100  A    
H50   O4    S    
C97   C131  S    
C113  C130  A    
C116  C133  A    
N23   Ni3   S    
C52   N7    A    
C94   C132  S    
C101  N45   A    
N1    Ni1   S    
C71   H8    S    
C71   H26   S    
C19   C68   S    
C51   O26   S    
C54   H1    S    
C60   C65   S    
C85   H40   S    
C63   H64   S    
C59   H45   S    
N6    N25   A    
C120  C138  A    
H57   O17   S    
C117  C135  A    
C118  C136  A    
N20   Ni5   S    
C14   C130  A    
H60   O24   S    
C37   O29   S    
C91   C125  S    
C64   H2    S    
C65   C113  S    
C76   H31   S    
C81   H36   S    
N9    Ni3   S    
C73   C89   A    
C49   O20   D    
C87   N25   A    
C69   H24   S    
H53   O10   S    
C109  C121  A    
H54   O13   S    
C37   O28   D    
C20   N30   T    
C68   C92   A    
C42   O8    S    
C53   N8    A    
C60   H56   S    
C134  N48   A    
C40   O3    D    
C58   C67   S    
C86   H41   S    
C108  C126  A    
N18   Ni7   S    
C78   N16   A    
N15   N44   A    
C37   C144  S    
C78   H33   S    
C16   C51   S    
C6    C9    A    
C7    C8    A    
C43   O10   S    
C133  C142  A    
C69   H6    S    
C70   H25   S    
C51   O25   D    
C27   N37   T    
C59   H14   S    
C62   H17   S    
C115  C116  A    
C77   C94   A    
C31   N41   T    
C111  C119  A    
N9    N34   A    
C45   O15   S    
C31   C46   S    
C41   O5    D    
C23   N33   T    
N25   Ni7   S    
H59   O21   S    
C135  C143  A    
C75   H30   S    
C53   C106  A    
C77   N15   A    
C5    C139  A    
C83   N20   A    
C114  C117  A    
C64   C114  S    
C81   N18   A    
C1    N1    A    
C80   H35   S    
C107  C125  A    
C61   H16   S    
N46   Ni1   S    
N12   Ni2   S    
C26   C134  S    
C67   C110  S    
C112  N46   A    
C10   C45   S    
C58   H34   S    
C28   N38   T    
C73   H28   S    
C25   C123  S    
N16   Ni3   S    
C15   C143  A    
C21   N31   T    
C2    C99   A    
C77   H32   S    
C124  C141  A    
C85   C106  A    
C7    C141  A    
N47   Ni4   S    
N24   Ni8   S    
C66   H21   S    
C70   H7    S    
C58   H13   S    
C52   C105  A    
C68   N23   A    
N19   N48   A    
C57   N12   A    
C1    C17   S    
C86   N24   A    
C121  C139  A    
C122  C140  A    
C97   C123  A    
C70   C108  S    
C88   C105  A    
C56   H23   S    
C73   N10   A    
N14   Ni1   S    
N26   Ni6   S    
C15   C131  A    
C56   C69   S    
C110  C128  A    
C38   O30   D    
C95   C101  A    
C36   O27   S    
C71   C107  S    
C114  C131  A    
C13   N3    A    
C34   O1    D    
C11   C47   S    
C8    C43   S    
C12   C48   S    
N14   N47   A    
C22   C101  S    
N5    Ni7   S    
H49   O2    S    
N17   Ni2   S    
C35   C103  A    
C19   N29   T    
C24   C29   S    
C47   O17   S    
C111  C129  A    
C88   H43   S    
H55   O15   S    
C54   C71   S    
N16   N45   A    
C13   C28   S    
C60   C118  S    
C2    C27   S    
C3    C137  A    
C66   C111  S    
C123  N47   A    
N4    N18   A    
C83   C99   A    
N48   Ni5   S    
N7    N26   A    
C64   H19   S    
C48   O19   S    
H58   O19   S    
C90   C94   A    
C22   N32   T    
C25   N35   T    
C12   C129  A    
C98   C137  S    
C61   C117  S    
C72   H27   S    
N8    Ni8   S    
N11   N12   A    
C76   C97   A    
C46   C104  A    
C74   C91   A    
C61   C64   S    
C62   C63   S    
C105  C139  S    
C18   C57   S    
C106  C140  S    
C78   C95   A    
C58   C120  S    
C4    C11   A    
C84   N21   A    
C35   N5    A    
C72   C93   A    
C40   O4    S    
C62   H63   S    
C47   O16   D    
C96   C130  S    
C54   C124  S    
C34   C142  S    
C59   C119  S    
C57   C91   A    
C20   C79   S    
C50   O24   S    
N6    Ni6   S    
C85   N22   A    
C92   C126  S    
C43   O9    D    
C88   N26   A    
C82   N19   A    
N3    Ni7   S    
N10   Ni4   S    
C136  C144  A    
C34   O12   S    
H52   O8    S    
C24   C102  A    
C6    C140  A    
C16   C132  A    
C102  C136  S    
C4    C138  A    
C87   C104  A    
C8    C125  A    
C44   O11   D    
C45   O14   D    
C5    C40   S    
C95   C129  S    
C36   O23   D    
N44   Ni3   S    
C89   C128  S    
C63   H18   S    
N7    Ni5   S    
C54   H9    S    
C24   N4    A    
C39   O2    S    
C72   N9    A    
C96   C112  A    
C49   O21   S    
C30   C35   S    
N1    N10   A    
C36   C143  S    
C79   C93   A    
N15   Ni4   S    
C26   N36   T    
C79   N34   A    
C14   C49   S    
C32   N42   T    
C42   O7    D    
C99   C133  S    
C15   C50   S    
H61   O26   S    
C33   N43   T    
C3    C12   A    
C69   C109  S    
H46   O27   S    
C3    C38   S    
N17   N46   A    
C46   N6    A    
C6    C41   S    
C74   N11   A    
N8    N22   A    
C80   C96   A    
C55   C122  S    
C50   O22   D    
C29   N39   T    
C56   H11   S    
C86   C103  A    
C81   C102  A    
C17   N27   T    
C33   C53   S    
C55   H12   S    
C2    N2    A    
C119  C137  A    
C74   H29   S    
C110  C120  A    
C48   O18   D    
H44   O12   S    
C76   N14   A    
C90   N44   A    
C83   H38   S    
C16   C142  A    
C93   C127  S    
C62   C116  S    
C44   O13   S    
C4    C39   S    
H47   O29   S    
N13   N23   A    
C41   O6    S    
N5    N24   A    
C75   C92   A    
C67   H22   S    
C38   O31   S    
C10   C127  A    
N4    Ni8   S    
C9    C44   S    
C1    C89   A    
N34   Ni4   S    
C84   H39   S    
C108  C122  A    
H48   O31   S    
C98   C134  A    
C9    C126  A    
C56   C121  S    
C13   C100  A    
C11   C128  A    
C5    C10   A    
C65   H20   S    
C104  C138  S    
C55   C70   S    
C113  C118  A    
C75   N13   A    
C39   O32   D    
H51   O6    S    
N13   Ni2   S    
