data_mof_unit_48301.cif
_audit_creation_date              2012-12-10T18:09:45-0500
_audit_creation_method            fapswitch 2.2
_symmetry_space_group_name_H-M    P1
_symmetry_Int_Tables_number       1
_space_group_crystal_system       triclinic
_cell_length_a                    10.722306
_cell_length_b                    12.664281
_cell_length_c                    13.080376
_cell_angle_alpha                 81.602183
_cell_angle_beta                  92.159601
_cell_angle_gamma                 102.812893
_cell_volume                      1713.36404924

loop_
_atom_site_label
_atom_site_type_symbol
_atom_type_description
_atom_site_fract_x
_atom_site_fract_y
_atom_site_fract_z
_atom_type_partial_charge
C1    C     C_R   0.486900 0.438514 0.691911 0.853724
C2    C     C_3   0.122475 0.500392 0.497803 0.045537
C3    C     C_3   0.070391 0.498601 0.386078 -0.629190
C4    C     C_3   0.103094 0.606028 0.536980 -0.489059
C5    C     C_R   0.673694 0.715022 0.063477 -0.035977
C6    C     C_R   0.529340 0.605846 0.197604 -0.238740
C7    C     C_R   0.401415 0.299170 0.840940 -0.148102
C8    C     C_R   0.377220 0.271822 0.946429 -0.121775
C9    C     C_R   0.423762 0.348286 0.013043 -0.051312
C10   C     C_R   0.499138 0.452150 0.974963 0.083158
C11   C     C_R   0.546416 0.468080 0.873774 -0.056416
C12   C     C_R   0.742257 0.501030 0.499512 1.003021
C13   C     C_R   0.533528 0.538846 0.035327 0.076751
C14   C     C_R   0.635470 0.629546 0.002339 -0.015605
C15   C     C_R   0.695211 0.633589 0.908125 -0.188429
C16   C     C_R   0.655132 0.552859 0.846176 0.404890
C17   C     C_R   0.468380 0.539546 0.126604 -0.058879
C18   C     C_R   0.620185 0.703083 0.162470 -0.047229
C19   C     C_R   0.482930 0.399091 0.803392 -0.127231
C20   C     C_R   0.351400 0.097526 0.323531 0.407543
C21   C     C_R   0.660619 0.800707 0.625042 -0.089772
C22   C     C_R   0.704000 0.907951 0.645419 0.365367
C23   C     C_R   0.512369 0.562420 0.308117 0.895206
C24   C     C_R   0.645281 0.988658 0.594564 -0.110207
C25   C     C_R   0.540406 0.962602 0.526633 0.004662
C26   C     C_R   0.508317 0.854556 0.503334 0.219526
C27   C     C_R   0.473413 0.040764 0.475147 -0.099783
C28   C     C_R   0.392740 0.013609 0.389266 -0.047476
C29   C     C_R   0.359611 0.903640 0.369918 -0.022857
C30   C     C_R   0.419555 0.827389 0.425930 -0.337857
C31   C     C_R   0.484282 0.145259 0.505127 0.435071
C32   C     C_R   0.368017 0.200515 0.355404 0.379220
C33   C     C_R   0.258469 0.499575 0.499282 0.867767
C34   C     C_3   0.908778 0.404854 0.576652 0.182177
C35   C     C_3   0.050100 0.399512 0.569649 -0.420066
C36   C     C_3   0.922147 0.485316 0.384237 -0.166257
C37   C     C_3   0.961958 0.613697 0.528642 0.821463
C38   C     C_3   0.880380 0.502777 0.496314 -0.034162
H1    H     H_    0.848130 0.325983 0.558744 0.093929
H2    H     H_    0.163586 0.680673 0.493353 0.165700
H3    H     H_    0.118969 0.576190 0.338426 0.158992
H4    H     H_    0.775571 0.698373 0.881142 0.205278
H5    H     H_    0.354373 0.243625 0.788696 0.181872
H6    H     H_    0.400880 0.325485 0.094113 0.178215
H7    H     H_    0.316964 0.193560 0.975922 0.171534
H8    H     H_    0.705803 0.736689 0.661512 0.202545
H9    H     H_    0.689430 0.071434 0.605117 0.207706
H10   H     H_    0.396484 0.746398 0.406329 0.191035
H11   H     H_    0.095477 0.395828 0.647768 0.204010
H12   H     H_    0.056302 0.323163 0.539318 0.166140
H13   H     H_    0.098934 0.432186 0.351472 0.196773
H14   H     H_    0.136333 0.604746 0.618874 0.217285
N1    N     N_R   0.433240 0.222190 0.444680 -0.200028
N2    N     N_R   0.566070 0.776970 0.554790 -0.139042
O1    O     O_R   0.468120 0.366740 0.627160 -0.614930
O2    O     O_R   0.510770 0.544830 0.662520 -0.583469
O3    O     O_R   0.663880 0.410950 0.482330 -0.654442
O4    O     O_R   0.706530 0.589040 0.517700 -0.508957
O5    O     O_R   0.489230 0.455170 0.337480 -0.563675
O6    O     O_R   0.531880 0.633260 0.372840 -0.641856
O7    O     O_R   0.293470 0.410960 0.482300 -0.654138
O8    O     O_R   0.336120 0.589050 0.517670 -0.648366
Zn1   Zn    Zn3+2 0.471520 0.381090 0.476390 0.979006
Zn2   Zn    Zn3+2 0.528480 0.618910 0.523610 0.998297
C39   C     C_2   0.888492 0.565232 0.294330 0.512000
H15   H     H_    0.935418 0.574382 0.220393 0.101085
O9    O     O_2   0.806621 0.616588 0.301547 -0.534747
C40   C     C_2   0.657566 0.791953 0.228076 0.502886
H16   H     H_    0.585225 0.814603 0.270652 0.049998
O10   O     O_2   0.768859 0.840122 0.235521 -0.481131
C41   C     C_2   0.768352 0.816905 0.025654 0.489442
H17   H     H_    0.742980 0.895580 0.023069 0.077465
O11   O     O_2   0.877042 0.813960 0.003612 -0.526570
C42   C     C_2   0.328473 0.493609 0.140821 0.424444
H18   H     H_    0.285878 0.483128 0.216515 0.054594
O12   O     O_2   0.257580 0.475516 0.067136 -0.544033
O13   O     O_3   0.881699 0.415961 0.678070 -0.718620
H19   H     H_    0.876115 0.343382 0.720619 0.345737
O14   O     O_3   0.731609 0.554754 0.763774 -0.693880
H20   H     H_    0.718155 0.479416 0.747500 0.367980
O15   O     O_3   0.315705 0.278070 0.295450 -0.798764
H21   H     H_    0.286937 0.321570 0.342306 0.368245
C43   C     C_2   0.255436 0.860085 0.299147 0.522356
H22   H     H_    0.264461 0.794105 0.257367 -0.002367
O16   O     O_2   0.155179 0.891297 0.292841 -0.473159
O17   O     O_3   0.302034 0.078890 0.226771 -0.715852
H23   H     H_    0.281186 0.145871 0.187868 0.376332
O18   O     O_3   0.534577 0.165933 0.599996 -0.776127
H24   H     H_    0.584595 0.241822 0.591000 0.370610
O19   O     O_3   0.804823 0.936834 0.711797 -0.743342
H25   H     H_    0.835871 0.870346 0.740586 0.342177
C44   C     C_2   0.861291 0.370470 0.359509 0.400485
H26   H     H_    0.901083 0.301247 0.392541 0.076468
O20   O     O_2   0.767098 0.353521 0.303524 -0.534504
O21   O     O_3   0.944863 0.705101 0.457614 -0.704979
H27   H     H_    0.003888 0.716274 0.398640 0.347464
O22   O     O_3   0.923095 0.628257 0.626268 -0.650249
H28   H     H_    0.967040 0.702852 0.639368 0.350445

loop_
_geom_bond_atom_site_label_1
_geom_bond_atom_site_label_2
_ccdc_geom_bond_type
C2    C35   S    
C8    C9    A    
O21   H27   S    
C37   O22   S    
O22   H28   S    
C7    C8    A    
O13   H19   S    
C23   O5    A    
C32   O15   S    
C11   C19   A    
C29   C30   A    
C42   O12   D    
C4    H14   S    
C30   H10   S    
C28   C29   A    
C1    O2    A    
C29   C43   S    
C34   O13   S    
C21   N2    A    
C18   C40   S    
C15   C16   A    
C37   O21   S    
C34   C35   S    
O7    Zn1   S    
C8    H7    S    
O8    Zn2   S    
C4    H2    S    
C33   O8    A    
C39   O9    D    
O1    Zn1   S    
C35   H11   S    
O2    Zn2   S    
C7    H5    S    
C9    C10   A    
C12   O4    A    
C36   C44   S    
C34   C38   S    
C21   C22   A    
C26   N2    A    
O3    Zn1   S    
C4    C37   S    
O4    Zn2   S    
C23   O6    A    
C6    C18   A    
C1    C19   S    
C42   H18   S    
C27   C31   A    
C34   H1    S    
C24   C25   A    
C41   O11   D    
C3    H13   S    
C36   C39   S    
C40   H16   S    
C5    C18   A    
C20   C28   A    
C25   C26   A    
O15   H21   S    
C20   O17   S    
C2    C4    S    
C37   C38   S    
C11   C16   A    
C43   H22   S    
C35   H12   S    
C44   O20   D    
C22   O19   S    
C31   N1    A    
C5    C14   A    
C12   O3    A    
C2    C33   S    
C33   O7    A    
C43   O16   D    
C26   C30   A    
C7    C19   A    
C17   C42   S    
C22   C24   A    
C32   N1    A    
C21   H8    S    
C20   C32   A    
C6    C17   A    
C3    H3    S    
C9    H6    S    
C31   O18   S    
O17   H23   S    
C24   H9    S    
C15   H4    S    
C10   C13   A    
C25   C27   A    
O5    Zn1   S    
C13   C17   A    
O6    Zn2   S    
C16   O14   S    
C36   C38   S    
C2    C3    S    
C1    O1    A    
C41   H17   S    
C5    C41   S    
N1    Zn1   S    
O19   H25   S    
N2    Zn2   S    
C3    C36   S    
C6    C23   S    
C44   H26   S    
C12   C38   S    
C10   C11   A    
O14   H20   S    
O18   H24   S    
C40   O10   D    
C39   H15   S    
C27   C28   A    
C14   C15   A    
C13   C14   A    
