data_mof_unit_27878.cif
_audit_creation_date              2012-12-10T16:52:39-0500
_audit_creation_method            fapswitch 2.2
_symmetry_space_group_name_H-M    P1
_symmetry_Int_Tables_number       1
_space_group_crystal_system       triclinic
_cell_length_a                    7.839808
_cell_length_b                    8.569274
_cell_length_c                    13.794355
_cell_angle_alpha                 93.320835
_cell_angle_beta                  93.1776
_cell_angle_gamma                 94.24748
_cell_volume                      920.966289498

loop_
_atom_site_label
_atom_site_type_symbol
_atom_type_description
_atom_site_fract_x
_atom_site_fract_y
_atom_site_fract_z
_atom_type_partial_charge
C1    C     C_R   0.045204 0.794686 0.497621 0.965816
C2    C     C_R   0.936891 0.489129 0.317986 0.867791
C3    C     C_R   0.100642 0.547419 0.785365 -0.069052
C4    C     C_R   0.907504 0.482050 0.212964 -0.058759
C5    C     C_R   0.079871 0.714867 0.930314 -0.191263
C6    C     C_R   0.966030 0.379245 0.052781 -0.189848
C7    C     C_R   0.013986 0.658022 0.838085 -0.189995
C8    C     C_R   0.014144 0.404394 0.151386 -0.194809
C9    C     C_R   0.247670 0.490558 0.825560 -0.278137
C10   C     C_R   0.762044 0.545538 0.175147 -0.275346
C11   C     C_R   0.326873 0.559193 0.912086 0.091672
C12   C     C_R   0.954815 0.205321 0.502451 0.964588
C13   C     C_R   0.711747 0.523454 0.076539 0.087213
C14   C     C_R   0.237487 0.668179 0.967031 0.174200
C15   C     C_R   0.812166 0.432839 0.015775 0.179674
C16   C     C_R   0.492796 0.522880 0.944484 0.062489
C17   C     C_R   0.557143 0.578473 0.038937 0.062519
C18   C     C_R   0.464929 0.686898 0.092546 -0.230458
C19   C     C_R   0.598334 0.436790 0.884416 -0.236611
C20   C     C_R   0.308311 0.731568 0.056557 -0.225573
C21   C     C_R   0.755915 0.393815 0.919604 -0.222214
C22   C     C_2   0.068666 0.958458 0.496263 -0.385363
C23   C     C_2   0.931378 0.041555 0.503908 -0.387931
C24   C     C_R   0.063776 0.513898 0.681893 0.866278
H1    H     H_    0.242463 0.816184 0.099035 0.146602
H2    H     H_    0.301760 0.396634 0.785091 0.149551
H3    H     H_    0.513795 0.744512 0.161071 0.148066
H4    H     H_    0.565152 0.404716 0.808645 0.157107
H5    H     H_    0.487099 0.374430 0.427661 0.188743
H6    H     H_    0.512905 0.625527 0.572373 0.189498
H7    H     H_    0.832477 0.326894 0.871771 0.149908
H8    H     H_    0.129187 0.356467 0.180103 0.157860
H9    H     H_    0.899465 0.703752 0.806935 0.159561
H10   H     H_    0.011560 0.799610 0.971112 0.138377
H11   H     H_    0.045604 0.313354 0.006232 0.140732
H12   H     H_    0.197953 0.010050 0.488965 0.179009
H13   H     H_    0.802093 0.989962 0.511216 0.179177
H14   H     H_    0.683396 0.602908 0.225608 0.159021
N1    N     N_2   0.440860 0.456490 0.474790 -0.173910
N2    N     N_2   0.559140 0.543510 0.525210 -0.174642
O1    O     O_R   0.891570 0.738930 0.506190 -0.611944
O2    O     O_R   0.108430 0.261070 0.493810 -0.611453
O3    O     O_R   0.174650 0.711050 0.490030 -0.624257
O4    O     O_R   0.825350 0.288950 0.509970 -0.625054
O5    O     O_R   0.909850 0.521900 0.644940 -0.618929
O6    O     O_R   0.090150 0.478100 0.355060 -0.615905
O7    O     O_R   0.192930 0.494020 0.628780 -0.616980
O8    O     O_R   0.807070 0.505980 0.371220 -0.622085
Zn1   Zn    Zn3+2 0.810990 0.518620 0.510790 0.930705
Zn2   Zn    Zn3+2 0.189010 0.481380 0.489210 0.934360

loop_
_geom_bond_atom_site_label_1
_geom_bond_atom_site_label_2
_ccdc_geom_bond_type
O4    Zn1   S    
C2    C4    S    
O3    Zn2   S    
C3    C9    A    
O5    Zn1   S    
C9    C11   A    
C11   C16   A    
O6    Zn2   S    
C18   C20   A    
C13   C17   A    
C10   H14   S    
C5    H10   S    
H5    N1    S    
C17   C18   A    
C5    C14   A    
H6    N2    S    
C1    C22   S    
C12   O4    A    
C2    O6    A    
C19   H4    S    
C21   H7    S    
C12   C23   S    
C3    C24   S    
O2    Zn2   S    
C16   C19   A    
C6    C8    A    
C24   O5    A    
O1    Zn1   S    
O8    Zn1   S    
C19   C21   A    
C9    H2    S    
O7    Zn2   S    
C3    C7    A    
C13   C15   A    
C11   C14   A    
C20   H1    S    
C7    H9    S    
N1    N2    D    
C4    C10   A    
N2    Zn1   S    
C8    H8    S    
C14   C20   A    
C15   C21   A    
N1    Zn2   S    
C22   H12   S    
C6    H11   S    
C1    O1    A    
C4    C8    A    
C5    C7    A    
C22   C23   D    
C12   O2    A    
C2    O8    A    
C6    C15   A    
C23   H13   S    
C24   O7    A    
C1    O3    A    
C18   H3    S    
C16   C17   A    
C10   C13   A    
