data_mof_unit_48191.cif
_audit_creation_date              2012-12-10T18:22:29-0500
_audit_creation_method            fapswitch 2.2
_symmetry_space_group_name_H-M    P1
_symmetry_Int_Tables_number       1
_space_group_crystal_system       triclinic
_cell_length_a                    23.580283
_cell_length_b                    10.801008
_cell_length_c                    9.509537
_cell_angle_alpha                 90.303913
_cell_angle_beta                  89.334462
_cell_angle_gamma                 90.958028
_cell_volume                      2421.45825978

loop_
_atom_site_label
_atom_site_type_symbol
_atom_type_description
_atom_site_fract_x
_atom_site_fract_y
_atom_site_fract_z
_atom_type_partial_charge
C1    C     C_R   0.499378 0.259573 0.499730 0.926137
C2    C     C_R   0.500647 0.740456 0.500240 0.932190
C3    C     C_R   0.240148 0.600205 0.567120 -0.123394
C4    C     C_R   0.760934 0.400778 0.444305 -0.122915
C5    C     C_R   0.299473 0.605713 0.558303 -0.046431
C6    C     C_R   0.701454 0.395680 0.445694 -0.051179
C7    C     C_R   0.328898 0.501992 0.502319 -0.163857
C8    C     C_R   0.671106 0.499318 0.498834 -0.162862
C9    C     C_R   0.297544 0.399278 0.447135 -0.061500
C10   C     C_R   0.701483 0.602342 0.556424 -0.057152
C11   C     C_R   0.238225 0.403336 0.446076 -0.120308
C12   C     C_R   0.760598 0.598115 0.564363 -0.127071
C13   C     C_R   0.209254 0.501141 0.509318 0.261774
C14   C     C_R   0.790681 0.499735 0.505929 0.269607
C15   C     C_3   0.539805 0.045055 0.589126 -0.241398
C16   C     C_3   0.460195 0.955055 0.410710 -0.238446
C17   C     C_3   0.552049 0.961512 0.458668 -0.172649
C18   C     C_3   0.447947 0.038632 0.541150 -0.172693
C19   C     C_3   0.500795 0.877584 0.500191 -0.062587
C20   C     C_3   0.499212 0.122507 0.499663 -0.063549
C21   C     C_3   0.488851 0.960506 0.627449 0.309957
C22   C     C_3   0.511141 0.039612 0.372395 0.308986
C23   C     C_R   0.391397 0.500885 0.500709 0.916666
C24   C     C_R   0.608600 0.498969 0.499366 0.917053
C25   C     C_3   0.496816 0.612353 0.052191 -0.164362
C26   C     C_3   0.503192 0.387636 0.947819 -0.164774
C27   C     C_3   0.454313 0.548123 0.952868 0.038706
C28   C     C_3   0.545691 0.451873 0.047156 0.036938
C29   C     C_3   0.541935 0.562485 0.950180 0.298332
C30   C     C_3   0.458068 0.437507 0.049832 0.298572
C31   C     C_R   0.882204 0.602456 0.469192 0.550291
C32   C     C_R   0.119026 0.399051 0.566803 0.576696
C33   C     C_R   0.879034 0.398693 0.561593 0.569828
C34   C     C_R   0.119611 0.602520 0.471545 0.557260
C35   C     C_R   0.938849 0.393583 0.557341 -0.065785
C36   C     C_R   0.060578 0.610200 0.491396 -0.076414
C37   C     C_R   0.970054 0.501828 0.525095 -0.108546
C38   C     C_R   0.029881 0.501901 0.527451 -0.120724
C39   C     C_R   0.941315 0.610258 0.490105 -0.071395
C40   C     C_R   0.058963 0.394436 0.566425 -0.063973
C41   C     C_R   0.967759 0.283477 0.585161 0.206319
C42   C     C_R   0.031799 0.723676 0.481709 0.246963
C43   C     C_R   0.027328 0.285703 0.600095 0.193127
C44   C     C_R   0.972031 0.723790 0.485040 0.189523
Cu1   Cu    Cu3+1 0.500010 0.499990 0.643150 1.003566
Cu2   Cu    Cu3+1 0.499990 0.500010 0.356850 1.005039
H1    H     H_    0.494062 0.706206 0.099086 0.160945
H2    H     H_    0.505959 0.293785 0.900929 0.160738
H3    H     H_    0.217129 0.675389 0.615723 0.192886
H4    H     H_    0.784844 0.325205 0.399368 0.197219
H5    H     H_    0.213901 0.327660 0.400261 0.201162
H6    H     H_    0.784022 0.673769 0.612970 0.192859
H7    H     H_    0.594513 0.931439 0.422417 0.187408
H8    H     H_    0.405504 0.069174 0.577069 0.186057
H9    H     H_    0.571515 0.082318 0.664392 0.170499
H10   H     H_    0.428495 0.917799 0.335415 0.172063
N1    N     N_R   0.851902 0.499819 0.511109 -0.459244
N2    N     N_R   0.147975 0.500377 0.515030 -0.465561
N3    N     N_3   0.500040 0.499970 0.858290 -0.244633
N4    N     N_3   0.499960 0.500030 0.141710 -0.244793
O1    O     O_R   0.500030 0.316850 0.620870 -0.602055
O2    O     O_R   0.499970 0.683150 0.379130 -0.601469
O3    O     O_R   0.500000 0.316860 0.379090 -0.573634
O4    O     O_R   0.500000 0.683140 0.620910 -0.574237
O5    O     O_R   0.417890 0.499960 0.620920 -0.548809
O6    O     O_R   0.582110 0.500040 0.379080 -0.546909
O7    O     O_R   0.417870 0.499970 0.379140 -0.577370
O8    O     O_R   0.582130 0.500030 0.620860 -0.579074
O9    O     O_2   0.855297 0.695318 0.405103 -0.542982
O10   O     O_2   0.148459 0.303590 0.617939 -0.503496
O11   O     O_2   0.848261 0.304944 0.618951 -0.499091
O12   O     O_2   0.148369 0.695428 0.406634 -0.494642
N5    N     N_2   0.937217 0.168945 0.582929 -0.386610
H11   H     H_    0.951624 0.101122 0.648215 0.256723
C45   C     C_3   0.922869 0.126219 0.442796 -0.600755
H12   H     H_    0.959472 0.077819 0.394391 0.200628
H13   H     H_    0.911156 0.204178 0.373621 0.223637
H14   H     H_    0.885420 0.063084 0.448781 0.249557
N6    N     N_2   0.062896 0.838096 0.481631 -0.372480
H15   H     H_    0.042651 0.911314 0.435957 0.255490
C46   C     C_3   0.088514 0.870060 0.615054 -0.592445
H16   H     H_    0.055079 0.891713 0.694100 0.197909
H17   H     H_    0.117247 0.951595 0.601126 0.256019
H18   H     H_    0.114286 0.793273 0.655527 0.230389
C47   C     C_2   0.401102 0.609473 0.907231 0.917084
O13   O     O_2   0.361661 0.547877 0.860574 -0.590637
O14   O     O_R   0.395371 0.736522 0.928900 -0.773427
H19   H     H_    0.356346 0.766728 0.904045 0.351158
C48   C     C_2   0.598902 0.390632 0.093033 0.920270
O15   O     O_2   0.638359 0.452365 0.139392 -0.589408
O16   O     O_R   0.604582 0.263470 0.072182 -0.772335
H20   H     H_    0.643520 0.233229 0.097817 0.350448
N7    N     N_2   0.589391 0.632344 0.891642 -0.405771
H21   H     H_    0.579652 0.676104 0.799557 0.297260
C49   C     C_3   0.618329 0.715008 0.988174 -0.664399
H22   H     H_    0.662648 0.730401 0.951312 0.273986
H23   H     H_    0.619212 0.676689 0.096123 0.267881
H24   H     H_    0.596734 0.805262 0.991381 0.193685
N8    N     N_2   0.410614 0.367674 0.108423 -0.405306
H25   H     H_    0.420380 0.323906 0.200480 0.298294
C50   C     C_3   0.381675 0.284972 0.011949 -0.664527
H26   H     H_    0.337457 0.269012 0.049275 0.273180
H27   H     H_    0.403463 0.194963 0.008187 0.193586
H28   H     H_    0.380511 0.323574 0.904166 0.268348
N9    N     N_2   0.055494 0.177149 0.642762 -0.388531
H29   H     H_    0.042842 0.098215 0.590170 0.249725
C51   C     C_3   0.058227 0.162387 0.793759 -0.603453
H30   H     H_    0.085833 0.083534 0.818839 0.229638
H31   H     H_    0.015249 0.144079 0.838800 0.195314
H32   H     H_    0.076657 0.247040 0.843490 0.254963
N10   N     N_2   0.943958 0.837854 0.507052 -0.446505
H33   H     H_    0.918856 0.863680 0.424910 0.294471
C52   C     C_3   0.918243 0.851669 0.645699 -0.620936
H34   H     H_    0.891578 0.934998 0.649820 0.242014
H35   H     H_    0.951778 0.860485 0.726243 0.218122
H36   H     H_    0.890100 0.771744 0.672570 0.231533
C53   C     C_2   0.328067 0.723912 0.602373 0.871754
O17   O     O_2   0.377717 0.744925 0.572287 -0.621514
O18   O     O_R   0.297187 0.814509 0.674168 -0.765843
H37   H     H_    0.320731 0.891740 0.695036 0.334736
C54   C     C_2   0.673585 0.277851 0.397673 0.869822
O19   O     O_2   0.623486 0.256593 0.422512 -0.618743
O20   O     O_R   0.705579 0.188012 0.327740 -0.764927
H38   H     H_    0.682429 0.110922 0.303803 0.333927
C55   C     C_2   0.324451 0.283722 0.395087 0.837673
O21   O     O_2   0.371541 0.255419 0.434457 -0.671068
O22   O     O_R   0.294749 0.203940 0.304746 -0.757812
H39   H     H_    0.317155 0.127768 0.278283 0.335842
C56   C     C_2   0.673774 0.718154 0.604911 0.834690
O23   O     O_2   0.627022 0.745183 0.562233 -0.671959
O24   O     O_R   0.702307 0.799565 0.695727 -0.763771
H40   H     H_    0.679375 0.875594 0.719678 0.335036
N11   N     N_2   0.477280 0.913703 0.767309 -0.363177
H41   H     H_    0.511519 0.870136 0.810296 0.253356
C57   C     C_3   0.450866 0.000694 0.862165 -0.670888
H42   H     H_    0.445302 0.958469 0.967586 0.250396
H43   H     H_    0.408252 0.025012 0.823626 0.233865
H44   H     H_    0.477668 0.085571 0.871717 0.203047
N12   N     N_2   0.522702 0.086397 0.232520 -0.361955
H45   H     H_    0.488454 0.129919 0.189521 0.253429
C58   C     C_3   0.549146 0.999431 0.137675 -0.670002
H46   H     H_    0.554671 0.041627 0.032230 0.249886
H47   H     H_    0.522391 0.914477 0.128186 0.202801
H48   H     H_    0.591787 0.975259 0.176166 0.234206

loop_
_geom_bond_atom_site_label_1
_geom_bond_atom_site_label_2
_ccdc_geom_bond_type
C57   H44   S    
C38   C40   A    
O14   H19   S    
N7    H21   S    
C8    C24   S    
C17   H7    S    
C18   C21   S    
N5    C45   S    
N5    H11   S    
C36   C42   A    
C49   H22   S    
C32   N2    A    
C46   H16   S    
C3    H3    S    
C49   H24   S    
O20   H38   S    
Cu1   Cu2   S    
N9    C51   S    
C50   H26   S    
Cu2   O2    S    
C28   C29   S    
C35   C37   A    
Cu2   O6    S    
C58   H47   S    
C11   C13   A    
C57   H43   S    
C43   N9    S    
C23   O7    A    
C27   C47   S    
N7    C49   S    
C12   H6    S    
C40   C43   A    
C29   N3    S    
C30   N4    S    
C33   N1    A    
C51   H30   S    
C28   C48   S    
C25   N4    S    
C48   O16   S    
C26   N3    S    
C25   H1    S    
C18   C20   S    
C3    C13   A    
C24   O6    A    
C52   H36   S    
Cu2   N4    S    
Cu1   O1    S    
C28   N4    S    
C42   N6    S    
C50   H27   S    
C27   C30   S    
C51   H31   S    
C42   C44   A    
C1    O3    A    
C21   N11   S    
C46   H17   S    
C2    O4    A    
C47   O14   S    
C25   C29   S    
C15   C20   S    
C57   H42   S    
C4    C6    A    
C58   H48   S    
O16   H20   S    
C5    C7    A    
C24   O8    A    
C17   C19   S    
C32   O10   S    
C13   N2    S    
C47   O13   D    
C30   N8    S    
C9    C55   S    
C5    C53   S    
C15   H9    S    
C45   H12   S    
C16   H10   S    
C37   C38   A    
C45   H13   S    
N8    H25   S    
C31   O9    S    
N12   H45   S    
Cu1   O8    S    
N10   C52   S    
C55   O22   S    
C9    C11   A    
C54   O19   D    
C10   C12   A    
C16   C18   S    
N8    C50   S    
C12   C14   A    
C26   C30   S    
C50   H28   S    
Cu1   O5    S    
C55   O21   D    
C51   H32   S    
O24   H40   S    
C34   O12   S    
C46   H18   S    
N11   C57   S    
C52   H34   S    
C15   C17   S    
C14   N1    S    
Cu1   N3    S    
C1    C20   S    
C16   C22   S    
N10   H33   S    
C19   C21   S    
C2    C19   S    
C26   C28   S    
C41   C43   A    
C20   C22   S    
C3    C5    A    
C1    O1    A    
C6    C8    A    
O18   H37   S    
C49   H23   S    
C39   C44   A    
C26   H2    S    
C25   C27   S    
N9    H29   S    
Cu1   O4    S    
N6    C46   S    
C17   C22   S    
Cu2   O3    S    
C23   O5    A    
C53   O18   S    
C56   O23   D    
C10   C56   S    
Cu2   O7    S    
C37   C39   A    
C27   N3    S    
C58   H46   S    
C29   N7    S    
N12   C58   S    
C31   N1    A    
N11   H41   S    
C16   C19   S    
C7    C23   S    
C22   N12   S    
C36   C38   A    
C33   C35   A    
C31   C39   A    
C34   C36   A    
C32   C40   A    
C4    C14   A    
C35   C41   A    
C45   H14   S    
C54   O20   S    
C11   H5    S    
C18   H8    S    
C33   O11   S    
C41   N5    S    
N6    H15   S    
C44   N10   S    
C7    C9    A    
C15   C21   S    
C8    C10   A    
C4    H4    S    
C34   N2    A    
C6    C54   S    
C56   O24   S    
C48   O15   D    
C53   O17   D    
C2    O2    A    
O22   H39   S    
C52   H35   S    
