data_mof_unit_53184.cif
_audit_creation_date              2012-10-26T19:21:06-0400
_audit_creation_method            fapswitch 2.2
_symmetry_space_group_name_H-M    P1
_symmetry_Int_Tables_number       1
_space_group_crystal_system       triclinic
_cell_length_a                    9.87059
_cell_length_b                    10.9517
_cell_length_c                    13.275422
_cell_angle_alpha                 94.925042
_cell_angle_beta                  81.717907
_cell_angle_gamma                 111.097902
_cell_volume                      1324.01016283

loop_
_atom_site_label
_atom_site_type_symbol
_atom_type_description
_atom_site_fract_x
_atom_site_fract_y
_atom_site_fract_z
_atom_type_partial_charge
C1    C     C_R   0.558412 0.746015 0.502921 0.580149
C2    C     C_R   0.370117 0.468872 0.800027 -0.008838
C3    C     C_2   0.594473 0.887381 0.498050 0.237226
C4    C     C_R   0.422411 0.488450 0.690877 0.627141
C5    C     C_2   0.513623 0.934030 0.448977 0.257770
C6    C     C_2   0.416928 0.113414 0.477208 0.242256
C7    C     C_2   0.531796 0.073075 0.462955 -0.092603
C8    C     C_2   0.932522 0.510480 0.477350 0.443097
C9    C     C_2   0.087746 0.527453 0.497038 0.465865
C10   C     C_R   0.444342 0.254038 0.490622 0.528623
C11   C     C_R   0.577738 0.516509 0.309599 0.556642
C12   C     C_R   0.423471 0.499367 0.975629 -0.029226
C13   C     C_R   0.733313 0.745232 0.096744 -0.152724
C14   C     C_R   0.624417 0.558996 0.204663 0.012921
C15   C     C_R   0.242197 0.361080 0.827525 0.196057
C16   C     C_R   0.192136 0.337464 0.931381 0.250621
C17   C     C_R   0.283720 0.405262 0.005813 0.288814
C18   C     C_3   0.447434 0.878905 0.289358 -0.094487
C19   C     C_3   0.199894 0.006341 0.569704 -0.114538
C20   C     C_3   0.838335 0.002815 0.489496 -0.117101
C21   C     C_3   0.118242 0.278558 0.343506 -0.048169
C22   C     C_3   0.860885 0.658389 0.694954 -0.046600
C23   C     C_R   0.451868 0.547590 0.876472 -0.135657
C24   C     C_3   0.852954 0.898805 0.866031 -0.117200
C25   C     C_3   0.548879 0.287475 0.093364 -0.131820
C26   C     C_3   0.948491 0.298832 0.963071 -0.148065
C27   C     C_3   0.450032 0.797562 0.787447 -0.079076
C28   C     C_R   0.530565 0.555909 0.043580 0.014500
C29   C     C_R   0.636250 0.682367 0.024702 -0.040130
C30   C     C_R   0.641322 0.745396 0.935467 0.276610
C31   C     C_R   0.552659 0.676924 0.859787 0.260289
C32   C     C_R   0.537737 0.489781 0.128964 0.318636
C33   C     C_R   0.724710 0.685309 0.187083 -0.208691
Cu1   Cu    Cu3+1 0.362000 0.479240 0.482530 1.110293
Cu2   Cu    Cu3+1 0.638000 0.520760 0.517470 1.051850
H1    H     H_    0.790480 0.740492 0.245693 0.124438
H2    H     H_    0.870962 0.915544 0.471217 0.128077
H3    H     H_    0.923965 0.075928 0.530994 0.195681
H4    H     H_    0.835487 0.047385 0.417917 0.108732
H5    H     H_    0.118416 0.702646 0.552747 0.299949
H6    H     H_    0.974130 0.461000 0.335852 0.301814
H7    H     H_    0.165952 0.204947 0.357027 0.171961
H8    H     H_    0.198415 0.356834 0.295415 0.197944
H9    H     H_    0.025267 0.227640 0.299171 0.090291
H10   H     H_    0.808931 0.631784 0.773544 0.132311
H11   H     H_    0.798681 0.708342 0.661786 0.187531
H12   H     H_    0.812434 0.843112 0.085438 0.170544
H13   H     H_    0.973682 0.728266 0.700087 0.064762
H14   H     H_    0.909416 0.832874 0.883560 0.079623
H15   H     H_    0.926783 0.000498 0.880274 0.178933
H16   H     H_    0.836191 0.889478 0.784512 0.153737
H17   H     H_    0.649794 0.311962 0.130894 0.104747
H18   H     H_    0.577674 0.305551 0.010384 0.112658
H19   H     H_    0.486772 0.181247 0.101671 0.144686
H20   H     H_    0.089520 0.203742 0.781367 0.341488
H21   H     H_    0.135448 0.323379 0.118439 0.343788
H22   H     H_    0.943172 0.329763 0.886489 0.159212
H23   H     H_    0.641740 0.142893 0.467767 0.142179
H24   H     H_    0.965873 0.383178 0.019063 0.119001
H25   H     H_    0.840805 0.223725 0.987831 0.151097
H26   H     H_    0.338625 0.721682 0.798750 0.107276
H27   H     H_    0.456854 0.850290 0.718148 0.161958
H28   H     H_    0.466518 0.870308 0.852634 0.144151
H29   H     H_    0.557457 0.873614 0.262321 0.092619
H30   H     H_    0.445047 0.976456 0.274403 0.132088
H31   H     H_    0.367900 0.804443 0.244247 0.154399
H32   H     H_    0.182764 0.097188 0.602636 0.162632
H33   H     H_    0.256989 0.970987 0.620865 0.115252
H34   H     H_    0.090434 0.929955 0.565281 0.111844
N1    N     N_2   0.845330 0.551960 0.543750 -0.056634
N2    N     N_2   0.154690 0.448120 0.456210 -0.042471
O1    O     O_R   0.426290 0.668220 0.490680 -0.431600
O2    O     O_3   0.276222 0.025313 0.470712 -0.542444
O3    O     O_3   0.703469 0.971307 0.552569 -0.597362
O4    O     O_3   0.164466 0.635960 0.552797 -0.656178
O5    O     O_3   0.887426 0.460262 0.384087 -0.679690
O6    O     O_3   0.063369 0.325266 0.436623 -0.524390
O7    O     O_3   0.865888 0.543849 0.640845 -0.488133
O8    O     O_3   0.719152 0.878510 0.928271 -0.563352
O9    O     O_3   0.460051 0.357439 0.140134 -0.530512
O10   O     O_3   0.167034 0.282327 0.751585 -0.697069
O11   O     O_3   0.232171 0.394138 0.108277 -0.682651
O12   O     O_R   0.659360 0.703290 0.520190 -0.529218
O13   O     O_3   0.057478 0.242957 0.960152 -0.608588
O14   O     O_3   0.559354 0.740803 0.772660 -0.562495
O15   O     O_R   0.326580 0.473880 0.629020 -0.419951
O16   O     O_R   0.559660 0.508940 0.658530 -0.473813
O17   O     O_R   0.340640 0.296710 0.479810 -0.477087
O18   O     O_R   0.573710 0.331780 0.509320 -0.492790
O19   O     O_R   0.440340 0.491060 0.341470 -0.501303
O20   O     O_R   0.673420 0.526120 0.370980 -0.466944
O21   O     O_3   0.405789 0.850268 0.393251 -0.517161

loop_
_geom_bond_atom_site_label_1
_geom_bond_atom_site_label_2
_ccdc_geom_bond_type
C22   H13   S    
C31   O14   S    
N1    O7    S    
C25   O9    S    
C8    O5    S    
C14   C33   A    
C15   O10   S    
C4    O16   A    
C18   H30   S    
C12   C23   A    
C10   O17   A    
C12   C28   A    
C13   C29   A    
C28   C29   A    
C25   H18   S    
Cu1   Cu2   S    
C30   C31   A    
C11   C14   S    
C4    O15   A    
C15   C16   A    
C16   O13   S    
C33   H1    S    
C17   O11   S    
Cu1   O15   S    
C27   O14   S    
C3    O3    S    
C27   H26   S    
C21   H8    S    
Cu2   O16   S    
Cu2   N1    S    
C8    C9    S    
C12   C17   A    
C19   H32   S    
H20   O10   S    
C26   H24   S    
C7    H23   S    
C24   H16   S    
C24   H15   S    
C1    O1    A    
C19   O2    S    
C25   H19   S    
C22   O7    S    
C5    C7    S    
C20   H4    S    
Cu2   O12   S    
C16   C17   A    
C1    C3    S    
C23   C31   A    
C2    C4    S    
Cu1   O19   S    
C13   C33   A    
C29   C30   A    
C27   H27   S    
C32   O9    S    
C21   H9    S    
C20   H3    S    
C24   O8    S    
C28   C32   A    
C20   O3    S    
C19   H33   S    
Cu1   O17   S    
C2    C15   A    
C27   H28   S    
C30   O8    S    
Cu2   O18   S    
C22   H11   S    
C19   H34   S    
C1    O12   A    
Cu1   O1    S    
N2    O6    S    
C6    O2    S    
C13   H12   S    
C24   H14   S    
C26   O13   S    
C9    N2    D    
C14   C32   A    
C3    C5    D    
C6    C10   S    
H21   O11   S    
C6    C7    D    
C18   H31   S    
C8    N1    D    
H5    O4    S    
C18   O21   S    
C25   H17   S    
H6    O5    S    
C20   H2    S    
C11   O19   A    
C18   H29   S    
C10   O18   A    
C26   H22   S    
C5    O21   S    
C21   H7    S    
C11   O20   A    
C22   H10   S    
C21   O6    S    
C2    C23   A    
C9    O4    S    
C26   H25   S    
Cu1   N2    S    
Cu2   O20   S    
