data_mof_unit_27362.cif
_audit_creation_date              2013-03-05T15:46:20-0500
_audit_creation_method            fapswitch 2.2
_symmetry_space_group_name_H-M    P1
_symmetry_Int_Tables_number       1
_space_group_crystal_system       triclinic
_cell_length_a                    10.151051
_cell_length_b                    10.714686
_cell_length_c                    10.966147
_cell_angle_alpha                 89.763799
_cell_angle_beta                  93.301076
_cell_angle_gamma                 82.649219
_cell_volume                      1180.89163296

loop_
_atom_site_label
_atom_site_type_symbol
_atom_site_description
_atom_site_fract_x
_atom_site_fract_y
_atom_site_fract_z
_atom_type_partial_charge
O1    O     O_R   0.568950 0.489660 0.307530 -0.574727
O2    O     O_R   0.348880 0.522640 0.340350 -0.617931
C1    C     C_R   0.446834 0.517012 0.268440 0.981800
O3    O     O_R   0.610060 0.300270 0.483590 -0.597028
O4    O     O_R   0.389990 0.333260 0.516410 -0.629258
C2    C     C_R   0.495709 0.261028 0.492107 0.935281
Zn1   Zn    Zn3+2 0.646940 0.477980 0.478090 1.080119
Zn2   Zn    Zn3+2 0.353060 0.522020 0.521910 1.087847
O5    O     O_R   0.651120 0.477360 0.659650 -0.608491
O6    O     O_R   0.431050 0.510340 0.692470 -0.567165
O7    O     O_R   0.610010 0.666740 0.483590 -0.641856
O8    O     O_R   0.389940 0.699730 0.516410 -0.597272
C3    C     C_R   0.553962 0.498268 0.730126 0.931376
C4    C     C_R   0.504126 0.740039 0.503242 0.868828
H1    H     H_    0.337478 0.132819 0.613343 0.194820
C5    C     C_R   0.627331 0.103183 0.299683 0.334458
C6    C     C_R   0.742691 0.036546 0.255910 -0.141507
H2    H     H_    0.789090 0.073984 0.179684 0.240967
C7    C     C_R   0.798340 0.921972 0.309678 -0.105376
C8    C     C_R   0.726292 0.865973 0.395715 -0.136209
H3    H     H_    0.771288 0.777531 0.435066 0.233122
C9    C     C_R   0.604593 0.928638 0.435152 0.054543
C10   C     C_R   0.571400 0.055444 0.403113 -0.029972
C11   C     C_R   0.485726 0.129866 0.478262 -0.066614
C12   C     C_R   0.405524 0.075849 0.557044 -0.144163
H4    H     H_    0.347073 0.906276 0.622362 0.207982
C13   C     C_R   0.414591 0.947424 0.565607 -0.145340
C14   C     C_R   0.513188 0.872852 0.505431 -0.074944
C15   C     C_2   0.422888 0.529437 0.137153 -0.270412
C16   C     C_2   0.525357 0.535138 0.064897 -0.091965
C17   C     C_2   0.578849 0.539252 0.851546 -0.282085
C18   C     C_2   0.513533 0.490219 0.939972 0.240077
H5    H     H_    0.324772 0.515908 0.099180 0.217665
H6    H     H_    0.891512 0.549360 0.598085 0.193695
H7    H     H_    0.115737 0.405109 0.444888 0.168212
N1    N     N_2   0.157290 0.551390 0.551110 -0.017886
C19   C     C_2   0.074669 0.481206 0.501815 0.015780
N2    N     N_2   0.842740 0.448550 0.448960 -0.034375
C20   C     C_2   0.928495 0.497449 0.519840 -0.000675
N3    N     N_R   0.886088 0.390975 0.342300 0.295200
O9    O     O_R   0.840952 0.288148 0.307618 -0.331578
O10   O     O_R   0.952219 0.449485 0.266804 -0.329986
N4    N     N_R   0.110290 0.650324 0.625716 0.302389
O11   O     O_R   0.185058 0.677418 0.719605 -0.304142
O12   O     O_R   0.013130 0.734480 0.586007 -0.367918
N5    N     N_R   0.559299 0.208809 0.230108 0.207926
O13   O     O_R   0.620601 0.262136 0.147232 -0.321364
O14   O     O_R   0.430289 0.232986 0.229466 -0.385454
C21   C     C_2   0.928666 0.858708 0.272397 0.972758
O15   O     O_2   0.991063 0.909456 0.198453 -0.559456
O16   O     O_R   0.981073 0.741117 0.322045 -0.778092
H8    H     H_    0.070440 0.708216 0.289810 0.370110
N6    N     N_R   0.447599 0.380221 0.916884 0.248551
O17   O     O_R   0.318425 0.389096 0.913018 -0.316610
O18   O     O_R   0.515521 0.276210 0.882792 -0.333958
C22   C     C_2   0.658003 0.568200 0.110560 1.037669
O19   O     O_2   0.759867 0.507143 0.077954 -0.513599
O20   O     O_R   0.665420 0.670933 0.187289 -0.785644
H9    H     H_    0.760782 0.681547 0.211867 0.357910
C23   C     C_2   0.637564 0.659781 0.861432 0.868784
O21   O     O_2   0.738903 0.671802 0.809786 -0.552850
O22   O     O_R   0.573488 0.761080 0.924534 -0.767874
H10   H     H_    0.622387 0.837834 0.923456 0.375909

loop_
_geom_bond_atom_site_label_1
_geom_bond_atom_site_label_2
_geom_bond_distance
_ccdc_geom_bond_type
C17   C23   1.491802 S    
O4    Zn2   2.011042 S    
C16   C18   1.457430 S    
N4    O11   1.299699 A    
O22   H10   1.013861 S    
C22   O20   1.395305 S    
C12   C13   1.369777 A    
C7    C21   1.487247 S    
C17   C18   1.347181 D    
C7    C8    1.404337 A    
Zn2   O8    1.988334 S    
C2    C11   1.429967 S    
C8    H3    1.075182 S    
C21   O16   1.398711 S    
N3    O10   1.302500 A    
O2    C1    1.299822 A    
C19   C20   1.496350 S    
C9    C14   1.425698 A    
N6    O17   1.300723 A    
C22   O19   1.223290 D    
Zn1   O7    2.011044 S    
N4    O12   1.301989 A    
H4    C13   1.084280 S    
C15   C16   1.350671 D    
O3    Zn1   1.988335 S    
O1    Zn1   1.985686 S    
O4    C2    1.282101 A    
C23   O22   1.399062 S    
N3    O9    1.296540 A    
N2    N3    1.392125 S    
Zn1   N2    2.016312 S    
O8    C4    1.302993 A    
C6    H2    1.082777 S    
C5    C10   1.419218 A    
Zn1   O5    1.988986 S    
N6    O18   1.301400 A    
N2    C20   1.295606 D    
O7    C4    1.276947 A    
N5    O14   1.301646 A    
H1    C12   1.084071 S    
C5    C6    1.401817 A    
C10   C11   1.407778 A    
C6    C7    1.397170 A    
O16   H8    1.014060 S    
C15   H5    1.084465 S    
C18   N6    1.444284 S    
C11   C12   1.393428 A    
H7    C19   1.084204 S    
O3    C2    1.292277 A    
C21   O15   1.223938 D    
Zn2   N1    2.016160 S    
C5    N5    1.439479 S    
C13   C14   1.396923 A    
C1    C15   1.448934 S    
O5    C3    1.285634 A    
N5    O13   1.300590 A    
N1    C19   1.293690 D    
N1    N4    1.394051 S    
C4    C14   1.437925 S    
O20   H9    1.010451 S    
C9    C10   1.395804 A    
C16   C22   1.495046 S    
C3    C17   1.422686 S    
Zn2   O6    1.985686 S    
O2    Zn2   1.988986 S    
H6    C20   1.083591 S    
C8    C9    1.419752 A    
C23   O21   1.223095 D    
O1    C1    1.284945 A    
O6    C3    1.281761 A    
