data_mof_unit_23366.cif
_audit_creation_date              2012-12-10T17:50:39-0500
_audit_creation_method            fapswitch 2.2
_symmetry_space_group_name_H-M    P1
_symmetry_Int_Tables_number       1
_space_group_crystal_system       triclinic
_cell_length_a                    15.75656
_cell_length_b                    10.728117
_cell_length_c                    9.890934
_cell_angle_alpha                 89.347078
_cell_angle_beta                  89.941282
_cell_angle_gamma                 91.688561
_cell_volume                      1671.10978884

loop_
_atom_site_label
_atom_site_type_symbol
_atom_type_description
_atom_site_fract_x
_atom_site_fract_y
_atom_site_fract_z
_atom_type_partial_charge
C1    C     C_R   0.505314 0.259897 0.501836 0.863465
C2    C     C_R   0.490494 0.045440 0.878394 -0.145327
C3    C     C_R   0.445627 0.932551 0.868764 -0.154004
C4    C     C_R   0.338079 0.499662 0.500073 0.884093
C5    C     C_R   0.435786 0.876683 0.743086 -0.147091
C6    C     C_R   0.470720 0.934280 0.624980 0.098076
C7    C     C_R   0.499693 0.058356 0.631414 0.097276
C8    C     C_R   0.508794 0.125933 0.507264 -0.117458
C9    C     C_R   0.507368 0.064200 0.383547 -0.217114
C10   C     C_R   0.496614 0.937307 0.380994 -0.212576
C11   C     C_R   0.480830 0.871456 0.501222 -0.126384
C12   C     C_3   0.083861 0.504658 0.502305 0.131318
C13   C     C_R   0.388632 0.336118 0.142194 -0.160776
C14   C     C_R   0.333909 0.255489 0.072760 -0.211827
C15   C     C_R   0.333829 0.255831 0.932871 -0.180008
C16   C     C_R   0.491457 0.738930 0.499861 0.886893
C17   C     C_R   0.388647 0.336554 0.861639 -0.150548
C18   C     C_R   0.445193 0.419249 0.928617 0.148088
C19   C     C_R   0.445209 0.419181 0.073346 0.166817
C20   C     C_R   0.552126 0.577709 0.070511 -0.119973
C21   C     C_R   0.552102 0.577677 0.927254 -0.110644
C22   C     C_R   0.661930 0.500310 0.499962 0.912809
C23   C     C_3   0.974859 0.600036 0.576828 -0.010760
C24   C     C_3   0.970447 0.398846 0.554424 0.087360
C25   C     C_3   0.025974 0.411046 0.428363 0.145117
C26   C     C_1   0.249452 0.500968 0.500425 -0.181440
C27   C     C_1   0.750637 0.501641 0.499987 -0.148375
C28   C     C_3   0.028866 0.491661 0.631694 -0.281446
C29   C     C_2   0.947397 0.706969 0.660816 0.911979
C30   C     C_3   0.916514 0.505672 0.502391 0.074262
C31   C     C_3   0.031717 0.614880 0.448820 -0.278851
C32   C     C_3   0.973140 0.518516 0.376807 0.053574
C33   C     C_1   0.174399 0.502595 0.501191 -0.020275
C34   C     C_1   0.825767 0.503349 0.500758 0.036472
C35   C     C_R   0.517736 0.108098 0.761132 -0.160736
H1    H     H_    0.420940 0.886261 0.958985 0.141270
H2    H     H_    0.057935 0.703556 0.404768 0.163254
H3    H     H_    0.052729 0.479945 0.736517 0.159612
H4    H     H_    0.515641 0.113621 0.288031 0.172035
H5    H     H_    0.555196 0.192798 0.775007 0.172175
H6    H     H_    0.502696 0.085911 0.976528 0.144270
H7    H     H_    0.001291 0.263623 0.306372 0.204355
H8    H     H_    0.090764 0.345216 0.267998 0.179870
H9    H     H_    0.987657 0.228336 0.638999 0.203579
H10   H     H_    0.902545 0.301582 0.696843 0.187340
H11   H     H_    0.994712 0.541122 0.175657 0.187621
H12   H     H_    0.400440 0.788807 0.739343 0.163361
H13   H     H_    0.909401 0.614183 0.233000 0.197796
H14   H     H_    0.850811 0.803674 0.736667 0.342526
H15   H     H_    0.502157 0.890865 0.284780 0.169404
H16   H     H_    0.594649 0.641184 0.123586 0.150443
H17   H     H_    0.384379 0.330571 0.249386 0.208207
H18   H     H_    0.291235 0.192442 0.128029 0.157292
H19   H     H_    0.291330 0.192752 0.879009 0.159540
H20   H     H_    0.385218 0.330638 0.754517 0.208756
H21   H     H_    0.594579 0.641178 0.872412 0.162955
N1    N     N_R   0.499210 0.498800 0.142780 -0.122020
N2    N     N_R   0.499180 0.498720 0.857170 -0.128516
N3    N     N_3   0.055022 0.307414 0.348384 -0.454056
N4    N     N_3   0.936164 0.281246 0.609073 -0.443761
N5    N     N_3   0.941805 0.530711 0.239012 -0.453563
O1    O     O_R   0.500000 0.316780 0.614690 -0.656223
O2    O     O_R   0.861101 0.728811 0.677862 -0.813941
O3    O     O_R   0.499990 0.316750 0.385360 -0.640344
O4    O     O_R   0.376780 0.500000 0.614650 -0.637843
O5    O     O_R   0.376770 0.499980 0.385310 -0.631772
O6    O     O_R   0.500010 0.683250 0.614640 -0.623446
O7    O     O_R   0.500000 0.683220 0.385310 -0.620197
O8    O     O_R   0.623230 0.500020 0.614690 -0.604881
O9    O     O_R   0.623220 0.500000 0.385350 -0.611224
O10   O     O_2   0.000969 0.774744 0.714165 -0.628867
Zn1   Zn    Zn3+2 0.500010 0.500020 0.653130 0.933423
Zn2   Zn    Zn3+2 0.499990 0.499980 0.346870 0.939584

loop_
_geom_bond_atom_site_label_1
_geom_bond_atom_site_label_2
_ccdc_geom_bond_type
C2    C35   A    
C4    O5    A    
C29   O2    S    
H10   N4    S    
H14   O2    S    
C1    C8    S    
C1    O1    A    
C7    C8    A    
C19   N1    A    
C5    H12   S    
C12   C28   S    
C23   C29   S    
C32   N5    S    
O6    Zn1   S    
C20   H16   S    
C5    C6    A    
C2    H6    S    
C9    H4    S    
C18   C19   A    
N1    Zn2   S    
C18   N2    A    
C8    C9    A    
O3    Zn2   S    
C16   O7    A    
C9    C10   A    
C17   H20   S    
C22   O8    A    
H8    N3    S    
C25   C32   S    
C13   C14   A    
C27   C34   T    
C30   C34   S    
H11   N5    S    
C15   H19   S    
C24   C25   S    
C6    C11   A    
C13   C19   A    
O7    Zn2   S    
O5    Zn2   S    
C31   H2    S    
C23   C31   S    
O8    Zn1   S    
C23   C30   S    
C13   H17   S    
C11   C16   S    
C26   C33   T    
C31   C32   S    
C28   H3    S    
C24   N4    S    
O9    Zn2   S    
C17   C18   A    
O1    Zn1   S    
C16   O6    A    
C23   C28   S    
C22   C27   S    
C12   C31   S    
C10   H15   S    
C1    O3    A    
C15   C17   A    
C7    C35   A    
C24   C28   S    
C3    C5    A    
H7    N3    S    
C21   H21   S    
C4    C26   S    
C6    C7    A    
O4    Zn1   S    
C12   C25   S    
C2    C3    A    
C20   N1    A    
C21   N2    A    
C30   C32   S    
N2    Zn1   S    
H13   N5    S    
C4    O4    A    
C3    H1    S    
H9    N4    S    
C35   H5    S    
C24   C30   S    
C10   C11   A    
C14   H18   S    
C20   C21   A    
C14   C15   A    
C25   N3    S    
C12   C33   S    
C22   O9    A    
C29   O10   D    
