data_mof_unit_11945.cif
_audit_creation_date              2012-12-10T20:56:30-0500
_audit_creation_method            fapswitch 2.2
_symmetry_space_group_name_H-M    P1
_symmetry_Int_Tables_number       1
_space_group_crystal_system       triclinic
_cell_length_a                    12.936997
_cell_length_b                    15.086769
_cell_length_c                    15.813899
_cell_angle_alpha                 90.112863
_cell_angle_beta                  90.147811
_cell_angle_gamma                 68.952015
_cell_volume                      2880.57313625

loop_
_atom_site_label
_atom_site_type_symbol
_atom_type_description
_atom_site_fract_x
_atom_site_fract_y
_atom_site_fract_z
_atom_type_partial_charge
C1    C     C_R   0.499765 0.500218 0.661106 0.930222
C2    C     C_R   0.826332 0.412301 0.484315 -0.125714
C3    C     C_R   0.466067 0.426737 0.042935 -0.029830
C4    C     C_R   0.705992 0.447299 0.495153 0.860390
C5    C     C_R   0.479607 0.502987 0.086839 0.079805
C6    C     C_R   0.483031 0.583000 0.045235 -0.246801
C7    C     C_R   0.475897 0.588914 0.957615 -0.029930
C8    C     C_R   0.467093 0.511157 0.912518 0.009449
C9    C     C_R   0.459477 0.430924 0.954195 -0.053411
C10   C     C_1   0.487888 0.501998 0.175824 -0.037033
C11   C     C_1   0.479011 0.507854 0.823543 0.023016
C12   C     C_R   0.985031 0.459151 0.475209 0.121764
C13   C     C_1   0.489819 0.503799 0.749108 -0.113937
C14   C     C_1   0.494474 0.501112 0.250567 -0.170190
C15   C     C_R   0.570660 0.026151 0.558062 -0.066671
C16   C     C_R   0.500124 0.499840 0.338869 0.884149
C17   C     C_R   0.498627 0.095240 0.502314 -0.138909
C18   C     C_R   0.425588 0.068351 0.449160 -0.024895
C19   C     C_R   0.428835 0.973629 0.450697 -0.214206
C20   C     C_R   0.500365 0.904719 0.504146 -0.016502
C21   C     C_R   0.571598 0.930849 0.558822 -0.052195
C22   C     C_1   0.499254 0.193216 0.501049 0.224339
C23   C     C_R   0.876432 0.473768 0.451516 0.073716
C24   C     C_1   0.500059 0.806964 0.501270 0.074228
C25   C     C_R   0.294034 0.552964 0.499775 0.960388
C26   C     C_R   0.032903 0.665850 0.379683 -0.031493
C27   C     C_R   0.175718 0.588555 0.483697 -0.160348
C28   C     C_R   0.892670 0.323346 0.516771 -0.248000
C29   C     C_R   0.007915 0.298868 0.522999 0.065671
C30   C     C_R   0.052853 0.368602 0.504782 -0.148967
C31   C     C_R   0.458506 0.343782 0.089680 0.120050
C32   C     C_R   0.360253 0.324212 0.087752 -0.125669
C33   C     C_R   0.353355 0.246238 0.131830 -0.109479
C34   C     C_R   0.024147 0.534428 0.466019 0.020833
C35   C     C_R   0.444307 0.187400 0.178022 -0.079341
C36   C     C_R   0.542275 0.206476 0.180327 -0.125252
C37   C     C_R   0.549583 0.284275 0.136263 -0.152583
C38   C     C_2   0.479412 0.676209 0.915401 0.900717
C39   C     C_R   0.650504 0.856726 0.613613 0.145595
C40   C     C_R   0.611196 0.807131 0.672982 -0.108372
C41   C     C_R   0.685552 0.733592 0.720580 -0.113983
C42   C     C_R   0.799588 0.709334 0.709750 -0.074560
C43   C     C_R   0.839474 0.759263 0.651999 -0.101249
C44   C     C_R   0.765386 0.833059 0.604527 -0.137216
C45   C     C_R   0.972777 0.608137 0.406429 0.012844
C46   C     C_2   0.642870 0.054458 0.617505 0.878202
C47   C     C_2   0.342922 0.136790 0.391797 0.882177
C48   C     C_R   0.788487 0.707019 0.335429 0.141351
C49   C     C_R   0.728825 0.701552 0.262312 -0.095095
C50   C     C_R   0.651742 0.783887 0.227136 -0.111538
C51   C     C_R   0.633026 0.872199 0.264764 -0.108520
C52   C     C_R   0.691516 0.878340 0.337527 -0.117535
C53   C     C_R   0.768398 0.796177 0.372930 -0.140495
C54   C     C_2   0.005446 0.725942 0.302862 0.907443
C55   C     C_2   0.129225 0.502065 0.604960 0.856104
C56   C     C_R   0.864878 0.619184 0.376621 -0.003067
C57   C     C_R   0.080677 0.202316 0.550669 0.119334
C58   C     C_R   0.060161 0.121576 0.522468 -0.131529
C59   C     C_R   0.130594 0.030521 0.545929 -0.112760
C60   C     C_R   0.222039 0.018916 0.597791 -0.101656
C61   C     C_R   0.243295 0.098329 0.626334 -0.129656
C62   C     C_R   0.173123 0.189561 0.603191 -0.149817
C63   C     C_R   0.449983 0.350198 0.904471 0.107785
C64   C     C_R   0.356853 0.363677 0.852961 -0.127300
C65   C     C_R   0.349593 0.288763 0.804101 -0.123303
C66   C     C_R   0.434921 0.199944 0.806532 -0.095284
C67   C     C_R   0.819295 0.551373 0.399128 -0.240094
C68   C     C_R   0.527614 0.185895 0.857809 -0.087753
C69   C     C_R   0.535441 0.260722 0.906467 -0.155812
C70   C     C_R   0.112785 0.538290 0.515592 -0.092129
C71   C     C_R   0.134641 0.653740 0.417984 -0.261506
H1    H     H_    0.186395 0.689759 0.391878 0.185681
H2    H     H_    0.612624 0.160847 0.216129 0.134034
H3    H     H_    0.626152 0.298050 0.138145 0.130618
H4    H     H_    0.439089 0.763747 0.814371 0.335461
H5    H     H_    0.523031 0.824879 0.681738 0.119515
H6    H     H_    0.654775 0.695085 0.765572 0.156293
H7    H     H_    0.857042 0.652083 0.746316 0.152713
H8    H     H_    0.927828 0.740669 0.643884 0.146523
H9    H     H_    0.797538 0.871502 0.560495 0.123722
H10   H     H_    0.749534 0.123041 0.634931 0.342857
H11   H     H_    0.230370 0.156154 0.298206 0.343634
H12   H     H_    0.491068 0.641202 0.081739 0.180955
H13   H     H_    0.741933 0.633601 0.232670 0.128523
H14   H     H_    0.606166 0.779139 0.170876 0.153842
H15   H     H_    0.573070 0.935825 0.237672 0.133565
H16   H     H_    0.676748 0.946680 0.366868 0.144195
H17   H     H_    0.812699 0.801754 0.429384 0.125142
H18   H     H_    0.996869 0.848749 0.247605 0.349561
H19   H     H_    0.061056 0.467256 0.708579 0.333736
H20   H     H_    0.990892 0.128752 0.481003 0.141812
H21   H     H_    0.114598 0.968853 0.523440 0.148380
H22   H     H_    0.276773 0.948360 0.615526 0.132950
H23   H     H_    0.373929 0.952776 0.410046 0.195996
H24   H     H_    0.314448 0.089137 0.666230 0.130071
H25   H     H_    0.190835 0.249956 0.626913 0.130661
H26   H     H_    0.290341 0.432264 0.850417 0.149944
H27   H     H_    0.277928 0.299629 0.764260 0.141371
H28   H     H_    0.429363 0.142036 0.768634 0.141071
H29   H     H_    0.593704 0.117118 0.859547 0.173985
H30   H     H_    0.608342 0.249259 0.945094 0.135386
H31   H     H_    0.854528 0.274666 0.539494 0.166939
H32   H     H_    0.141229 0.351666 0.511139 0.151401
H33   H     H_    0.738001 0.559789 0.374885 0.162273
H34   H     H_    0.289167 0.369443 0.052342 0.134283
H35   H     H_    0.277485 0.231428 0.130207 0.136084
H36   H     H_    0.438991 0.126952 0.211916 0.141154
N1    N     N_1   0.500030 0.729450 0.499980 -0.083459
N2    N     N_1   0.499970 0.270550 0.500020 -0.057593
O1    O     O_R   0.500000 0.426350 0.621980 -0.590833
O2    O     O_R   0.431990 0.702775 0.835462 -0.805903
O3    O     O_2   0.649122 0.030465 0.691726 -0.642452
O4    O     O_R   0.703921 0.108238 0.588546 -0.820450
O5    O     O_2   0.324295 0.222063 0.395899 -0.642213
O6    O     O_R   0.284294 0.103337 0.333196 -0.824187
O7    O     O_2   0.977782 0.696437 0.237801 -0.616652
O8    O     O_R   0.016812 0.814653 0.303858 -0.809756
O9    O     O_2   0.217326 0.486207 0.641735 -0.647621
O10   O     O_R   0.040646 0.491141 0.648705 -0.815420
O11   O     O_R   0.499950 0.573700 0.621980 -0.598638
O12   O     O_R   0.653660 0.389750 0.499980 -0.608631
O13   O     O_R   0.653610 0.537090 0.499980 -0.601661
O14   O     O_R   0.500050 0.426300 0.378020 -0.596751
O15   O     O_R   0.500000 0.573650 0.378020 -0.621860
O16   O     O_R   0.346390 0.462910 0.500020 -0.570230
O17   O     O_R   0.346340 0.610250 0.500020 -0.619802
O18   O     O_2   0.521922 0.726340 0.951579 -0.642137
Zn1   Zn    Zn3+2 0.500030 0.401620 0.500000 1.027143
Zn2   Zn    Zn3+2 0.499970 0.598380 0.500000 0.976790

loop_
_geom_bond_atom_site_label_1
_geom_bond_atom_site_label_2
_ccdc_geom_bond_type
C47   O5    D    
C66   C68   A    
C37   H3    S    
C40   C41   A    
C46   O3    D    
C41   C42   A    
C19   C20   A    
C43   C44   A    
C18   C47   S    
C38   O18   D    
C57   C58   A    
C7    C8    A    
C55   O10   S    
C47   O6    S    
C12   C23   A    
C49   H13   S    
C28   C29   A    
C16   O14   A    
H11   O6    S    
C62   H25   S    
C41   H6    S    
C5    C6    A    
C43   H8    S    
C15   C17   A    
C18   C19   A    
C23   C67   A    
C49   C50   A    
C25   O16   A    
C26   C45   A    
C20   C24   S    
C45   C56   A    
C68   C69   A    
C54   O7    D    
C30   H32   S    
C4    O12   A    
O16   Zn1   S    
C24   N1    T    
C58   H20   S    
C34   C70   A    
O13   Zn2   S    
C50   H14   S    
C60   H22   S    
C59   C60   A    
C26   C71   A    
C26   C54   S    
C51   H15   S    
C67   H33   S    
C17   C18   A    
C48   C53   A    
O11   Zn2   S    
C63   C69   A    
C44   H9    S    
O12   Zn1   S    
C10   C14   T    
C39   C40   A    
C8    C9    A    
O17   Zn2   S    
C57   C62   A    
C58   C59   A    
C31   C37   A    
C60   C61   A    
C1    O11   A    
C66   H28   S    
C2    C4    S    
C25   O17   A    
C68   H29   S    
C29   C30   A    
C3    C9    A    
C28   H31   S    
C1    O1    A    
N2    Zn1   S    
C31   C32   A    
C21   C39   S    
C15   C21   A    
C22   N2    T    
C50   C51   A    
C4    O13   A    
C34   C45   A    
C3    C31   S    
C19   H23   S    
N1    Zn2   S    
C6    C7    A    
C27   C70   A    
C64   H26   S    
H18   O8    S    
C42   H7    S    
C32   H34   S    
C14   C16   S    
C1    C13   S    
C42   C43   A    
C12   C34   A    
C27   C71   A    
C52   C53   A    
C48   C56   S    
C48   C49   A    
C6    H12   S    
C46   O4    S    
C12   C30   A    
C9    C63   S    
C52   H16   S    
C33   H35   S    
C29   C57   S    
C3    C5    A    
C65   H27   S    
C61   H24   S    
C39   C44   A    
C69   H30   S    
C25   C27   S    
C56   C67   A    
H4    O2    S    
C17   C22   S    
C64   C65   A    
C16   O15   A    
C51   C52   A    
C32   C33   A    
C11   C13   T    
O14   Zn1   S    
C8    C11   S    
C33   C35   A    
C7    C38   S    
O15   Zn2   S    
C53   H17   S    
C59   H21   S    
C61   C62   A    
H19   O10   S    
C55   C70   S    
C35   H36   S    
C36   H2    S    
C63   C64   A    
C40   H5    S    
C5    C10   S    
C71   H1    S    
C20   C21   A    
C36   C37   A    
C65   C66   A    
C54   O8    S    
H10   O4    S    
C2    C23   A    
C2    C28   A    
C35   C36   A    
C15   C46   S    
C38   O2    S    
O1    Zn1   S    
C55   O9    D    
