data_mof_unit_14219.cif
_audit_creation_date              2013-03-05T16:15:22-0500
_audit_creation_method            fapswitch 2.2
_symmetry_space_group_name_H-M    P1
_symmetry_Int_Tables_number       1
_space_group_crystal_system       triclinic
_cell_length_a                    27.761863
_cell_length_b                    10.646511
_cell_length_c                    9.441541
_cell_angle_alpha                 90.801586
_cell_angle_beta                  89.429668
_cell_angle_gamma                 89.325901
_cell_volume                      2789.99865586

loop_
_atom_site_label
_atom_site_type_symbol
_atom_site_description
_atom_site_fract_x
_atom_site_fract_y
_atom_site_fract_z
_atom_type_partial_charge
O1    O     O_R   0.500020 0.316850 0.620870 -0.584595
O2    O     O_R   0.499980 0.683150 0.379130 -0.581173
O3    O     O_R   0.500000 0.316860 0.379090 -0.544919
O4    O     O_R   0.500000 0.683140 0.620910 -0.540951
C1    C     C_R   0.501583 0.259694 0.498843 0.857143
C2    C     C_R   0.498826 0.740448 0.500878 0.891492
O5    O     O_R   0.430270 0.500020 0.620880 -0.564317
O6    O     O_R   0.569730 0.499980 0.379120 -0.572336
O7    O     O_R   0.430250 0.500030 0.379090 -0.561711
O8    O     O_R   0.569750 0.499970 0.620910 -0.572187
C3    C     C_R   0.407793 0.498267 0.501030 0.862191
C4    C     C_R   0.592767 0.495567 0.499658 0.832769
Cu1   Cu    Cu3+1 0.500010 0.499990 0.643150 1.014078
Cu2   Cu    Cu3+1 0.499990 0.500010 0.356850 1.019281
C5    C     C_R   0.179569 0.356431 0.457177 0.618654
C6    C     C_R   0.825521 0.583563 0.572036 0.608519
O9    O     O_2   0.203796 0.283975 0.361402 -0.505609
O10   O     O_2   0.801710 0.687192 0.619896 -0.508664
N1    N     N_R   0.204069 0.435580 0.545175 -0.445860
N2    N     N_R   0.800373 0.483575 0.519867 -0.446907
C7    C     C_R   0.180186 0.510257 0.642932 0.601335
C8    C     C_R   0.823947 0.381885 0.459974 0.615561
C9    C     C_R   0.273930 0.565508 0.496656 -0.127778
C10   C     C_R   0.725281 0.474541 0.387781 -0.129331
C11   C     C_R   0.323518 0.586903 0.491599 -0.073659
C12   C     C_R   0.675211 0.466318 0.379555 -0.029747
C13   C     C_R   0.337392 0.364806 0.535678 -0.240920
C14   C     C_R   0.669913 0.505247 0.632974 -0.219204
C15   C     C_R   0.287758 0.345583 0.553703 0.022234
C16   C     C_R   0.720340 0.499782 0.643458 0.004951
C17   C     C_R   0.255585 0.447280 0.530452 0.244893
C18   C     C_R   0.748374 0.487928 0.518107 0.242563
C19   C     C_R   0.103741 0.437920 0.551667 -0.043096
C20   C     C_R   0.900778 0.475224 0.514184 -0.045792
C21   C     C_R   0.129251 0.350287 0.466077 -0.037637
C22   C     C_R   0.876071 0.578363 0.576642 -0.036606
C23   C     C_R   0.104371 0.254194 0.397521 -0.151295
C24   C     C_R   0.902252 0.677900 0.633594 -0.150369
C25   C     C_R   0.129267 0.520067 0.642382 -0.095881
C26   C     C_R   0.874454 0.381973 0.442241 -0.093214
C27   C     C_R   0.355434 0.484077 0.505781 -0.099258
C28   C     C_R   0.646503 0.489260 0.502158 -0.128705
H1    H     H_    0.362573 0.287783 0.551802 0.164469
H2    H     H_    0.648765 0.516314 0.729260 0.214517
H3    H     H_    0.124471 0.178350 0.345679 0.225602
H4    H     H_    0.883506 0.762665 0.669224 0.228638
C29   C     C_R   0.976408 0.365096 0.452349 0.047091
C30   C     C_R   0.027516 0.539936 0.619914 0.051982
C31   C     C_R   0.977633 0.560540 0.595321 -0.015233
C32   C     C_R   0.027296 0.350487 0.467339 -0.012138
C33   C     C_R   0.951734 0.466249 0.521938 0.075447
C34   C     C_R   0.052692 0.443173 0.545506 0.081221
C35   C     C_R   0.949889 0.290383 0.357249 -0.176314
C36   C     C_R   0.052525 0.608597 0.723539 -0.185979
C37   C     C_R   0.899582 0.294413 0.354103 -0.019657
C38   C     C_R   0.102686 0.604066 0.732207 -0.010334
O11   O     O_2   0.798608 0.279626 0.422121 -0.482306
O12   O     O_2   0.205995 0.573238 0.740386 -0.488646
C39   C     C_R   0.054341 0.245567 0.411187 -0.070378
C40   C     C_R   0.952595 0.673978 0.635511 -0.065192
H5    H     H_    0.747066 0.460675 0.292712 0.193102
H6    H     H_    0.248906 0.643247 0.483085 0.194141
H7    H     H_    0.968011 0.232345 0.278222 0.161178
H8    H     H_    0.033141 0.668277 0.798753 0.156815
C41   C     C_3   0.532206 0.040426 0.595124 0.168521
C42   C     C_3   0.468751 0.960175 0.403081 0.156426
C43   C     C_3   0.544165 0.951613 0.468217 -0.275956
C44   C     C_3   0.456712 0.048784 0.529941 -0.309612
H9    H     H_    0.580090 0.909598 0.443065 0.197144
H10   H     H_    0.420741 0.090576 0.554936 0.192410
C45   C     C_3   0.498463 0.877328 0.502021 -0.174858
C46   C     C_3   0.502374 0.123021 0.496412 -0.151673
C47   C     C_3   0.486687 0.964477 0.628892 0.200117
C48   C     C_3   0.514221 0.036042 0.369645 0.216598
C49   C     C_3   0.489095 0.610251 0.052818 -0.073949
C50   C     C_3   0.510698 0.389763 0.947171 -0.084734
C51   C     C_3   0.458053 0.532148 0.950717 -0.086420
C52   C     C_3   0.541705 0.468243 0.048775 -0.090901
H11   H     H_    0.422758 0.559294 0.905356 0.179484
H12   H     H_    0.577114 0.444898 0.092211 0.182800
H13   H     H_    0.480638 0.703572 0.100671 0.190518
H14   H     H_    0.519419 0.296492 0.899421 0.190384
N3    N     N_3   0.500040 0.499970 0.858290 -0.202387
N4    N     N_3   0.499960 0.500030 0.141710 -0.200920
C53   C     C_3   0.530836 0.578107 0.950926 0.278076
C54   C     C_3   0.468914 0.422198 0.049118 0.278081
I1    I     I_    0.586311 0.102588 0.738642 -0.235321
I2    I     I_    0.417062 0.905569 0.248336 -0.195983
I3    I     I_    0.459944 0.916317 0.833577 -0.219380
I4    I     I_    0.539037 0.081531 0.162122 -0.234536
I5    I     I_    0.582388 0.711190 0.879592 -0.192488
I6    I     I_    0.416040 0.293585 0.122917 -0.205123
C55   C     C_2   0.271098 0.221389 0.603646 0.930753
O13   O     O_2   0.295777 0.127174 0.580726 -0.547064
O14   O     O_R   0.227965 0.211893 0.680306 -0.741194
H15   H     H_    0.220796 0.122422 0.708434 0.357557
C56   C     C_2   0.742383 0.501058 0.786219 0.933081
O15   O     O_2   0.722139 0.556682 0.884606 -0.518205
O16   O     O_R   0.785665 0.436441 0.809610 -0.745106
H16   H     H_    0.796744 0.444107 0.911340 0.357220
C57   C     C_2   0.655929 0.413317 0.247380 0.863833
O17   O     O_2   0.668387 0.455730 0.133196 -0.554513
O18   O     O_R   0.627232 0.306575 0.253071 -0.732652
H17   H     H_    0.621205 0.269290 0.155642 0.348875
C58   C     C_2   0.340302 0.718400 0.486505 0.889172
O19   O     O_2   0.316250 0.798113 0.426320 -0.515766
O20   O     O_R   0.381834 0.753265 0.558833 -0.762945
H18   H     H_    0.386851 0.847310 0.559213 0.353293
C59   C     C_2   0.875471 0.216087 0.245154 0.940349
O21   O     O_2   0.889051 0.107769 0.223257 -0.542318
O22   O     O_R   0.838775 0.267886 0.163076 -0.735650
H19   H     H_    0.825656 0.205716 0.091287 0.360659
C60   C     C_2   0.125047 0.695785 0.829873 0.956433
O23   O     O_2   0.114630 0.695412 0.956014 -0.563136
O24   O     O_R   0.155938 0.786865 0.776402 -0.697511
H20   H     H_    0.168292 0.845456 0.853062 0.355097
C61   C     C_2   0.034040 0.118340 0.389450 0.870918
O25   O     O_2   0.002417 0.080842 0.468895 -0.539973
O26   O     O_R   0.052421 0.039420 0.281747 -0.728676
H21   H     H_    0.036082 0.954758 0.278956 0.371536
C62   C     C_2   0.976772 0.796640 0.656075 0.871068
O27   O     O_2   0.012302 0.822113 0.584889 -0.544604
O28   O     O_R   0.957739 0.885110 0.752868 -0.726714
H22   H     H_    0.977013 0.965387 0.756021 0.367893

loop_
_geom_bond_atom_site_label_1
_geom_bond_atom_site_label_2
_geom_bond_distance
_ccdc_geom_bond_type
C42   C44   1.545721 S    
C55   O13   1.223594 D    
C13   C15   1.404443 A    
O14   H15   1.013900 S    
O22   H19   1.013995 S    
Cu2   N4    2.031266 S    
N1    C17   1.442569 S    
C8    O11   1.349073 S    
C56   O15   1.223034 D    
C53   I5    2.136509 S    
C11   C58   1.481955 S    
O28   H22   1.013927 S    
C19   C34   1.419481 A    
C30   C36   1.406807 A    
C58   O20   1.397194 S    
C16   C56   1.485795 S    
C20   C33   1.419404 A    
C10   H5    1.084725 S    
C31   C40   1.431047 A    
C20   C26   1.410393 A    
C32   C39   1.431197 A    
C21   C23   1.396308 A    
C50   C52   1.539581 S    
C1    C46   1.454851 S    
C59   O22   1.398932 S    
C12   C57   1.470714 S    
C42   I2    2.137592 S    
C52   H12   1.096084 S    
C49   N4    1.482121 S    
C51   N3    1.483112 S    
O24   H20   1.013881 S    
C42   C48   1.539075 S    
C41   C47   1.541299 S    
C14   C28   1.410511 A    
O4    Cu1   1.964098 S    
C4    C28   1.492972 S    
C5    N1    1.366795 A    
C49   C53   1.531232 S    
C9    H6    1.084092 S    
C25   C38   1.419282 A    
C31   C33   1.418530 A    
C32   C34   1.421907 A    
C38   C60   1.479750 S    
C16   C18   1.413335 A    
C43   C45   1.536161 S    
C6    N2    1.368538 A    
C29   C35   1.409921 A    
C51   H11   1.110049 S    
C57   O18   1.396857 S    
Cu1   Cu2   2.703121 S    
C37   C59   1.484714 S    
O2    C2    1.293701 A    
C50   N3    1.480803 S    
C5    C21   1.400957 A    
C56   O16   1.398545 S    
C41   I1    2.137555 S    
C29   C32   1.428110 A    
C35   C37   1.397394 A    
C2    C45   1.457096 S    
C36   C38   1.396069 A    
C24   H4    1.084152 S    
C57   O17   1.222956 D    
C46   C48   1.533680 S    
C50   H14   1.107961 S    
C45   C47   1.535122 S    
C61   O26   1.398603 S    
C49   H13   1.107345 S    
C29   C33   1.419361 A    
C41   C43   1.546923 S    
C44   C47   1.546705 S    
C14   H2    1.081550 S    
C44   C46   1.534397 S    
C43   H9    1.110405 S    
C9    C17   1.403088 A    
O5    C3    1.297662 A    
O7    Cu2   1.945384 S    
C10   C18   1.399421 A    
C42   C45   1.533715 S    
C52   N4    1.479790 S    
O7    C3    1.304273 A    
C13   C27   1.401840 A    
O16   H16   1.013954 S    
C7    C25   1.416314 A    
C30   C34   1.412925 A    
O6    C4    1.312127 A    
C26   C37   1.414056 A    
C8    C26   1.410505 A    
C43   C48   1.544810 S    
C19   C25   1.416445 A    
C49   C51   1.540889 S    
C62   O27   1.223264 D    
C23   C39   1.397866 A    
O3    Cu2   1.964097 S    
O8    C4    1.305493 A    
C24   C40   1.398078 A    
C52   C53   1.529759 S    
O4    C2    1.295100 A    
C30   C31   1.421441 A    
N3    C53   1.482973 S    
N2    C8    1.370776 A    
C51   C54   1.533639 S    
O1    C1    1.295506 A    
O1    Cu1   1.958186 S    
C39   C61   1.485589 S    
O20   H18   1.012476 S    
C11   C27   1.408939 A    
C50   C54   1.533094 S    
C12   C28   1.415607 A    
C60   O23   1.222836 D    
N2    C18   1.444031 S    
C5    O9    1.349560 S    
O6    Cu2   1.949572 S    
N1    C7    1.370569 A    
C6    O10   1.349570 S    
C10   C12   1.396679 A    
N4    C54   1.485016 S    
O3    C1    1.292414 A    
O8    Cu1   1.945384 S    
O26   H21   1.013944 S    
C41   C46   1.532615 S    
C58   O19   1.223403 D    
Cu1   N3    2.031266 S    
C48   I4    2.134414 S    
C22   C24   1.396566 A    
C47   I3    2.134700 S    
C7    O12   1.347872 S    
C15   C17   1.416360 A    
C54   I6    2.137462 S    
C59   O21   1.223236 D    
C6    C22   1.404936 A    
C15   C55   1.487294 S    
C35   H7    1.078866 S    
C55   O14   1.398436 S    
C36   H8    1.081349 S    
C14   C16   1.405002 A    
C19   C21   1.406062 A    
C3    C27   1.463489 S    
C20   C22   1.407156 A    
C9    C11   1.398469 A    
C40   C62   1.486531 S    
O2    Cu2   1.958185 S    
C62   O28   1.398623 S    
C13   H1    1.084641 S    
O5    Cu1   1.949573 S    
C44   H10   1.110324 S    
O18   H17   1.012996 S    
C61   O25   1.223211 D    
C23   H3    1.084369 S    
C60   O24   1.398315 S    
