data_mof_unit_33622.cif
_audit_creation_date              2012-12-10T19:45:04-0500
_audit_creation_method            fapswitch 2.2
_symmetry_space_group_name_H-M    P1
_symmetry_Int_Tables_number       1
_space_group_crystal_system       triclinic
_cell_length_a                    15.0688
_cell_length_b                    10.885402
_cell_length_c                    13.878128
_cell_angle_alpha                 91.160416
_cell_angle_beta                  89.896344
_cell_angle_gamma                 86.26597
_cell_volume                      2271.11894696

loop_
_atom_site_label
_atom_site_type_symbol
_atom_type_description
_atom_site_fract_x
_atom_site_fract_y
_atom_site_fract_z
_atom_type_partial_charge
C1    C     C_R   0.499502 0.262421 0.498719 0.844885
C2    C     C_R   0.500498 0.737579 0.501280 0.844885
C3    C     C_R   0.050125 0.298661 0.580797 0.073060
C4    C     C_R   0.949875 0.701339 0.419203 0.073060
C5    C     C_R   0.363481 0.229494 0.206328 0.152705
C6    C     C_R   0.636519 0.770506 0.793672 0.152705
C7    C     C_R   0.380207 0.177240 0.297315 0.293312
C8    C     C_R   0.619793 0.822760 0.702685 0.293312
C9    C     C_R   0.462909 0.113290 0.315756 -0.035070
C10   C     C_R   0.537091 0.886709 0.684244 -0.035070
C11   C     C_R   0.525339 0.093946 0.240123 0.237298
C12   C     C_R   0.474660 0.906054 0.759877 0.237298
C13   C     C_R   0.506482 0.141498 0.149174 -0.205546
C14   C     C_R   0.493518 0.858502 0.850826 -0.205547
C15   C     C_R   0.426952 0.210259 0.132695 -0.196559
C16   C     C_R   0.573048 0.789741 0.867305 -0.196559
C17   C     C_R   0.483008 0.932054 0.416939 -0.096035
C18   C     C_R   0.516992 0.067946 0.583060 -0.096035
C19   C     C_R   0.500887 0.871621 0.503495 -0.063745
C20   C     C_R   0.499113 0.128379 0.496505 -0.063745
C21   C     C_R   0.517836 0.940877 0.588334 0.074431
C22   C     C_R   0.482164 0.059123 0.411666 0.074431
C23   C     C_R   0.329209 0.496095 0.500371 0.880734
C24   C     C_R   0.670791 0.503905 0.499629 0.880735
C25   C     C_R   0.564979 0.432148 0.793260 0.367003
C26   C     C_R   0.435020 0.567852 0.206740 0.367003
C27   C     C_R   0.432424 0.564778 0.795817 0.270072
C28   C     C_R   0.567576 0.435222 0.204183 0.270073
C29   C     C_R   0.428862 0.559279 0.898535 0.006818
C30   C     C_R   0.571138 0.440721 0.101464 0.006818
C31   C     C_R   0.499650 0.499634 0.948402 0.027255
C32   C     C_R   0.500350 0.500366 0.051598 0.027255
C33   C     C_R   0.569291 0.438170 0.895466 -0.053160
C34   C     C_R   0.430709 0.561830 0.104533 -0.053160
C35   C     C_R   0.356847 0.613627 0.953215 -0.188801
C36   C     C_R   0.643153 0.386373 0.046785 -0.188800
C37   C     C_R   0.358393 0.616312 0.053625 -0.146497
C38   C     C_R   0.641607 0.383688 0.946375 -0.146498
C39   C     C_R   0.810708 0.593910 0.444123 0.248301
C40   C     C_R   0.189292 0.406090 0.555877 0.248301
C41   C     C_R   0.767376 0.507978 0.498786 -0.126389
C42   C     C_R   0.232624 0.492022 0.501214 -0.126389
C43   C     C_R   0.816089 0.420840 0.552147 -0.214042
C44   C     C_R   0.183911 0.579160 0.447853 -0.214042
C45   C     C_R   0.908709 0.411873 0.549041 0.032123
C46   C     C_R   0.091291 0.588127 0.450959 0.032123
C47   C     C_R   0.953197 0.503101 0.500551 -0.034869
C48   C     C_R   0.046803 0.496899 0.499449 -0.034869
C49   C     C_R   0.903899 0.601228 0.454311 0.034474
C50   C     C_R   0.096101 0.398772 0.545689 0.034474
C51   C     C_R   0.957047 0.310720 0.589937 0.253504
C52   C     C_R   0.042953 0.689280 0.410063 0.253504
Cu1   Cu    Cu3+1 0.500010 0.499980 0.597420 1.019516
Cu2   Cu    Cu3+1 0.499990 0.500020 0.402580 1.019516
H1    H     H_    0.469263 0.880280 0.351780 0.207469
H2    H     H_    0.530737 0.119720 0.648220 0.207469
H3    H     H_    0.297545 0.654223 0.919837 0.169944
H4    H     H_    0.702455 0.345777 0.080163 0.169944
H5    H     H_    0.300980 0.659756 0.090392 0.205091
H6    H     H_    0.699020 0.340244 0.909608 0.205091
H7    H     H_    0.780168 0.354155 0.589893 0.231637
H8    H     H_    0.219832 0.645845 0.410107 0.231637
H9    H     H_    0.415005 0.248480 0.062080 0.179349
H10   H     H_    0.584995 0.751520 0.937920 0.179349
H11   H     H_    0.554561 0.127257 0.091306 0.191776
H12   H     H_    0.445439 0.872743 0.908694 0.191776
N1    N     N_R   0.499960 0.499900 0.743810 -0.200381
N2    N     N_R   0.500040 0.500100 0.256190 -0.200381
O1    O     O_R   0.500000 0.319630 0.582270 -0.530026
O2    O     O_R   0.500000 0.680370 0.417730 -0.530026
O3    O     O_R   0.499990 0.319660 0.417730 -0.614248
O4    O     O_R   0.500010 0.680340 0.582270 -0.614248
O5    O     O_R   0.370260 0.499960 0.582280 -0.566152
O6    O     O_R   0.629740 0.500040 0.417720 -0.566152
O7    O     O_R   0.370250 0.499990 0.417740 -0.550607
O8    O     O_R   0.629750 0.500010 0.582260 -0.550607
Br1   Br    Br    0.744071 0.683193 0.345002 -0.444224
Br2   Br    Br    0.255928 0.316807 0.654998 -0.444224
Br3   Br    Br    0.645353 0.314776 0.726567 -0.504321
Br4   Br    Br    0.354647 0.685224 0.273433 -0.504321
C53   C     C_3   0.360065 0.643397 0.746638 -0.704172
H13   H     H_    0.344948 0.730671 0.787362 0.205931
H14   H     H_    0.378218 0.675662 0.675928 0.265632
H15   H     H_    0.298461 0.593018 0.741537 0.239415
C54   C     C_3   0.639935 0.356602 0.253362 -0.704173
H16   H     H_    0.655052 0.269329 0.212637 0.205931
H17   H     H_    0.701538 0.406982 0.258462 0.239415
H18   H     H_    0.621782 0.324337 0.324072 0.265632
Br5   Br    Br    0.896899 0.183753 0.655642 -0.455880
Br6   Br    Br    0.103101 0.816246 0.344358 -0.455880
C55   C     C_3   0.095662 0.171926 0.593813 -0.596671
H19   H     H_    0.054616 0.099846 0.562883 0.240014
H20   H     H_    0.158921 0.159723 0.553122 0.277203
H21   H     H_    0.106712 0.154194 0.671507 0.271751
C56   C     C_3   0.904338 0.828074 0.406187 -0.596671
H22   H     H_    0.945384 0.900154 0.437117 0.240014
H23   H     H_    0.893288 0.845806 0.328493 0.271751
H24   H     H_    0.841079 0.840277 0.446878 0.277203
C57   C     C_3   0.278621 0.305539 0.187199 -0.738642
H25   H     H_    0.277231 0.342207 0.113046 0.223075
H26   H     H_    0.220806 0.248454 0.195724 0.267445
H27   H     H_    0.272304 0.385033 0.238761 0.257086
C58   C     C_3   0.721379 0.694461 0.812801 -0.738642
H28   H     H_    0.722769 0.657793 0.886954 0.223076
H29   H     H_    0.727696 0.614967 0.761238 0.257085
H30   H     H_    0.779194 0.751546 0.804276 0.267445
Br7   Br    Br    0.288574 0.187076 0.394274 -0.511803
Br8   Br    Br    0.711426 0.812924 0.605726 -0.511803
Br9   Br    Br    0.638008 0.004262 0.257970 -0.470468
Br10  Br    Br    0.361991 0.995738 0.742029 -0.470468

loop_
_geom_bond_atom_site_label_1
_geom_bond_atom_site_label_2
_ccdc_geom_bond_type
C11   Br9   S    
C18   C21   A    
C52   Br6   S    
C56   H22   S    
C25   N1    A    
Cu1   O1    S    
C12   Br10  S    
C53   H13   S    
C56   H24   S    
C47   C49   A    
C13   H11   S    
Cu1   Cu2   S    
C1    O3    A    
C23   C42   S    
C4    C52   A    
C39   Br1   S    
C35   C37   A    
C36   H4    S    
C9    C22   S    
Cu2   N2    S    
C45   C51   A    
C34   C37   A    
C46   C52   A    
C27   C29   A    
C3    C55   S    
Cu2   O6    S    
C26   C34   A    
Cu2   O3    S    
C31   C32   A    
C31   C33   A    
C17   H1    S    
C18   C20   A    
C18   H2    S    
C40   C42   A    
C7    Br7   S    
C24   C41   S    
C41   C43   A    
C42   C44   A    
C23   O5    A    
C2    O4    A    
C8    Br8   S    
C53   H14   S    
C3    C50   A    
C44   C46   A    
C45   C47   A    
C10   C21   S    
C46   C48   A    
C54   H17   S    
C5    C57   S    
C27   C53   S    
C39   C41   A    
C23   O7    A    
C55   H19   S    
C5    C7    A    
C3    C51   A    
C24   O8    A    
C6    C8    A    
C44   H8    S    
C54   H16   S    
C1    O1    A    
C32   C34   A    
C55   H20   S    
C4    C56   S    
C9    C11   A    
C47   C48   A    
Cu2   O2    S    
C14   H12   S    
C58   H29   S    
C6    C58   S    
C48   C50   A    
C43   C45   A    
C37   H5    S    
C10   C12   A    
C38   H6    S    
C39   C49   A    
C20   C22   A    
C13   C15   A    
C14   C16   A    
Cu1   O8    S    
C58   H28   S    
C53   H15   S    
C43   H7    S    
C54   H18   S    
C7    C9    A    
C1    C20   S    
C57   H26   S    
C2    C19   S    
C25   Br3   S    
Cu1   O5    S    
C33   C38   A    
C12   C14   A    
C28   N2    A    
C56   H23   S    
C29   C35   A    
C17   C22   A    
C57   H25   S    
C30   C36   A    
C4    C49   A    
C35   H3    S    
C26   N2    A    
C36   C38   A    
C29   C31   A    
C51   Br5   S    
C55   H21   S    
C30   C32   A    
C11   C13   A    
C24   O6    A    
C40   C50   A    
C28   C30   A    
C17   C19   A    
C58   H30   S    
C40   Br2   S    
Cu1   N1    S    
C26   Br4   S    
C5    C15   A    
C27   N1    A    
C6    C16   A    
Cu2   O7    S    
C57   H27   S    
C8    C10   A    
C28   C54   S    
C15   H9    S    
C16   H10   S    
C2    O2    A    
Cu1   O4    S    
C25   C33   A    
C19   C21   A    
