data_mof_unit_63192.cif
_audit_creation_date              2013-03-05T16:11:53-0500
_audit_creation_method            fapswitch 2.2
_symmetry_space_group_name_H-M    P1
_symmetry_Int_Tables_number       1
_space_group_crystal_system       triclinic
_cell_length_a                    18.133654
_cell_length_b                    18.13364
_cell_length_c                    51.332098
_cell_angle_alpha                 89.999956
_cell_angle_beta                  89.999955
_cell_angle_gamma                 90.001888
_cell_volume                      16879.4903246

loop_
_atom_site_label
_atom_site_type_symbol
_atom_site_description
_atom_site_fract_x
_atom_site_fract_y
_atom_site_fract_z
_atom_type_partial_charge
Zn1   Zn    Zn3+2 0.088070 0.500110 0.728590 1.036880
Zn2   Zn    Zn3+2 0.911930 0.499890 0.271410 1.036880
Zn3   Zn    Zn3+2 0.499890 0.088070 0.728590 1.037016
Zn4   Zn    Zn3+2 0.500110 0.911930 0.271410 1.037016
Zn5   Zn    Zn3+2 0.911930 0.499890 0.728590 1.036880
Zn6   Zn    Zn3+2 0.088070 0.500110 0.271410 1.036880
Zn7   Zn    Zn3+2 0.500110 0.911930 0.728590 1.037016
Zn8   Zn    Zn3+2 0.499890 0.088070 0.271410 1.037016
Zn9   Zn    Zn3+2 0.588070 0.000110 0.228590 1.036882
Zn10  Zn    Zn3+2 0.411930 0.999890 0.771410 1.036882
Zn11  Zn    Zn3+2 0.999890 0.588070 0.228590 1.037027
Zn12  Zn    Zn3+2 0.000110 0.411930 0.771410 1.037027
Zn13  Zn    Zn3+2 0.411930 0.999890 0.228590 1.036882
Zn14  Zn    Zn3+2 0.588070 0.000110 0.771410 1.036882
Zn15  Zn    Zn3+2 0.000110 0.411930 0.228590 1.037027
Zn16  Zn    Zn3+2 0.999890 0.588070 0.771410 1.037027
O1    O     O_3   1.000000 0.500000 0.750000 -0.520042
O2    O     O_3   1.000000 0.500000 0.250000 -0.520042
O3    O     O_3   0.500000 0.000000 0.750000 -0.520044
O4    O     O_3   0.500000 1.000000 0.250000 -0.520044
O5    O     O_R   0.000220 0.561630 0.808380 -0.632217
O6    O     O_R   0.999780 0.438370 0.191620 -0.632217
O7    O     O_R   0.438370 0.000220 0.808380 -0.632316
O8    O     O_R   0.561630 0.999780 0.191620 -0.632316
O9    O     O_R   0.999780 0.438370 0.808380 -0.632218
O10   O     O_R   0.000220 0.561630 0.191620 -0.632218
O11   O     O_R   0.561630 0.999780 0.808380 -0.632315
O12   O     O_R   0.438370 0.000220 0.191620 -0.632316
O13   O     O_R   0.500220 0.061630 0.308380 -0.632218
O14   O     O_R   0.499780 0.938370 0.691620 -0.632218
O15   O     O_R   0.938370 0.500220 0.308380 -0.632321
O16   O     O_R   0.061630 0.499780 0.691620 -0.632321
O17   O     O_R   0.499780 0.938370 0.308380 -0.632218
O18   O     O_R   0.500220 0.061630 0.691620 -0.632219
O19   O     O_R   0.061630 0.499780 0.308380 -0.632321
O20   O     O_R   0.938370 0.500220 0.691620 -0.632321
O21   O     O_R   0.086770 0.352080 0.765560 -0.617688
O22   O     O_R   0.913230 0.647920 0.234440 -0.617688
O23   O     O_R   0.647920 0.086770 0.765560 -0.617436
O24   O     O_R   0.352080 0.913230 0.234440 -0.617436
O25   O     O_R   0.913230 0.647920 0.765560 -0.617688
O26   O     O_R   0.086770 0.352080 0.234440 -0.617688
O27   O     O_R   0.352080 0.913230 0.765560 -0.617437
O28   O     O_R   0.647920 0.086770 0.234440 -0.617437
O29   O     O_R   0.586770 0.852080 0.265560 -0.617684
O30   O     O_R   0.413230 0.147920 0.734440 -0.617684
O31   O     O_R   0.147920 0.586770 0.265560 -0.617475
O32   O     O_R   0.852080 0.413230 0.734440 -0.617476
O33   O     O_R   0.413230 0.147920 0.265560 -0.617683
O34   O     O_R   0.586770 0.852080 0.734440 -0.617684
O35   O     O_R   0.852080 0.413230 0.265560 -0.617475
O36   O     O_R   0.147920 0.586770 0.734440 -0.617476
O37   O     O_R   0.852120 0.586630 0.735130 -0.650315
O38   O     O_R   0.147880 0.413370 0.264870 -0.650315
O39   O     O_R   0.413370 0.852120 0.735130 -0.650096
O40   O     O_R   0.586630 0.147880 0.264870 -0.650096
O41   O     O_R   0.147880 0.413370 0.735130 -0.650315
O42   O     O_R   0.852120 0.586630 0.264870 -0.650316
O43   O     O_R   0.586630 0.147880 0.735130 -0.650096
O44   O     O_R   0.413370 0.852120 0.264870 -0.650096
O45   O     O_R   0.352120 0.086630 0.235130 -0.650346
O46   O     O_R   0.647880 0.913370 0.764870 -0.650346
O47   O     O_R   0.913370 0.352120 0.235130 -0.650087
O48   O     O_R   0.086630 0.647880 0.764870 -0.650087
O49   O     O_R   0.647880 0.913370 0.235130 -0.650346
O50   O     O_R   0.352120 0.086630 0.764870 -0.650346
O51   O     O_R   0.086630 0.647880 0.235130 -0.650087
O52   O     O_R   0.913370 0.352120 0.764870 -0.650087
C1    C     C_R   0.000000 0.500000 0.820824 0.849693
C2    C     C_R   0.000000 0.500000 0.179176 0.849693
C3    C     C_R   0.500000 0.000000 0.820824 0.849456
C4    C     C_R   0.500000 1.000000 0.179176 0.849456
C5    C     C_R   0.500000 1.000000 0.320824 0.849696
C6    C     C_R   0.500000 0.000000 0.679176 0.849696
C7    C     C_R   1.000000 0.500000 0.320824 0.849466
C8    C     C_R   1.000000 0.500000 0.679176 0.849466
C9    C     C_R   0.141933 0.358723 0.750446 0.893602
C10   C     C_R   0.858067 0.641277 0.249554 0.893602
C11   C     C_R   0.641276 0.141933 0.750446 0.893661
C12   C     C_R   0.358723 0.858067 0.249554 0.893661
C13   C     C_R   0.858067 0.641277 0.750446 0.893601
C14   C     C_R   0.141933 0.358723 0.249554 0.893601
C15   C     C_R   0.358724 0.858067 0.750446 0.893661
C16   C     C_R   0.641276 0.141933 0.249554 0.893661
C17   C     C_R   0.641933 0.858723 0.250446 0.893584
C18   C     C_R   0.358067 0.141277 0.749554 0.893584
C19   C     C_R   0.141276 0.641933 0.250447 0.893668
C20   C     C_R   0.858724 0.358067 0.749553 0.893668
C21   C     C_R   0.358067 0.141277 0.250446 0.893583
C22   C     C_R   0.641933 0.858723 0.749554 0.893583
C23   C     C_R   0.858724 0.358067 0.250447 0.893667
C24   C     C_R   0.141276 0.641933 0.749553 0.893667
C25   C     C_3   0.198732 0.766027 0.768324 -0.238948
C26   C     C_3   0.801268 0.233973 0.231676 -0.238949
C27   C     C_3   0.233980 0.198740 0.768328 -0.240044
C28   C     C_3   0.766020 0.801260 0.231672 -0.240043
C29   C     C_3   0.801268 0.233973 0.768324 -0.238949
C30   C     C_3   0.198732 0.766027 0.231676 -0.238948
C31   C     C_3   0.766019 0.801260 0.768328 -0.240044
C32   C     C_3   0.233980 0.198740 0.231672 -0.240044
C33   C     C_3   0.698732 0.266027 0.268324 -0.238979
C34   C     C_3   0.301268 0.733973 0.731676 -0.238980
C35   C     C_3   0.733980 0.698740 0.268328 -0.240021
C36   C     C_3   0.266020 0.301260 0.731672 -0.240021
C37   C     C_3   0.301268 0.733973 0.268324 -0.238979
C38   C     C_3   0.698732 0.266027 0.731676 -0.238979
C39   C     C_3   0.266020 0.301260 0.268328 -0.240020
C40   C     C_3   0.733981 0.698740 0.731672 -0.240020
C41   C     C_3   0.219662 0.816698 0.744948 -0.275903
C42   C     C_3   0.780338 0.183302 0.255052 -0.275903
C43   C     C_3   0.183299 0.219656 0.744954 -0.275733
C44   C     C_3   0.816701 0.780343 0.255046 -0.275733
C45   C     C_3   0.780338 0.183302 0.744948 -0.275903
C46   C     C_3   0.219662 0.816698 0.255052 -0.275904
C47   C     C_3   0.816701 0.780343 0.744954 -0.275732
C48   C     C_3   0.183299 0.219656 0.255046 -0.275732
C49   C     C_3   0.719662 0.316698 0.244948 -0.275929
C50   C     C_3   0.280338 0.683302 0.755052 -0.275928
C51   C     C_3   0.683299 0.719657 0.244954 -0.275757
C52   C     C_3   0.316701 0.280343 0.755046 -0.275757
C53   C     C_3   0.280338 0.683302 0.244948 -0.275928
C54   C     C_3   0.719662 0.316698 0.755052 -0.275929
C55   C     C_3   0.316701 0.280344 0.244954 -0.275757
C56   C     C_3   0.683299 0.719656 0.755046 -0.275757
H1    H     H_    0.195486 0.871453 0.740403 0.188936
H2    H     H_    0.804514 0.128547 0.259597 0.188936
H3    H     H_    0.128542 0.195476 0.740413 0.188868
H4    H     H_    0.871458 0.804524 0.259587 0.188868
H5    H     H_    0.804513 0.128547 0.740403 0.188936
H6    H     H_    0.195486 0.871453 0.259597 0.188936
H7    H     H_    0.871458 0.804524 0.740413 0.188868
H8    H     H_    0.128542 0.195475 0.259587 0.188868
H9    H     H_    0.695487 0.371453 0.240403 0.188932
H10   H     H_    0.304513 0.628547 0.759597 0.188932
H11   H     H_    0.628542 0.695476 0.240413 0.188862
H12   H     H_    0.371458 0.304524 0.759587 0.188862
H13   H     H_    0.304513 0.628547 0.240403 0.188932
H14   H     H_    0.695487 0.371453 0.759597 0.188932
H15   H     H_    0.371458 0.304524 0.240413 0.188862
H16   H     H_    0.628542 0.695475 0.759587 0.188862
H17   H     H_    0.157183 0.778293 0.783606 0.193357
H18   H     H_    0.842817 0.221707 0.216394 0.193357
H19   H     H_    0.221719 0.157198 0.783613 0.192868
H20   H     H_    0.778281 0.842802 0.216387 0.192868
H21   H     H_    0.842817 0.221706 0.783606 0.193357
H22   H     H_    0.157183 0.778293 0.216394 0.193357
H23   H     H_    0.778280 0.842801 0.783613 0.192869
H24   H     H_    0.221719 0.157198 0.216387 0.192869
H25   H     H_    0.657183 0.278293 0.283606 0.193342
H26   H     H_    0.342817 0.721707 0.716394 0.193341
H27   H     H_    0.721719 0.657198 0.283613 0.192883
H28   H     H_    0.278281 0.342802 0.716387 0.192883
H29   H     H_    0.342817 0.721707 0.283606 0.193341
H30   H     H_    0.657183 0.278293 0.716394 0.193341
H31   H     H_    0.278281 0.342801 0.283613 0.192883
H32   H     H_    0.721719 0.657199 0.716387 0.192883
C57   C     C_3   0.301855 0.800865 0.750319 -0.105791
C58   C     C_3   0.698145 0.199135 0.249681 -0.105792
C59   C     C_3   0.199135 0.301854 0.750319 -0.105739
C60   C     C_3   0.800865 0.698146 0.249681 -0.105739
C61   C     C_3   0.698144 0.199135 0.750319 -0.105792
C62   C     C_3   0.301855 0.800865 0.249681 -0.105791
C63   C     C_3   0.800865 0.698146 0.750319 -0.105739
C64   C     C_3   0.199135 0.301854 0.249681 -0.105739
C65   C     C_3   0.801856 0.300865 0.250319 -0.105795
C66   C     C_3   0.198144 0.699135 0.749680 -0.105795
C67   C     C_3   0.699135 0.801854 0.250319 -0.105732
C68   C     C_3   0.300865 0.198146 0.749681 -0.105732
C69   C     C_3   0.198144 0.699135 0.250319 -0.105794
C70   C     C_3   0.801855 0.300865 0.749680 -0.105794
C71   C     C_3   0.300865 0.198146 0.250319 -0.105732
C72   C     C_3   0.699135 0.801854 0.749681 -0.105732
C73   C     C_3   0.281007 0.750939 0.773098 0.366301
C74   C     C_3   0.718993 0.249060 0.226902 0.366302
C75   C     C_3   0.249071 0.281019 0.773096 0.367733
C76   C     C_3   0.750929 0.718981 0.226904 0.367733
C77   C     C_3   0.718993 0.249060 0.773098 0.366301
C78   C     C_3   0.281008 0.750940 0.226902 0.366300
C79   C     C_3   0.750929 0.718980 0.773096 0.367733
C80   C     C_3   0.249071 0.281019 0.226904 0.367732
C81   C     C_3   0.781008 0.250940 0.273098 0.366326
C82   C     C_3   0.218992 0.749060 0.726902 0.366325
C83   C     C_3   0.749071 0.781019 0.273096 0.367723
C84   C     C_3   0.250929 0.218981 0.726904 0.367723
C85   C     C_3   0.218992 0.749060 0.273098 0.366325
C86   C     C_3   0.781008 0.250940 0.726902 0.366326
C87   C     C_3   0.250929 0.218981 0.273096 0.367723
C88   C     C_3   0.749071 0.781019 0.726904 0.367723
C89   C     C_R   0.474790 0.939103 0.945208 0.515345
C90   C     C_R   0.525210 0.060897 0.054791 0.515345
C91   C     C_R   0.060400 0.526379 0.945208 0.515739
C92   C     C_R   0.939600 0.473621 0.054792 0.515738
C93   C     C_R   0.525209 0.060897 0.945208 0.515345
C94   C     C_R   0.474790 0.939103 0.054791 0.515344
C95   C     C_R   0.939601 0.473621 0.945208 0.515738
C96   C     C_R   0.060400 0.526379 0.054792 0.515738
C97   C     C_R   0.975647 0.438756 0.445208 0.515344
C98   C     C_R   0.024353 0.561244 0.554792 0.515344
C99   C     C_R   0.560410 0.026355 0.445208 0.515741
C100  C     C_R   0.439590 0.973645 0.554792 0.515741
C101  C     C_R   0.024353 0.561244 0.445207 0.515345
C102  C     C_R   0.975647 0.438756 0.554792 0.515344
C103  C     C_R   0.439590 0.973645 0.445208 0.515741
C104  C     C_R   0.560410 0.026355 0.554792 0.515741
N1    N     N_R   0.500000 0.000000 0.932156 -0.358909
N2    N     N_R   0.500000 1.000000 0.067844 -0.358909
N3    N     N_R   0.000000 0.500000 0.932156 -0.358713
N4    N     N_R   0.000000 0.500000 0.067844 -0.358713
N5    N     N_R   1.000000 0.500000 0.432156 -0.358972
N6    N     N_R   0.000000 0.500000 0.567844 -0.358970
N7    N     N_R   0.500000 1.000000 0.432156 -0.358712
N8    N     N_R   0.500000 0.000000 0.567844 -0.358712
C105  C     C_R   0.525879 0.062100 0.972536 -0.023352
C106  C     C_R   0.474121 0.937900 0.027464 -0.023352
C107  C     C_R   0.938410 0.472929 0.972536 -0.023130
C108  C     C_R   0.061591 0.527070 0.027464 -0.023130
C109  C     C_R   0.474121 0.937900 0.972536 -0.023352
C110  C     C_R   0.525879 0.062100 0.027464 -0.023352
C111  C     C_R   0.061590 0.527070 0.972536 -0.023130
C112  C     C_R   0.938409 0.472930 0.027464 -0.023130
C113  C     C_R   0.024997 0.562461 0.472535 -0.023439
C114  C     C_R   0.975003 0.437539 0.527464 -0.023437
C115  C     C_R   0.438399 0.972954 0.472536 -0.023133
C116  C     C_R   0.561601 0.027046 0.527464 -0.023132
C117  C     C_R   0.975002 0.437539 0.472535 -0.023439
C118  C     C_R   0.024998 0.562461 0.527464 -0.023438
C119  C     C_R   0.561601 0.027045 0.472536 -0.023132
C120  C     C_R   0.438399 0.972954 0.527464 -0.023132
C121  C     C_R   0.500000 1.000000 0.986251 -0.016059
C122  C     C_R   0.500000 1.000000 0.013749 -0.016059
C123  C     C_R   0.000000 0.500000 0.986251 -0.016155
C124  C     C_R   1.000000 0.500000 0.013749 -0.016156
C125  C     C_R   1.000000 0.500000 0.486251 -0.016040
C126  C     C_R   1.000000 0.500000 0.513749 -0.016040
C127  C     C_R   0.500000 1.000000 0.486251 -0.016153
C128  C     C_R   0.500000 1.000000 0.513749 -0.016154
C129  C     C_R   0.551531 0.123764 0.986410 -0.140980
C130  C     C_R   0.448469 0.876236 0.013590 -0.140981
C131  C     C_R   0.877251 0.446095 0.986410 -0.140960
C132  C     C_R   0.122749 0.553905 0.013590 -0.140961
C133  C     C_R   0.448469 0.876236 0.986410 -0.140980
C134  C     C_R   0.551531 0.123764 0.013590 -0.140980
C135  C     C_R   0.122749 0.553905 0.986410 -0.140960
C136  C     C_R   0.877251 0.446095 0.013590 -0.140960
C137  C     C_R   0.049767 0.624483 0.486410 -0.140964
C138  C     C_R   0.950233 0.375516 0.513590 -0.140963
C139  C     C_R   0.377229 0.946144 0.486410 -0.140955
C140  C     C_R   0.622771 0.053855 0.513590 -0.140954
C141  C     C_R   0.950232 0.375516 0.486410 -0.140964
C142  C     C_R   0.049767 0.624483 0.513590 -0.140962
C143  C     C_R   0.622771 0.053855 0.486410 -0.140955
C144  C     C_R   0.377229 0.946144 0.513590 -0.140955
O53   O     O_2   0.451023 0.879725 0.931767 -0.526988
O54   O     O_2   0.548978 0.120274 0.068233 -0.526988
O55   O     O_2   0.119307 0.551287 0.931766 -0.528255
O56   O     O_2   0.880692 0.448714 0.068234 -0.528254
O57   O     O_2   0.548976 0.120275 0.931767 -0.526988
O58   O     O_2   0.451023 0.879725 0.068233 -0.526987
O59   O     O_2   0.880693 0.448712 0.931767 -0.528255
O60   O     O_2   0.119308 0.551287 0.068233 -0.528254
O61   O     O_2   0.952701 0.379059 0.431764 -0.526831
O62   O     O_2   0.047299 0.620941 0.568236 -0.526834
O63   O     O_2   0.619328 0.051240 0.431766 -0.528267
O64   O     O_2   0.380672 0.948760 0.568234 -0.528267
O65   O     O_2   0.047298 0.620941 0.431764 -0.526831
O66   O     O_2   0.952702 0.379059 0.568236 -0.526835
O67   O     O_2   0.380672 0.948760 0.431766 -0.528267
O68   O     O_2   0.619328 0.051241 0.568233 -0.528267
H33   H     H_    0.571688 0.172205 0.976327 0.201075
H34   H     H_    0.428311 0.827796 0.023673 0.201075
H35   H     H_    0.829208 0.425009 0.976327 0.200962
H36   H     H_    0.170792 0.574991 0.023673 0.200962
H37   H     H_    0.428312 0.827795 0.976327 0.201075
H38   H     H_    0.571689 0.172204 0.023673 0.201075
H39   H     H_    0.170792 0.574991 0.976327 0.200962
H40   H     H_    0.829208 0.425009 0.023673 0.200962
H41   H     H_    0.069231 0.673207 0.476326 0.201116
H42   H     H_    0.930769 0.326793 0.523674 0.201116
H43   H     H_    0.329178 0.925078 0.476327 0.200962
H44   H     H_    0.670822 0.074922 0.523673 0.200961
H45   H     H_    0.930768 0.326793 0.476326 0.201116
H46   H     H_    0.069232 0.673207 0.523673 0.201116
H47   H     H_    0.670822 0.074922 0.476327 0.200962
H48   H     H_    0.329178 0.925078 0.523673 0.200962
C145  C     C_R   0.933187 0.498963 0.609472 -0.086277
C146  C     C_R   0.933186 0.498972 0.390528 -0.086279
C147  C     C_R   0.500910 0.933185 0.609474 -0.086045
C148  C     C_R   0.500910 0.933184 0.390526 -0.086045
C149  C     C_R   0.066814 0.501037 0.609472 -0.086277
C150  C     C_R   0.066813 0.501028 0.390528 -0.086280
C151  C     C_R   0.499090 0.066816 0.609474 -0.086046
C152  C     C_R   0.499090 0.066815 0.390526 -0.086045
C153  C     C_R   0.433180 0.999610 0.109474 -0.086132
C154  C     C_R   0.433179 0.999609 0.890526 -0.086131
C155  C     C_R   0.000930 0.433185 0.109474 -0.086041
C156  C     C_R   0.000930 0.433184 0.890526 -0.086040
C157  C     C_R   0.566821 0.000390 0.109474 -0.086131
C158  C     C_R   0.566820 0.000391 0.890526 -0.086132
C159  C     C_R   0.999070 0.566815 0.109474 -0.086041
C160  C     C_R   0.999070 0.566815 0.890526 -0.086041
H49   H     H_    0.881326 0.498371 0.599015 0.155351
H50   H     H_    0.881326 0.498386 0.400985 0.155346
H51   H     H_    0.501851 0.881328 0.599018 0.155501
H52   H     H_    0.501850 0.881327 0.400982 0.155502
H53   H     H_    0.118674 0.501629 0.599015 0.155352
H54   H     H_    0.118674 0.501614 0.400985 0.155346
H55   H     H_    0.498148 0.118673 0.599018 0.155501
H56   H     H_    0.498150 0.118672 0.400982 0.155502
H57   H     H_    0.381314 0.999530 0.099019 0.155495
H58   H     H_    0.381313 0.999528 0.900981 0.155495
H59   H     H_    0.001887 0.381328 0.099018 0.155512
H60   H     H_    0.001886 0.381328 0.900982 0.155513
H61   H     H_    0.618687 0.000470 0.099019 0.155495
H62   H     H_    0.618686 0.000472 0.900981 0.155495
H63   H     H_    0.998113 0.618672 0.099018 0.155512
H64   H     H_    0.998114 0.618672 0.900982 0.155513
C161  C     C_R   0.933107 0.498972 0.636636 -0.165260
C162  C     C_R   0.933107 0.498981 0.363364 -0.165259
C163  C     C_R   0.500901 0.933106 0.636637 -0.165307
C164  C     C_R   0.500900 0.933105 0.363362 -0.165307
C165  C     C_R   0.066893 0.501027 0.636636 -0.165260
C166  C     C_R   0.066893 0.501019 0.363364 -0.165258
C167  C     C_R   0.499099 0.066894 0.636637 -0.165307
C168  C     C_R   0.499099 0.066894 0.363362 -0.165307
C169  C     C_R   0.433101 0.999605 0.136637 -0.165376
C170  C     C_R   0.433100 0.999604 0.863362 -0.165376
C171  C     C_R   0.000921 0.433106 0.136637 -0.165302
C172  C     C_R   0.000920 0.433106 0.863363 -0.165302
C173  C     C_R   0.566899 0.000394 0.136637 -0.165376
C174  C     C_R   0.566899 0.000396 0.863362 -0.165376
C175  C     C_R   0.999079 0.566894 0.136637 -0.165302
C176  C     C_R   0.999080 0.566894 0.863363 -0.165302
H65   H     H_    0.880733 0.498178 0.646767 0.182422
H66   H     H_    0.880733 0.498194 0.353233 0.182420
H67   H     H_    0.501687 0.880732 0.646769 0.182429
H68   H     H_    0.501685 0.880731 0.353231 0.182429
H69   H     H_    0.119267 0.501822 0.646767 0.182422
H70   H     H_    0.119267 0.501806 0.353233 0.182419
H71   H     H_    0.498313 0.119269 0.646769 0.182429
H72   H     H_    0.498315 0.119268 0.353231 0.182429
H73   H     H_    0.380721 0.999321 0.146769 0.182309
H74   H     H_    0.380721 0.999319 0.853231 0.182309
H75   H     H_    0.001722 0.380732 0.146769 0.182439
H76   H     H_    0.001721 0.380732 0.853231 0.182439
H77   H     H_    0.619279 0.000678 0.146769 0.182309
H78   H     H_    0.619279 0.000681 0.853231 0.182309
H79   H     H_    0.998278 0.619268 0.146769 0.182439
H80   H     H_    0.998279 0.619268 0.853231 0.182439
C177  C     C_R   0.000000 0.500000 0.650476 -0.019450
C178  C     C_R   1.000000 0.500000 0.349524 -0.019447
C179  C     C_R   0.500000 0.000000 0.650477 -0.019423
C180  C     C_R   0.500000 1.000000 0.349523 -0.019422
C181  C     C_R   0.500000 1.000000 0.150477 -0.019274
C182  C     C_R   0.500000 0.000000 0.849522 -0.019275
C183  C     C_R   0.000000 0.500000 0.150477 -0.019435
C184  C     C_R   1.000000 0.500000 0.849523 -0.019435
C185  C     C_R   0.000000 0.500000 0.595793 0.293882
C186  C     C_R   1.000000 0.500000 0.404207 0.293891
C187  C     C_R   0.500000 0.000000 0.595794 0.294072
C188  C     C_R   0.500000 1.000000 0.404206 0.294071
C189  C     C_R   0.500000 1.000000 0.095795 0.293669
C190  C     C_R   0.500000 1.000000 0.904205 0.293668
C191  C     C_R   0.000000 0.500000 0.095795 0.294053
C192  C     C_R   0.000000 0.500000 0.904206 0.294052
N9    N     N_R   0.314699 0.750645 0.798876 0.215899
O69   O     O_R   0.290325 0.705573 0.816594 -0.342272
O70   O     O_R   0.369964 0.793773 0.804199 -0.383778
N10   N     N_R   0.685301 0.249355 0.201124 0.215898
O71   O     O_R   0.709676 0.294426 0.183406 -0.342272
O72   O     O_R   0.630035 0.206228 0.195801 -0.383778
N11   N     N_R   0.249377 0.314724 0.798872 0.215165
O73   O     O_R   0.294459 0.290364 0.816589 -0.347581
O74   O     O_R   0.206251 0.369988 0.804194 -0.385861
N12   N     N_R   0.750623 0.685276 0.201128 0.215164
O75   O     O_R   0.705541 0.709636 0.183411 -0.347582
O76   O     O_R   0.793749 0.630012 0.195806 -0.385862
N13   N     N_R   0.685301 0.249354 0.798876 0.215898
O77   O     O_R   0.709675 0.294426 0.816594 -0.342272
O78   O     O_R   0.630035 0.206226 0.804199 -0.383778
N14   N     N_R   0.314699 0.750646 0.201124 0.215899
O79   O     O_R   0.290325 0.705574 0.183406 -0.342272
O80   O     O_R   0.369965 0.793773 0.195801 -0.383778
N15   N     N_R   0.750622 0.685275 0.798872 0.215164
O81   O     O_R   0.705539 0.709635 0.816588 -0.347581
O82   O     O_R   0.793748 0.630011 0.804193 -0.385862
N16   N     N_R   0.249378 0.314724 0.201128 0.215165
O83   O     O_R   0.294460 0.290364 0.183411 -0.347582
O84   O     O_R   0.206251 0.369988 0.195806 -0.385861
N17   N     N_R   0.814698 0.250646 0.298876 0.215869
O85   O     O_R   0.790325 0.205573 0.316594 -0.342336
O86   O     O_R   0.869962 0.293776 0.304199 -0.383893
N18   N     N_R   0.185301 0.749355 0.701124 0.215868
O87   O     O_R   0.209674 0.794428 0.683406 -0.342337
O88   O     O_R   0.130038 0.706224 0.695801 -0.383894
N19   N     N_R   0.749377 0.814724 0.298872 0.215170
O89   O     O_R   0.794459 0.790364 0.316588 -0.347459
O90   O     O_R   0.706251 0.869988 0.304193 -0.385848
N20   N     N_R   0.250623 0.185276 0.701128 0.215169
O91   O     O_R   0.205540 0.209636 0.683411 -0.347457
O92   O     O_R   0.293749 0.130012 0.695806 -0.385848
N21   N     N_R   0.185301 0.749354 0.298876 0.215869
O93   O     O_R   0.209674 0.794426 0.316594 -0.342336
O94   O     O_R   0.130037 0.706224 0.304199 -0.383893
N22   N     N_R   0.814699 0.250646 0.701124 0.215869
O95   O     O_R   0.790326 0.205574 0.683406 -0.342337
O96   O     O_R   0.869963 0.293776 0.695801 -0.383895
N23   N     N_R   0.250622 0.185276 0.298872 0.215169
O97   O     O_R   0.205540 0.209635 0.316588 -0.347458
O98   O     O_R   0.293749 0.130011 0.304193 -0.385848
N24   N     N_R   0.749378 0.814724 0.701128 0.215170
O99   O     O_R   0.794461 0.790365 0.683412 -0.347457
O100  O     O_R   0.706251 0.869989 0.695807 -0.385849

loop_
_geom_bond_atom_site_label_1
_geom_bond_atom_site_label_2
_geom_bond_distance
_ccdc_geom_bond_type
C41   C82   1.537080 S    
C137  C142  1.395212 A    
C8    C177  1.473216 S    
C142  H46   1.083103 S    
Zn7   O39   1.939829 S    
C49   H9    1.110178 S    
C27   C68   1.545118 S    
Zn8   O40   1.939829 S    
C105  C121  1.408532 A    
C163  H67   1.082899 S    
C139  C144  1.395201 A    
C155  C191  1.400478 A    
C168  C180  1.405863 A    
C129  C134  1.395196 A    
C35   C83   1.536512 S    
N6    C185  1.434712 S    
N3    C192  1.434758 S    
C151  C187  1.400480 A    
C161  C177  1.405882 A    
C30   C46   1.558262 S    
C149  H53   1.082878 S    
Zn5   O20   1.957385 S    
Zn6   O19   1.957385 S    
C130  H34   1.083086 S    
N8    C187  1.434758 S    
C27   C75   1.536514 S    
C30   C69   1.545111 S    
C90   N2    1.370142 A    
C50   C73   1.537074 S    
Zn11  O51   1.939830 S    
C92   O56   1.349507 S    
Zn3   O3    1.938645 S    
C156  C172  1.394365 A    
C166  C178  1.405881 A    
C82   N18   1.457492 S    
Zn10  O50   1.939887 S    
C46   H6    1.110179 S    
Zn13  O45   1.939887 S    
C101  O65   1.349509 S    
C40   C56   1.558264 S    
Zn6   O2    1.938645 S    
C26   C65   1.545110 S    
N1    C190  1.434768 S    
C172  H76   1.082903 S    
C89   C109  1.403005 A    
C104  O68   1.349507 S    
C158  C174  1.394360 A    
C34   C82   1.536510 S    
C38   C86   1.536508 S    
N18   O88   1.300217 A    
O22   C10   1.271626 A    
Zn3   O18   1.957386 S    
C7    C178  1.473216 S    
C17   C67   1.462696 S    
C154  C190  1.400482 A    
N16   O84   1.300215 A    
C121  C122  1.411494 A    
C51   C76   1.537081 S    
C28   H20   1.110181 S    
C52   C75   1.537081 S    
C56   C72   1.542727 S    
C104  N8    1.370141 A    
C152  C168  1.394365 A    
C159  C191  1.400478 A    
C9    C59   1.462698 S    
O17   C5    1.287250 A    
C33   C58   1.545110 S    
Zn7   O3    1.938648 S    
N17   O85   1.300211 A    
C149  C185  1.400453 A    
O9    C1    1.287250 A    
C36   C59   1.545115 S    
O39   C15   1.269548 A    
N15   O81   1.300207 A    
C51   C67   1.542728 S    
O11   C3    1.287251 A    
C52   C68   1.542728 S    
C119  C143  1.404959 A    
C172  C184  1.405863 A    
C31   H23   1.110178 S    
C114  C126  1.408545 A    
C44   C60   1.542727 S    
Zn13  O4    1.938649 S    
C29   H21   1.110178 S    
Zn14  O3    1.938645 S    
C40   C88   1.536513 S    
C95   O59   1.349505 S    
Zn15  O26   1.933302 S    
C93   C105  1.403005 A    
Zn3   O30   1.933302 S    
C36   H28   1.110180 S    
C117  C125  1.408547 A    
N9    O69   1.300210 A    
C148  H52   1.082874 S    
C14   C64   1.462698 S    
C160  H64   1.082876 S    
C25   C73   1.536510 S    
C47   C63   1.542728 S    
C86   N22   1.457493 S    
C45   C61   1.542721 S    
Zn4   O4    1.938644 S    
C83   N19   1.457493 S    
N11   O74   1.300214 A    
O5    C1    1.287250 A    
C89   O53   1.349506 S    
C39   H31   1.110180 S    
C98   C118  1.403026 A    
N14   O79   1.300210 A    
C54   C77   1.537081 S    
C37   H29   1.110180 S    
Zn11  O2    1.938645 S    
Zn16  O5    1.957385 S    
C153  C169  1.394360 A    
O27   C15   1.271627 A    
O29   C17   1.271626 A    
C66   C82   1.526339 S    
C101  C113  1.403026 A    
C84   N20   1.457489 S    
N21   O93   1.300209 A    
C149  C165  1.394386 A    
Zn12  O52   1.939830 S    
C46   C85   1.537081 S    
C157  C189  1.400482 A    
Zn8   O13   1.957385 S    
C106  C130  1.404958 A    
C87   N23   1.457489 S    
C48   C87   1.537079 S    
O14   C6    1.287250 A    
O23   C11   1.271626 A    
C19   C69   1.462644 S    
C55   H15   1.110180 S    
C38   C61   1.545110 S    
C53   H13   1.110178 S    
C56   H16   1.110180 S    
N12   O75   1.300206 A    
C42   C81   1.537077 S    
C56   C79   1.537084 S    
C148  C188  1.400481 A    
C30   C78   1.536508 S    
C125  C126  1.411520 A    
C50   H10   1.110178 S    
C157  H61   1.082876 S    
C146  C186  1.400453 A    
C101  N5    1.370107 A    
O34   C22   1.271627 A    
Zn9   O49   1.939887 S    
Zn4   O29   1.933302 S    
C160  C192  1.400481 A    
Zn5   O32   1.933243 S    
C150  H54   1.082877 S    
C93   N1    1.370145 A    
Zn6   O31   1.933243 S    
C145  C185  1.400454 A    
C26   H18   1.110180 S    
C18   C68   1.462696 S    
N22   O95   1.300211 A    
C21   C71   1.462696 S    
C89   N1    1.370143 A    
C16   C58   1.462646 S    
C91   N3    1.370141 A    
C31   C72   1.545118 S    
C5    C180  1.473175 S    
C115  C139  1.404957 A    
C171  C183  1.405860 A    
C29   C70   1.545111 S    
C145  H49   1.082879 S    
O31   C19   1.271623 A    
C96   N4    1.370141 A    
Zn1   O41   1.939887 S    
C166  H70   1.082901 S    
C48   H8    1.110179 S    
C80   N16   1.457489 S    
Zn4   O44   1.939830 S    
C143  H47   1.083087 S    
C102  O66   1.349509 S    
C12   C62   1.462644 S    
N24   O99   1.300205 A    
C176  H80   1.082902 S    
C42   H2    1.110179 S    
C25   C66   1.545108 S    
Zn6   O38   1.939887 S    
C63   C79   1.526346 S    
N20   O92   1.300215 A    
O47   C23   1.269550 A    
C32   C80   1.536514 S    
C135  H39   1.083084 S    
C78   N14   1.457494 S    
O8    C4    1.287251 A    
N17   O86   1.300217 A    
C146  H50   1.082878 S    
Zn4   O17   1.957386 S    
O44   C12   1.269549 A    
C113  C125  1.408547 A    
C23   C65   1.462643 S    
Zn7   O34   1.933302 S    
C111  C123  1.408536 A    
C42   C58   1.542720 S    
O50   C18   1.269548 A    
C164  C180  1.405862 A    
Zn1   O1    1.938646 S    
C118  C126  1.408544 A    
C152  C188  1.400479 A    
C77   N13   1.457489 S    
C174  H78   1.082901 S    
C146  C162  1.394386 A    
N23   O98   1.300215 A    
C139  H43   1.083086 S    
C98   N6    1.370108 A    
C3    C182  1.473170 S    
N13   O78   1.300217 A    
C136  H40   1.083084 S    
C155  C171  1.394365 A    
C137  H41   1.083102 S    
C120  C144  1.404956 A    
Zn16  O25   1.933302 S    
O6    C2    1.287250 A    
C170  C182  1.405860 A    
C25   C41   1.558265 S    
C138  C141  1.395212 A    
C170  H74   1.082902 S    
C27   H19   1.110180 S    
Zn15  O2    1.938648 S    
C32   C48   1.558267 S    
C39   C55   1.558267 S    
C158  H62   1.082875 S    
N10   O72   1.300215 A    
C33   C81   1.536510 S    
C174  C182  1.405861 A    
C130  C133  1.395196 A    
C150  C186  1.400453 A    
C141  H45   1.083101 S    
C11   C61   1.462644 S    
C164  H68   1.082899 S    
C31   C47   1.558269 S    
C96   C108  1.403010 A    
C35   C60   1.545115 S    
C46   C62   1.542721 S    
Zn5   O1    1.938649 S    
N11   O73   1.300205 A    
C117  C141  1.404955 A    
C81   N17   1.457490 S    
C103  N7    1.370142 A    
O37   C13   1.269549 A    
C100  C120  1.403010 A    
C133  H37   1.083086 S    
Zn12  O21   1.933302 S    
C43   C59   1.542727 S    
C110  C122  1.408535 A    
Zn13  O24   1.933243 S    
C97   O61   1.349511 S    
O35   C23   1.271625 A    
Zn14  O23   1.933243 S    
C6    C179  1.473175 S    
C116  C140  1.404957 A    
Zn15  O6    1.957385 S    
C49   C65   1.542719 S    
Zn16  O1    1.938644 S    
C38   H30   1.110178 S    
Zn12  O1    1.938644 S    
C93   O57   1.349506 S    
C127  C128  1.411499 A    
O32   C20   1.271623 A    
Zn13  O12   1.957385 S    
Zn14  O11   1.957385 S    
C95   C107  1.403010 A    
C64   C80   1.526346 S    
C35   H27   1.110181 S    
C153  H57   1.082875 S    
C165  C177  1.405881 A    
C41   C57   1.542719 S    
Zn7   O14   1.957385 S    
C75   N11   1.457488 S    
O12   C4    1.287251 A    
N2    C189  1.434768 S    
C90   C110  1.403005 A    
O40   C16   1.269548 A    
C44   C83   1.537081 S    
C159  C175  1.394365 A    
C40   C63   1.545115 S    
C145  C161  1.394386 A    
C20   C70   1.462644 S    
C1    C184  1.473175 S    
O41   C9    1.269548 A    
C54   H14   1.110178 S    
O43   C11   1.269549 A    
C58   C74   1.526340 S    
O21   C9    1.271626 A    
C26   C42   1.558267 S    
C132  C135  1.395201 A    
C91   O55   1.349503 S    
C52   H12   1.110178 S    
C109  C133  1.404958 A    
C168  H72   1.082900 S    
Zn11  O22   1.933302 S    
C38   C54   1.558263 S    
C31   C79   1.536513 S    
O7    C3    1.287251 A    
C112  C136  1.404956 A    
Zn9   O4    1.938646 S    
C29   C77   1.536508 S    
C40   H32   1.110183 S    
Zn10  O3    1.938645 S    
O25   C13   1.271627 A    
C70   C86   1.526339 S    
C28   C67   1.545118 S    
C103  C115  1.403010 A    
C100  N8    1.370140 A    
C158  C190  1.400482 A    
C148  C164  1.394365 A    
C108  C132  1.404958 A    
O18   C6    1.287250 A    
C36   C84   1.536515 S    
N5    C186  1.434706 S    
C151  H55   1.082874 S    
O10   C2    1.287250 A    
O36   C24   1.271624 A    
O48   C24   1.269550 A    
C106  C122  1.408533 A    
O38   C14   1.269549 A    
C13   C63   1.462698 S    
C25   H17   1.110178 S    
N14   O80   1.300216 A    
C118  C142  1.404955 A    
C28   C76   1.536514 S    
C162  H66   1.082900 S    
N18   O87   1.300211 A    
O28   C16   1.271627 A    
C94   C106  1.403005 A    
N19   O89   1.300202 A    
Zn2   O42   1.939887 S    
C85   N21   1.457493 S    
C176  C184  1.405861 A    
N10   O71   1.300211 A    
C33   C49   1.558264 S    
C69   C85   1.526338 S    
N9    O70   1.300216 A    
N16   O83   1.300206 A    
C116  C128  1.408533 A    
C103  O67   1.349506 S    
C114  C138  1.404952 A    
Zn1   O36   1.933243 S    
C51   H11   1.110178 S    
C44   H4    1.110178 S    
C96   O60   1.349505 S    
Zn2   O35   1.933243 S    
O42   C10   1.269548 A    
C157  C173  1.394360 A    
C95   N3    1.370141 A    
C97   C117  1.403026 A    
C22   C72   1.462696 S    
C90   O54   1.349506 S    
C129  H33   1.083089 S    
C54   C70   1.542719 S    
C99   C119  1.403010 A    
Zn8   O33   1.933302 S    
C55   C71   1.542728 S    
C72   C88   1.526343 S    
C57   C73   1.526337 S    
C36   C52   1.558267 S    
Zn14  O46   1.939887 S    
C49   C74   1.537079 S    
C53   C69   1.542719 S    
C154  C170  1.394360 A    
C167  H71   1.082901 S    
C163  C179  1.405863 A    
Zn2   O2    1.938645 S    
C102  C114  1.403031 A    
O26   C14   1.271627 A    
C79   N15   1.457485 S    
C150  C166  1.394386 A    
C47   H7    1.110179 S    
C153  C189  1.400482 A    
C28   C44   1.558267 S    
O19   C7    1.287262 A    
Zn8   O4    1.938644 S    
C45   H5    1.110177 S    
C107  C123  1.408534 A    
Zn5   O37   1.939887 S    
N22   O96   1.300215 A    
C105  C129  1.404957 A    
C144  H48   1.083086 S    
C99   O63   1.349506 S    
C100  O64   1.349505 S    
O13   C5    1.287250 A    
C39   C87   1.536513 S    
C2    C183  1.473175 S    
C160  C176  1.394360 A    
C37   C85   1.536510 S    
C138  H42   1.083104 S    
O20   C8    1.287262 A    
C147  C187  1.400480 A    
O15   C7    1.287261 A    
C155  H59   1.082876 S    
C161  H65   1.082899 S    
C68   C84   1.526342 S    
C15   C57   1.462644 S    
O16   C8    1.287261 A    
N23   O97   1.300207 A    
O24   C12   1.271626 A    
C131  C136  1.395201 A    
C74   N10   1.457488 S    
N24   O100  1.300213 A    
C34   C50   1.558265 S    
C140  C143  1.395196 A    
C159  H63   1.082873 S    
C156  C192  1.400481 A    
C109  C121  1.408535 A    
C110  C134  1.404958 A    
C147  H51   1.082875 S    
C104  C116  1.403010 A    
C32   C71   1.545118 S    
C167  C179  1.405860 A    
C60   C76   1.526345 S    
N4    C191  1.434763 S    
C131  H35   1.083086 S    
C102  N6    1.370107 A    
C34   C57   1.545108 S    
N21   O94   1.300215 A    
O45   C21   1.269549 A    
C94   N2    1.370145 A    
C73   N9    1.457493 S    
C62   C78   1.526335 S    
C112  C124  1.408534 A    
C134  H38   1.083087 S    
C91   C111  1.403010 A    
C98   O62   1.349511 S    
C30   H22   1.110178 S    
Zn11  O10   1.957386 S    
C156  H60   1.082873 S    
C50   C66   1.542719 S    
Zn1   O16   1.957386 S    
Zn2   O15   1.957386 S    
C94   O58   1.349507 S    
C67   C83   1.526341 S    
N15   O82   1.300214 A    
C173  C181  1.405860 A    
C165  H69   1.082900 S    
C154  H58   1.082876 S    
C151  C167  1.394365 A    
C175  C183  1.405861 A    
C37   C53   1.558263 S    
C140  H44   1.083089 S    
N13   O77   1.300212 A    
C115  C127  1.408536 A    
C26   C74   1.536509 S    
C171  H75   1.082899 S    
C41   H1    1.110178 S    
C34   H26   1.110182 S    
C92   N4    1.370141 A    
C162  C178  1.405880 A    
C43   H3    1.110178 S    
O52   C20   1.269551 A    
C88   N24   1.457491 S    
N7    C188  1.434758 S    
C92   C112  1.403010 A    
C29   C45   1.558266 S    
C169  H73   1.082901 S    
C147  C163  1.394365 A    
C10   C60   1.462698 S    
Zn9   O28   1.933243 S    
C76   N12   1.457487 S    
Zn10  O27   1.933243 S    
C37   C62   1.545110 S    
C48   C64   1.542728 S    
C35   C51   1.558267 S    
O33   C21   1.271627 A    
C55   C80   1.537082 S    
C152  H56   1.082875 S    
Zn9   O8    1.957386 S    
O49   C17   1.269548 A    
C53   C78   1.537077 S    
C175  H79   1.082901 S    
Zn10  O7    1.957386 S    
C119  C127  1.408535 A    
O51   C19   1.269551 A    
C71   C87   1.526342 S    
Zn12  O9    1.957386 S    
C65   C81   1.526339 S    
C132  H36   1.083085 S    
C173  H77   1.082902 S    
C27   C43   1.558267 S    
C47   C88   1.537081 S    
N19   O90   1.300214 A    
C113  C137  1.404955 A    
C32   H24   1.110179 S    
C45   C86   1.537077 S    
O46   C22   1.269549 A    
C33   H25   1.110178 S    
C43   C84   1.537080 S    
C108  C124  1.408533 A    
N12   O76   1.300214 A    
C111  C135  1.404957 A    
C99   N7    1.370140 A    
C4    C181  1.473170 S    
C120  C128  1.408533 A    
C97   N5    1.370108 A    
C24   C66   1.462644 S    
C107  C131  1.404958 A    
C39   C64   1.545118 S    
C123  C124  1.411499 A    
Zn15  O47   1.939829 S    
N20   O91   1.300206 A    
C59   C75   1.526345 S    
Zn16  O48   1.939829 S    
C61   C77   1.526339 S    
C169  C181  1.405861 A    
O30   C18   1.271626 A    
Zn3   O43   1.939830 S    
