data_mof_unit_36857.cif
_audit_creation_date              2012-12-10T17:48:56-0500
_audit_creation_method            fapswitch 2.2
_symmetry_space_group_name_H-M    P1
_symmetry_Int_Tables_number       1
_space_group_crystal_system       triclinic
_cell_length_a                    10.746259
_cell_length_b                    14.694725
_cell_length_c                    14.602283
_cell_angle_alpha                 65.31389
_cell_angle_beta                  103.58967
_cell_angle_gamma                 102.956232
_cell_volume                      2015.64413382

loop_
_atom_site_label
_atom_site_type_symbol
_atom_type_description
_atom_site_fract_x
_atom_site_fract_y
_atom_site_fract_z
_atom_type_partial_charge
C1    C     C_R   0.481751 0.119411 0.311267 0.794130
C2    C     C_R   0.462875 0.360219 0.074508 0.085759
C3    C     C_R   0.454264 0.324422 0.996771 0.120174
C4    C     C_R   0.259810 0.000464 0.499292 0.829828
C5    C     C_R   0.465593 0.465701 0.048064 0.065993
C6    C     C_R   0.472772 0.533771 0.945280 0.106349
C7    C     C_R   0.452416 0.493695 0.869437 -0.108336
C8    C     C_R   0.444585 0.390976 0.895000 -0.215118
C9    C     C_R   0.458764 0.505507 0.119667 -0.188450
C10   C     C_R   0.462722 0.608759 0.091645 -0.127973
C11   C     C_R   0.480246 0.676386 0.993128 -0.008165
C12   C     C_3   0.876522 0.000141 0.495624 -0.145955
C13   C     C_R   0.492259 0.639805 0.920411 -0.015158
C14   C     C_R   0.485845 0.780483 0.966383 -0.269496
C15   C     C_R   0.501347 0.848683 0.867590 0.556359
C16   C     C_R   0.520476 0.880572 0.688239 0.884559
C17   C     C_R   0.525318 0.710936 0.825801 0.458165
C18   C     C_R   0.723243 0.289293 0.663545 -0.295121
C19   C     C_R   0.686194 0.205664 0.636606 0.810211
C20   C     C_R   0.517830 0.284673 0.509509 -0.058196
C21   C     C_R   0.550735 0.372650 0.533312 -0.093771
C22   C     C_R   0.656187 0.373039 0.612514 -0.077446
C23   C     C_3   0.955619 0.976302 0.607215 -0.099175
C24   C     C_R   0.482932 0.459047 0.482542 0.108085
C25   C     C_R   0.522219 0.544127 0.512367 0.008653
C26   C     C_R   0.627980 0.540060 0.591717 -0.253932
C27   C     C_R   0.693463 0.456541 0.640543 0.649888
C28   C     C_R   0.739381 0.001116 0.497113 0.854825
C29   C     C_R   0.376783 0.463044 0.403463 -0.227894
C30   C     C_R   0.309199 0.545435 0.356895 -0.138526
C31   C     C_R   0.344832 0.628088 0.386041 0.024222
C32   C     C_R   0.453130 0.629825 0.462769 -0.071148
C33   C     C_R   0.272578 0.709178 0.339518 0.488110
C34   C     C_3   0.939566 0.108471 0.430518 0.316346
C35   C     C_R   0.308453 0.791613 0.368438 0.010618
C36   C     C_R   0.486444 0.717841 0.486331 0.032772
C37   C     C_3   0.035504 0.919732 0.457622 0.467024
C38   C     C_3   0.890256 0.923899 0.447905 0.644713
C39   C     C_3   0.098280 0.971254 0.608455 -0.386278
C40   C     C_3   0.081559 0.105763 0.427517 -0.574602
C41   C     C_3   0.121432 0.999717 0.498437 -0.141272
C42   C     C_3   0.475428 0.044778 0.138809 -0.401266
C43   C     C_3   0.340699 0.985428 0.127562 -0.749794
C44   C     C_3   0.825084 0.953089 0.333401 -0.423544
C45   C     C_R   0.472954 0.186370 0.201367 -0.066145
C46   C     C_3   0.795903 0.864314 0.298869 -0.718015
C47   C     C_3   0.896880 0.892571 0.700641 -0.387270
C48   C     C_3   0.874552 0.783416 0.708352 -0.544422
C49   C     C_R   0.519870 0.813796 0.796307 -0.279861
C50   C     C_R   0.455211 0.222131 0.020764 -0.180996
C51   C     C_R   0.467043 0.152363 0.121988 0.155968
C52   C     C_R   0.471773 0.289591 0.175966 -0.257569
Cu1   Cu    Cu3+1 0.465900 0.918260 0.475680 0.988653
Cu2   Cu    Cu3+1 0.534100 0.081740 0.524320 1.021544
F1    F     F_    0.063666 0.823087 0.521528 -0.610278
F2    F     F_    0.573130 0.682861 0.764746 -0.698553
F3    F     F_    0.496464 0.948056 0.841820 -0.637498
F4    F     F_    0.794149 0.457484 0.716640 -0.644558
F5    F     F_    0.751445 0.125090 0.686715 -0.657751
F6    F     F_    0.167162 0.708473 0.267005 -0.670805
F7    F     F_    0.831316 0.827883 0.501475 -0.638212
F8    F     F_    0.871255 0.147403 0.332683 -0.679935
H1    H     H_    0.939284 0.162528 0.465779 0.156244
H2    H     H_    0.444834 0.458727 0.197180 0.132927
H3    H     H_    0.474326 0.808791 0.021152 0.176549
H4    H     H_    0.568865 0.726977 0.541602 0.194437
H5    H     H_    0.251606 0.853141 0.334181 0.150651
H6    H     H_    0.227551 0.543906 0.297389 0.203174
H7    H     H_    0.804003 0.288103 0.724363 0.220513
H8    H     H_    0.438771 0.277477 0.451041 0.141794
H9    H     H_    0.662447 0.600351 0.618973 0.198662
H10   H     H_    0.342278 0.402986 0.375866 0.127414
H11   H     H_    0.124741 0.894885 0.658448 0.224536
H12   H     H_    0.162995 0.024670 0.641206 0.180984
H13   H     H_    0.145401 0.165292 0.451909 0.196844
H14   H     H_    0.093940 0.123808 0.347912 0.205197
H15   H     H_    0.348562 0.905096 0.147289 0.247220
H16   H     H_    0.281872 0.989299 0.178583 0.247322
H17   H     H_    0.290822 0.017273 0.047506 0.254725
H18   H     H_    0.527965 0.045371 0.081329 0.212695
H19   H     H_    0.533546 0.005019 0.212811 0.219823
H20   H     H_    0.884862 0.830830 0.312920 0.273271
H21   H     H_    0.721422 0.805066 0.339861 0.281253
H22   H     H_    0.757703 0.891444 0.215828 0.223231
H23   H     H_    0.959962 0.044860 0.623396 0.167552
H24   H     H_    0.732837 0.981870 0.319323 0.228582
H25   H     H_    0.888012 0.014791 0.282203 0.210433
H26   H     H_    0.779117 0.767200 0.664500 0.297261
H27   H     H_    0.952934 0.766544 0.682928 0.300108
H28   H     H_    0.871206 0.731310 0.789190 0.224557
H29   H     H_    0.963434 0.895313 0.770736 0.210210
H30   H     H_    0.804109 0.911414 0.704234 0.217408
H31   H     H_    0.431947 0.363605 0.834510 0.156440
H32   H     H_    0.453722 0.635936 0.148034 0.149727
H33   H     H_    0.448979 0.196480 0.959855 0.152829
H34   H     H_    0.480992 0.313860 0.237533 0.157314
H35   H     H_    0.060429 0.934938 0.382208 0.041400
H36   H     H_    0.436629 0.539869 0.788930 0.214895
N1    N     N_R   0.585360 0.204570 0.560800 -0.224098
N2    N     N_R   0.414550 0.795430 0.439160 -0.223507
O1    O     O_R   0.455060 0.022100 0.338110 -0.605236
O2    O     O_R   0.512640 0.160150 0.379180 -0.589066
O3    O     O_R   0.288900 0.930980 0.479450 -0.551353
O4    O     O_R   0.346480 0.069030 0.520520 -0.594085
O5    O     O_R   0.487360 0.839850 0.620820 -0.537029
O6    O     O_R   0.544940 0.977900 0.661890 -0.493680
O7    O     O_R   0.653520 0.930970 0.479480 -0.562894
O8    O     O_R   0.711100 0.069020 0.520550 -0.557694

loop_
_geom_bond_atom_site_label_1
_geom_bond_atom_site_label_2
_ccdc_geom_bond_type
C42   H18   S    
C7    H36   S    
C9    H2    S    
C47   H30   S    
C37   H35   S    
C7    C8    A    
C39   C41   S    
Cu1   Cu2   S    
C43   H16   S    
C38   C44   S    
C12   C23   S    
C26   C27   A    
C37   C38   S    
C12   C28   S    
C34   C40   S    
C32   C36   A    
Cu2   O4    S    
Cu1   O3    S    
C30   C31   A    
C11   C14   A    
C36   H4    S    
C50   H33   S    
C4    C41   S    
C45   C51   A    
C28   O7    A    
C43   H17   S    
C4    O3    A    
C34   F8    S    
C18   C19   A    
C39   H12   S    
C24   C29   A    
C46   H20   S    
C31   C32   A    
Cu1   O1    S    
C48   H26   S    
C44   H25   S    
C9    C10   A    
C16   O6    A    
C42   C51   S    
C29   H10   S    
C18   H7    S    
C15   C49   A    
C48   H28   S    
C21   C22   A    
C12   C38   S    
C26   H9    S    
C15   F3    S    
C20   H8    S    
C42   H19   S    
C44   H24   S    
C3    C50   A    
C44   C46   S    
Cu1   N2    S    
C23   C47   S    
Cu2   O6    S    
C24   C25   A    
C3    C8    A    
C17   C49   A    
C19   N1    A    
C45   C52   A    
C19   F5    S    
C25   C26   A    
C40   H14   S    
C5    C9    A    
C29   C30   A    
Cu1   O7    S    
C47   C48   S    
C35   H5    S    
C31   C33   A    
C50   C51   A    
C36   N2    A    
C16   C49   S    
C17   F2    S    
C2    C52   A    
C16   O5    A    
C46   H22   S    
C40   C41   S    
C33   F6    S    
C48   H27   S    
Cu2   N1    S    
C2    C5    A    
C42   C43   S    
C12   C34   S    
C35   N2    A    
C1    O1    A    
C18   C22   A    
C47   H29   S    
Cu2   O2    S    
C8    H31   S    
C27   F4    S    
C6    C7    A    
Cu2   O8    S    
C43   H15   S    
C40   H13   S    
C13   C17   A    
C22   C27   A    
C38   F7    S    
C2    C3    A    
C6    C13   A    
C11   C13   A    
C1    C45   S    
C5    C6    A    
C20   N1    A    
C28   O8    A    
C23   C39   S    
C4    O4    A    
C34   H1    S    
C33   C35   A    
C14   H3    S    
C52   H34   S    
C39   H11   S    
C37   C41   S    
C10   C11   A    
C46   H21   S    
C37   F1    S    
Cu1   O5    S    
C20   C21   A    
C23   H23   S    
C21   C24   A    
C10   H32   S    
C14   C15   A    
C1    O2    A    
C30   H6    S    
C25   C32   A    
