data_mof_unit_57845.cif
_audit_creation_date              2012-12-10T20:31:59-0500
_audit_creation_method            fapswitch 2.2
_symmetry_space_group_name_H-M    P1
_symmetry_Int_Tables_number       1
_space_group_crystal_system       triclinic
_cell_length_a                    9.88662
_cell_length_b                    10.783898
_cell_length_c                    15.289723
_cell_angle_alpha                 90.17512
_cell_angle_beta                  69.082709
_cell_angle_gamma                 88.280197
_cell_volume                      1521.8511786

loop_
_atom_site_label
_atom_site_type_symbol
_atom_type_description
_atom_site_fract_x
_atom_site_fract_y
_atom_site_fract_z
_atom_type_partial_charge
Br1   Br    Br    0.088893 0.234475 0.114294 -0.513802
Br2   Br    Br    0.011061 0.584851 0.002030 -0.475498
Br3   Br    Br    0.019358 0.601363 0.726858 -0.475057
C1    C     C_R   0.499925 0.739781 0.497839 0.905255
C2    C     C_R   0.743555 0.453216 0.027891 0.040494
C3    C     C_R   0.601838 0.415779 0.082894 0.081515
C4    C     C_R   0.410931 0.492181 0.675906 0.893222
C5    C     C_R   0.831743 0.508798 0.071133 0.303062
C6    C     C_R   0.782465 0.521435 0.168151 -0.178007
C7    C     C_R   0.555206 0.431610 0.180080 -0.226985
C8    C     C_R   0.398868 0.940685 0.470913 0.130588
C9    C     C_R   0.507514 0.870934 0.486999 -0.141906
C10   C     C_R   0.629469 0.929130 0.491428 -0.230294
C11   C     C_R   0.631058 0.056392 0.497288 0.175441
C12   C     C_R   0.443283 0.387732 0.900124 0.062542
C13   C     C_R   0.512107 0.127413 0.491107 -0.162280
C14   C     C_R   0.402243 0.067821 0.471442 0.084602
C15   C     C_3   0.241741 0.081013 0.520930 -0.399017
C16   C     C_R   0.502239 0.259760 0.500203 0.894707
C17   C     C_3   0.239480 0.941054 0.522288 -0.469052
C18   C     C_R   0.909431 0.602605 0.528247 0.145218
C19   C     C_R   0.955251 0.407872 0.456510 -0.044787
C20   C     C_R   0.098560 0.406731 0.457765 -0.081369
C21   C     C_R   0.050991 0.603351 0.528035 0.130890
C22   C     C_3   0.999439 0.677877 0.618035 0.097703
C23   C     C_R   0.305909 0.338607 0.948263 0.107801
C24   C     C_3   0.845856 0.672651 0.617910 -0.476611
C25   C     C_R   0.589688 0.497998 0.323932 0.887636
C26   C     C_R   0.364114 0.449761 0.772953 -0.042498
C27   C     C_R   0.644408 0.483555 0.222416 -0.113152
C28   C     C_R   0.205331 0.332651 0.902335 -0.112025
C29   C     C_R   0.235795 0.385898 0.814252 -0.147554
C30   C     C_R   0.464573 0.452166 0.817630 -0.164818
C31   C     C_R   0.550931 0.385179 0.940559 0.001433
C32   C     C_R   0.507338 0.373646 0.038340 0.018605
C33   C     C_R   0.369596 0.324668 0.087106 -0.227121
C34   C     C_R   0.272287 0.301864 0.041644 0.266927
C35   C     C_R   0.699912 0.396508 0.887398 0.150359
C36   C     C_R   0.793962 0.432727 0.931211 -0.176720
H1    H     H_    0.719251 0.876032 0.498885 0.187281
H2    H     H_    0.771959 0.615929 0.674409 0.244228
H3    H     H_    0.800154 0.764979 0.608922 0.185749
H4    H     H_    0.850065 0.564844 0.200952 0.186924
H5    H     H_    0.906822 0.442881 0.889385 0.217530
H6    H     H_    0.102208 0.289454 0.934378 0.190235
H7    H     H_    0.159849 0.376316 0.778502 0.192435
H8    H     H_    0.560635 0.505812 0.787712 0.170482
H9    H     H_    0.335903 0.300606 0.160016 0.168605
H10   H     H_    0.210498 0.124190 0.591877 0.222987
H11   H     H_    0.186369 0.122137 0.475662 0.214941
H12   H     H_    0.212466 0.904158 0.594097 0.216873
H13   H     H_    0.180527 0.901624 0.479426 0.209175
H14   H     H_    0.923488 0.334360 0.420583 0.174519
H15   H     H_    0.173391 0.330894 0.424541 0.139854
H16   H     H_    0.447705 0.407372 0.224411 0.159802
H17   H     H_    0.037791 0.773523 0.608297 0.129137
I1    I     I_    0.805848 0.118597 0.534114 -0.363884
I2    I     I_    0.797255 0.328237 0.747222 -0.310741
N1    N     N_R   0.856900 0.500860 0.500610 -0.088914
N2    N     N_R   0.142540 0.500820 0.500610 -0.086968
O1    O     O_R   0.385310 0.683210 0.499990 -0.610720
O2    O     O_R   0.614650 0.683240 0.500000 -0.627197
O3    O     O_R   0.319830 0.499970 0.632240 -0.563179
O4    O     O_R   0.549170 0.500000 0.632250 -0.609100
O5    O     O_R   0.385350 0.316760 0.500000 -0.629786
O6    O     O_R   0.614690 0.316790 0.500010 -0.583006
O7    O     O_R   0.450830 0.500000 0.367750 -0.622030
O8    O     O_R   0.680170 0.500030 0.367760 -0.610471
Zn1   Zn    Zn3+2 0.346870 0.499980 0.499990 0.986375
Zn2   Zn    Zn3+2 0.653130 0.500020 0.500010 0.989410

loop_
_geom_bond_atom_site_label_1
_geom_bond_atom_site_label_2
_ccdc_geom_bond_type
C3    C7    A    
C2    C5    A    
C8    C9    A    
O2    Zn2   S    
C23   C34   A    
C16   O5    A    
C36   H5    S    
C4    C26   S    
O4    Zn2   S    
C1    C9    S    
C7    C27   A    
C12   C31   A    
C32   C33   A    
C22   H17   S    
Br1   C34   S    
C21   N2    A    
C1    O2    A    
C25   C27   S    
C14   C15   S    
C18   C24   S    
C23   C28   A    
C17   H13   S    
C18   N1    A    
C35   I2    S    
C10   C11   A    
C21   C22   S    
C7    H16   S    
O7    Zn1   S    
C24   H3    S    
C4    O3    A    
O6    Zn2   S    
N2    Zn1   S    
C16   O6    A    
C13   C16   S    
O5    Zn1   S    
C6    C27   A    
C33   C34   A    
C25   O8    A    
C33   H9    S    
C19   H14   S    
C15   C17   S    
C2    C36   A    
C20   N2    A    
O3    Zn1   S    
C2    C3    A    
C30   H8    S    
C11   C13   A    
C8    C17   S    
C6    H4    S    
C26   C29   A    
N1    Zn2   S    
C13   C14   A    
C26   C30   A    
Br3   C22   S    
C25   O7    A    
C35   C36   A    
C3    C32   A    
C15   H11   S    
C20   H15   S    
O8    Zn2   S    
C31   C32   A    
C28   H6    S    
C18   C21   A    
O1    Zn1   S    
C19   N1    A    
C11   I1    S    
C24   H2    S    
C17   H12   S    
C8    C14   A    
C10   H1    S    
C4    O4    A    
C9    C10   A    
C19   C20   A    
C29   H7    S    
C1    O1    A    
C12   C30   A    
Br2   C5    S    
C28   C29   A    
C15   H10   S    
C5    C6    A    
C12   C23   A    
C22   C24   S    
C31   C35   A    
