data_mof_unit_23600.cif
_audit_creation_date              2012-12-10T17:46:24-0500
_audit_creation_method            fapswitch 2.2
_symmetry_space_group_name_H-M    P1
_symmetry_Int_Tables_number       1
_space_group_crystal_system       triclinic
_cell_length_a                    20.720412
_cell_length_b                    21.22544
_cell_length_c                    14.802881
_cell_angle_alpha                 90.003144
_cell_angle_beta                  127.917077
_cell_angle_gamma                 90.02974
_cell_volume                      5135.98462275

loop_
_atom_site_label
_atom_site_type_symbol
_atom_type_description
_atom_site_fract_x
_atom_site_fract_y
_atom_site_fract_z
_atom_type_partial_charge
C1    C     C_R   0.603599 0.914391 0.632315 0.799058
C2    C     C_R   0.397285 0.086374 0.368882 0.797126
C3    C     C_R   0.396202 0.914501 0.367417 0.798125
C4    C     C_R   0.602676 0.086429 0.631051 0.797063
C5    C     C_R   0.103224 0.414037 0.631832 0.798134
C6    C     C_R   0.897445 0.586474 0.369077 0.795399
C7    C     C_R   0.896744 0.414057 0.368146 0.802230
C8    C     C_R   0.102097 0.586878 0.630339 0.800278
C9    C     C_R   0.326021 0.778464 0.918016 -0.256376
C10   C     C_R   0.684589 0.214075 0.092007 -0.205887
C11   C     C_R   0.672079 0.776516 0.079062 -0.257030
C12   C     C_R   0.319148 0.216747 0.912053 -0.207764
C13   C     C_R   0.843664 0.263027 0.942442 -0.267984
C14   C     C_R   0.138945 0.756327 0.029748 -0.221958
C15   C     C_R   0.153036 0.259336 0.052625 -0.256462
C16   C     C_R   0.857139 0.752244 0.964201 -0.235186
C17   C     C_R   0.323258 0.011351 0.665556 -0.270325
C18   C     C_R   0.676830 0.010684 0.334470 -0.270968
C19   C     C_R   0.821757 0.499657 0.664129 -0.262296
C20   C     C_R   0.176408 0.487560 0.333724 -0.265076
C21   C     C_R   0.352901 0.009811 0.603576 0.041037
C22   C     C_R   0.647187 0.009427 0.396464 0.040348
C23   C     C_R   0.851823 0.502749 0.602588 0.042036
C24   C     C_R   0.147551 0.492806 0.396485 0.043273
C25   C     C_R   0.487045 0.993338 0.774369 0.088199
C26   C     C_R   0.512864 0.993528 0.225579 0.089015
C27   C     C_R   0.987525 0.496013 0.774569 0.086956
C28   C     C_R   0.012030 0.502452 0.225633 0.069635
C29   C     C_R   0.462020 0.999797 0.844922 -0.046362
C30   C     C_R   0.537930 0.999770 0.155049 -0.046592
C31   C     C_R   0.961559 0.498206 0.844384 -0.046320
C32   C     C_R   0.036693 0.495734 0.154423 -0.044073
C33   C     C_R   0.376749 0.004065 0.785809 -0.008415
C34   C     C_R   0.623245 0.003558 0.214175 -0.008710
C35   C     C_R   0.875946 0.496308 0.784586 -0.012354
C36   C     C_R   0.121764 0.488690 0.212892 0.005493
C37   C     C_R   0.517075 0.000388 0.969270 -0.143692
C38   C     C_R   0.482864 0.000555 0.030702 -0.144089
C39   C     C_R   0.016166 0.497715 0.968865 -0.135682
C40   C     C_R   0.981894 0.495252 0.029973 -0.146871
C41   C     C_R   0.395316 0.005046 0.966199 0.339572
C42   C     C_R   0.604665 0.004358 0.033801 0.338928
C43   C     C_R   0.894569 0.491630 0.963864 0.331465
C44   C     C_R   0.103457 0.499116 0.033704 0.346232
C45   C     C_R   0.343989 0.001793 0.844957 0.354373
C46   C     C_R   0.655957 0.000938 0.154993 0.354142
C47   C     C_R   0.844222 0.487641 0.843813 0.329436
C48   C     C_R   0.153379 0.484764 0.152314 0.340422
C49   C     C_R   0.663203 0.134600 0.706997 -0.054858
C50   C     C_R   0.332085 0.869735 0.286109 -0.051649
C51   C     C_R   0.336360 0.134137 0.292394 -0.054805
C52   C     C_R   0.666913 0.868957 0.712457 -0.050906
C53   C     C_R   0.158106 0.638673 0.700371 -0.055384
C54   C     C_R   0.839390 0.363454 0.295754 -0.058465
C55   C     C_R   0.840372 0.637340 0.297573 -0.050196
C56   C     C_R   0.160922 0.363717 0.704680 -0.048801
C57   C     C_R   0.781844 0.198128 0.774010 -0.205495
C58   C     C_R   0.203352 0.817196 0.203041 -0.194531
C59   C     C_R   0.215074 0.194920 0.221528 -0.207093
C60   C     C_R   0.793936 0.814498 0.792830 -0.199386
C61   C     C_R   0.270844 0.707385 0.759071 -0.204524
C62   C     C_R   0.739014 0.285020 0.251292 -0.190743
C63   C     C_R   0.727646 0.705956 0.238693 -0.205137
C64   C     C_R   0.264482 0.287648 0.752704 -0.190907
C65   C     C_R   0.722762 0.154625 0.696585 -0.192105
C66   C     C_R   0.266900 0.855525 0.287802 -0.194123
C67   C     C_R   0.275071 0.152419 0.300306 -0.192549
C68   C     C_R   0.731389 0.853952 0.709636 -0.194779
C69   C     C_R   0.216330 0.659886 0.688120 -0.189756
C70   C     C_R   0.790796 0.334391 0.319778 -0.191692
C71   C     C_R   0.782600 0.658916 0.310414 -0.193182
C72   C     C_R   0.211706 0.336290 0.683158 -0.192820
C73   C     C_R   0.662702 0.158985 0.794145 -0.262010
C74   C     C_R   0.333794 0.844517 0.200381 -0.254794
C75   C     C_R   0.337853 0.159482 0.206653 -0.262077
C76   C     C_R   0.664861 0.843451 0.797662 -0.258678
C77   C     C_R   0.152832 0.667028 0.780827 -0.266394
C78   C     C_R   0.835598 0.342851 0.202964 -0.243098
C79   C     C_R   0.844289 0.664469 0.215108 -0.266261
C80   C     C_R   0.163315 0.342020 0.795817 -0.254926
C81   C     C_R   0.724689 0.199461 0.877718 0.082451
C82   C     C_R   0.268988 0.807908 0.111236 0.085533
C83   C     C_R   0.275072 0.198935 0.121686 0.080591
C84   C     C_R   0.728703 0.805666 0.885283 0.085818
C85   C     C_R   0.206586 0.715392 0.852840 0.085390
C86   C     C_R   0.787424 0.291036 0.136612 0.084844
C87   C     C_R   0.790488 0.712619 0.142810 0.087198
C88   C     C_R   0.212830 0.291024 0.863479 0.087340
C89   C     C_R   0.783466 0.220462 0.864596 0.171187
C90   C     C_R   0.203671 0.793598 0.114733 0.162015
C91   C     C_R   0.214330 0.217989 0.132079 0.173722
C92   C     C_R   0.793328 0.790573 0.880690 0.168665
C93   C     C_R   0.267608 0.734204 0.842806 0.174850
C94   C     C_R   0.736778 0.263280 0.159884 0.156324
C95   C     C_R   0.730190 0.732072 0.153881 0.173222
C96   C     C_R   0.265711 0.265043 0.842828 0.156578
C97   C     C_R   0.729418 0.219788 0.973200 0.052339
C98   C     C_R   0.267630 0.784824 0.019645 0.072178
C99   C     C_R   0.271288 0.220005 0.027293 0.054647
C100  C     C_R   0.729849 0.782304 0.976532 0.074294
C101  C     C_R   0.203663 0.743371 0.937713 0.063834
C102  C     C_R   0.787461 0.266775 0.047061 0.074486
C103  C     C_R   0.793130 0.740164 0.057409 0.068515
C104  C     C_R   0.212025 0.265920 0.951904 0.076535
C105  C     C_R   0.327318 0.802382 0.006218 -0.247912
C106  C     C_R   0.680050 0.193124 0.999525 -0.197725
C107  C     C_R   0.670718 0.800354 0.990779 -0.249938
C108  C     C_R   0.322795 0.195051 0.003459 -0.196484
C109  C     C_R   0.845337 0.286395 0.031354 -0.217222
C110  C     C_R   0.138755 0.731515 0.942965 -0.197440
C111  C     C_R   0.152263 0.283611 0.964992 -0.241491
C112  C     C_R   0.857279 0.727408 0.050881 -0.244585
Cu1   Cu    Cu3+1 0.526640 0.000000 0.436960 0.929913
Cu2   Cu    Cu3+1 0.473360 0.000000 0.563040 0.930046
Cu3   Cu    Cu3+1 0.026640 0.500000 0.436960 0.931641
Cu4   Cu    Cu3+1 0.973360 0.500000 0.563040 0.930421
H1    H     H_    0.372615 0.793550 0.910621 0.136568
H2    H     H_    0.646347 0.191883 0.109838 0.153557
H3    H     H_    0.626000 0.792055 0.087181 0.136875
H4    H     H_    0.359087 0.195881 0.896158 0.152977
H5    H     H_    0.889494 0.278925 0.934036 0.136983
H6    H     H_    0.087987 0.746022 0.030454 0.139537
H7    H     H_    0.105681 0.273665 0.058889 0.135569
H8    H     H_    0.907526 0.741248 0.962576 0.140019
H9    H     H_    0.386956 0.854137 0.205707 0.150215
H10   H     H_    0.612890 0.145707 0.794832 0.172237
H11   H     H_    0.612179 0.853790 0.793093 0.150552
H12   H     H_    0.388903 0.147586 0.207980 0.171197
H13   H     H_    0.869747 0.368889 0.182632 0.174182
H14   H     H_    0.108581 0.648317 0.789343 0.176134
H15   H     H_    0.127079 0.366640 0.813967 0.144656
H16   H     H_    0.888273 0.645507 0.206427 0.151429
H17   H     H_    0.264374 0.874754 0.353342 0.151971
H18   H     H_    0.723879 0.136593 0.629114 0.152581
H19   H     H_    0.734095 0.873339 0.644354 0.152328
H20   H     H_    0.273141 0.133614 0.366625 0.152430
H21   H     H_    0.792709 0.349784 0.391148 0.154224
H22   H     H_    0.220870 0.638955 0.625490 0.156124
H23   H     H_    0.210903 0.352522 0.613111 0.152155
H24   H     H_    0.778941 0.638765 0.374362 0.154215
H25   H     H_    0.316765 0.722209 0.750196 0.133831
H26   H     H_    0.701084 0.263519 0.270224 0.135474
H27   H     H_    0.682228 0.721224 0.248265 0.133930
H28   H     H_    0.304139 0.267485 0.735764 0.135597
H29   H     H_    0.827057 0.213609 0.764143 0.133779
H30   H     H_    0.153289 0.806682 0.205581 0.133711
H31   H     H_    0.168404 0.208948 0.229335 0.134728
H32   H     H_    0.843468 0.803364 0.789455 0.133320
H33   H     H_    0.375595 0.835546 0.061044 0.130584
H34   H     H_    0.639092 0.154212 0.952807 0.192538
H35   H     H_    0.622860 0.833873 0.936637 0.131000
H36   H     H_    0.364842 0.156896 0.051340 0.190162
H37   H     H_    0.894922 0.318210 0.088841 0.154816
H38   H     H_    0.085275 0.704548 0.879297 0.150318
H39   H     H_    0.101863 0.314473 0.906287 0.138467
H40   H     H_    0.910216 0.699692 0.113389 0.141375
H41   H     H_    0.451893 0.980923 0.190656 0.171155
H42   H     H_    0.547891 0.980470 0.809193 0.171180
H43   H     H_    0.950806 0.510775 0.193392 0.189082
H44   H     H_    0.049641 0.488041 0.809735 0.176899
H45   H     H_    0.688648 0.015073 0.488510 0.125232
H46   H     H_    0.311505 0.015608 0.511571 0.124849
H47   H     H_    0.189706 0.490866 0.489017 0.125448
H48   H     H_    0.810009 0.505378 0.510100 0.125708
H49   H     H_    0.258191 0.018595 0.618486 0.185401
H50   H     H_    0.741973 0.017559 0.381553 0.185395
H51   H     H_    0.756036 0.499627 0.616990 0.183813
H52   H     H_    0.241866 0.483257 0.380683 0.183808
N1    N     N_R   0.433280 0.000000 0.657760 -0.189495
N2    N     N_R   0.566720 1.000000 0.342240 -0.189563
N3    N     N_R   0.933280 0.500000 0.657760 -0.191771
N4    N     N_R   0.066720 0.500000 0.342240 -0.193045
O1    O     O_R   0.600040 0.935040 0.546740 -0.580972
O2    O     O_R   0.399960 0.064960 0.453260 -0.588027
O3    O     O_R   0.399960 0.935040 0.453260 -0.580636
O4    O     O_R   0.600040 0.064960 0.546740 -0.587972
O5    O     O_R   0.100040 0.435040 0.546740 -0.584772
O6    O     O_R   0.899960 0.564960 0.453260 -0.585332
O7    O     O_R   0.899960 0.435040 0.453260 -0.584913
O8    O     O_R   0.100040 0.564960 0.546740 -0.583946
O9    O     O_R   0.555010 0.935070 0.653220 -0.604220
O10   O     O_R   0.444990 0.064930 0.346780 -0.582377
O11   O     O_R   0.444990 0.935070 0.346780 -0.604118
O12   O     O_R   0.555010 0.064930 0.653220 -0.582515
O13   O     O_R   0.055010 0.435070 0.653220 -0.601883
O14   O     O_R   0.944990 0.564930 0.346780 -0.599465
O15   O     O_R   0.944990 0.435070 0.346780 -0.583448
O16   O     O_R   0.055010 0.564930 0.653220 -0.583925
O17   O     O_3   0.362568 0.028409 0.018725 -0.587967
C113  C     C_3   0.301414 0.988332 0.003030 0.069449
H53   H     H_    0.320466 0.938136 0.017752 0.114393
H54   H     H_    0.242112 0.994652 0.917899 0.227946
C114  C     C_3   0.282996 0.006634 0.084343 -0.825351
H55   H     H_    0.259524 0.055622 0.066696 0.261922
H56   H     H_    0.235559 0.974664 0.071639 0.208754
H57   H     H_    0.338063 0.002740 0.174071 0.263765
O18   O     O_3   0.637663 0.027568 0.981533 -0.589489
C115  C     C_3   0.698101 0.987050 0.996329 0.068915
H58   H     H_    0.678076 0.937036 0.980211 0.114620
H59   H     H_    0.757466 0.992533 0.081676 0.227850
C116  C     C_3   0.716973 0.005751 0.915653 -0.826103
H60   H     H_    0.741293 0.054544 0.934640 0.261000
H61   H     H_    0.763841 0.973486 0.927511 0.209493
H62   H     H_    0.661859 0.002691 0.825804 0.264008
O19   O     O_3   0.857024 0.481944 0.014163 -0.604296
C117  C     C_3   0.811770 0.536325 0.999872 0.080671
H63   H     H_    0.765028 0.549362 0.908528 0.200615
H64   H     H_    0.853240 0.577402 0.045032 0.116641
C118  C     C_3   0.767102 0.523461 0.049736 -0.788439
H65   H     H_    0.811435 0.511366 0.141911 0.243685
H66   H     H_    0.732103 0.565882 0.040383 0.211632
H67   H     H_    0.723941 0.483500 0.003701 0.253260
O20   O     O_3   0.137279 0.528045 0.986313 -0.588899
C119  C     C_3   0.204769 0.494915 0.007346 0.097970
H68   H     H_    0.194432 0.443071 0.998566 0.129367
H69   H     H_    0.261789 0.507700 0.092505 0.229961
C120  C     C_3   0.219894 0.515441 0.923348 -0.850661
H70   H     H_    0.230395 0.567023 0.929827 0.268319
H71   H     H_    0.275138 0.491312 0.944256 0.207474
H72   H     H_    0.167723 0.502775 0.834718 0.254568
O21   O     O_3   0.259729 0.001906 0.781995 -0.580538
C121  C     C_3   0.230642 0.939346 0.746030 -0.001822
H73   H     H_    0.257352 0.907368 0.820738 0.139579
H74   H     H_    0.245651 0.920104 0.691015 0.154059
C122  C     C_3   0.138070 0.938537 0.676800 -0.778118
H75   H     H_    0.109533 0.969078 0.600133 0.250548
H76   H     H_    0.114922 0.889675 0.648517 0.207138
H77   H     H_    0.120500 0.955856 0.729746 0.239954
O22   O     O_3   0.740208 0.000473 0.217904 -0.580732
C123  C     C_3   0.768437 0.937722 0.253237 -0.001590
H78   H     H_    0.741175 0.905862 0.178194 0.139524
H79   H     H_    0.753289 0.918707 0.308234 0.153946
C124  C     C_3   0.860976 0.936224 0.322237 -0.777327
H80   H     H_    0.890037 0.966651 0.399183 0.250171
H81   H     H_    0.883449 0.887212 0.350068 0.207558
H82   H     H_    0.878668 0.953288 0.269295 0.240083
O23   O     O_3   0.761670 0.474431 0.783295 -0.587860
C125  C     C_3   0.751779 0.408397 0.780087 0.093573
H83   H     H_    0.786417 0.388620 0.867984 0.189218
H84   H     H_    0.772585 0.385226 0.734461 0.129283
C126  C     C_3   0.661871 0.392954 0.716809 -0.776790
H85   H     H_    0.625203 0.411102 0.627730 0.242625
H86   H     H_    0.653735 0.341081 0.714352 0.207105
H87   H     H_    0.639771 0.414818 0.761451 0.251401
O24   O     O_3   0.235633 0.471404 0.212289 -0.600782
C127  C     C_3   0.245525 0.405138 0.221793 0.007155
H88   H     H_    0.202399 0.381507 0.137386 0.140140
H89   H     H_    0.235336 0.386015 0.282101 0.158517
C128  C     C_3   0.332095 0.388555 0.267210 -0.775959
H90   H     H_    0.377030 0.410584 0.352453 0.250403
H91   H     H_    0.340280 0.336612 0.275696 0.214865
H92   H     H_    0.343445 0.405635 0.207179 0.234522

loop_
_geom_bond_atom_site_label_1
_geom_bond_atom_site_label_2
_ccdc_geom_bond_type
Cu2   N1    S    
C88   C96   A    
C113  H53   S    
C14   H6    S    
Cu4   O6    S    
C43   O19   S    
C116  H61   S    
C116  H60   S    
C5    C56   S    
C19   C23   A    
C5    O13   A    
C6    C55   S    
C23   N3    A    
C53   C69   A    
C76   C84   A    
C79   C87   A    
C13   H5    S    
C18   H50   S    
O19   C117  S    
C8    O16   A    
C120  H72   S    
C99   C108  A    
Cu4   O16   S    
C125  C126  S    
C1    O1    A    
C128  H90   S    
C37   C38   A    
C98   C105  A    
C57   C89   A    
C26   H41   S    
C106  H34   S    
C32   C36   A    
C7    O15   A    
C78   H13   S    
C51   C75   A    
C75   H12   S    
C57   H29   S    
C1    C52   S    
C50   C74   A    
C2    O10   A    
C61   C93   A    
Cu2   O12   S    
C74   H9    S    
C10   C94   A    
C61   C69   A    
C73   H10   S    
C63   C95   A    
C69   H22   S    
C118  H67   S    
C55   C79   A    
C62   C70   A    
C123  C124  S    
C14   C110  A    
C126  H85   S    
C42   C46   A    
C4    O4    A    
C37   C42   A    
C19   C35   A    
C14   C90   A    
C13   C109  A    
C86   C94   A    
C113  C114  S    
C59   C67   A    
C12   H4    S    
C85   C93   A    
C28   N4    A    
C40   C43   A    
C63   H27   S    
C20   C24   A    
C29   C33   A    
C56   C72   A    
C87   C95   A    
C115  H58   S    
C34   C46   A    
C109  H37   S    
C124  H80   S    
C97   C102  A    
C52   C68   A    
C81   C89   A    
C78   C86   A    
C32   C40   A    
C99   C104  A    
C35   C47   A    
C80   H15   S    
C108  H36   S    
O23   C125  S    
C6    O6    A    
C82   C98   A    
Cu3   O8    S    
C121  H73   S    
C19   H51   S    
C62   H26   S    
C73   C81   A    
C88   C104  A    
C3    C50   S    
C58   C66   A    
C118  H65   S    
C125  H84   S    
C60   C92   A    
C25   C29   A    
C20   H52   S    
C127  H89   S    
C128  H91   S    
C100  C107  A    
C30   C34   A    
C9    C105  A    
C27   C31   A    
C44   O20   S    
C84   C100  A    
C77   C85   A    
C15   C111  A    
C28   C32   A    
C64   C96   A    
C38   C41   A    
C11   H3    S    
C23   H48   S    
C39   C40   A    
C12   C108  A    
C22   H45   S    
C1    O9    A    
C119  H68   S    
C59   C91   A    
C64   H28   S    
C121  C122  S    
C114  H56   S    
C120  H70   S    
O20   C119  S    
C100  C103  A    
C17   C21   A    
Cu4   N3    S    
C103  C112  A    
C126  H86   S    
C53   C77   A    
O21   C121  S    
C110  H38   S    
C118  H66   S    
C33   C45   A    
C10   H2    S    
C22   N2    A    
C66   H17   S    
Cu3   O15   S    
C8    O8    A    
Cu1   O10   S    
C54   C70   A    
C27   N3    A    
C3    O3    A    
C114  H57   S    
C115  C116  S    
C58   H30   S    
C122  H75   S    
C7    C54   S    
C7    O7    A    
C17   C33   A    
C51   C67   A    
C82   C90   A    
C4    O12   A    
C123  H79   S    
C124  H81   S    
C5    O5    A    
Cu3   O5    S    
C49   C65   A    
C58   C90   A    
Cu1   O4    S    
C87   C103  A    
C97   C106  A    
C26   N2    A    
C61   H25   S    
Cu2   O3    S    
C63   C71   A    
C16   C92   A    
C43   C47   A    
C62   C94   A    
C11   C107  A    
C116  H62   S    
C49   C73   A    
C10   C106  A    
C24   H47   S    
C120  H71   S    
C122  H77   S    
C86   C102  A    
C9    C93   A    
C85   C101  A    
C16   C112  A    
C48   O24   S    
Cu1   O1    S    
Cu1   Cu2   S    
C74   C82   A    
C25   N1    A    
O17   C113  S    
Cu3   O14   S    
C127  H88   S    
C121  H74   S    
C128  H92   S    
C113  H54   S    
C21   H46   S    
C47   O23   S    
C81   C97   A    
C117  H63   S    
C42   O18   S    
C65   H18   S    
C101  C110  A    
C57   C65   A    
Cu3   N4    S    
C52   C76   A    
C119  C120  S    
C56   C80   A    
C8    C53   S    
C104  C111  A    
C115  H59   S    
C50   C66   A    
Cu1   N2    S    
C39   C44   A    
C60   H32   S    
C13   C89   A    
Cu2   O9    S    
C105  H33   S    
Cu4   O13   S    
C6    O14   A    
O22   C123  S    
C98   C101  A    
C41   O17   S    
C4    C49   S    
C126  H87   S    
C45   O21   S    
C18   C22   A    
C67   H20   S    
C27   H44   S    
C107  H35   S    
C123  H78   S    
C80   C88   A    
C17   H49   S    
C2    O2    A    
C117  C118  S    
C75   C83   A    
C71   H24   S    
Cu1   O11   S    
C111  H39   S    
C18   C34   A    
C21   N1    A    
C79   H16   S    
C83   C91   A    
C31   C35   A    
C125  H83   S    
C122  H76   S    
C54   C78   A    
C31   C39   A    
C36   C48   A    
C119  H69   S    
C77   H14   S    
C64   C72   A    
C16   H8    S    
O18   C115  S    
C24   N4    A    
C124  H82   S    
C60   C68   A    
C2    C51   S    
C28   H43   S    
C15   C91   A    
C20   C36   A    
Cu2   O2    S    
C11   C95   A    
C72   H23   S    
C70   H21   S    
C114  H55   S    
C112  H40   S    
Cu4   O7    S    
C29   C37   A    
C25   H42   S    
C76   H11   S    
C41   C45   A    
C12   C96   A    
C102  C109  A    
C83   C99   A    
C84   C92   A    
C30   C38   A    
Cu3   Cu4   S    
O24   C127  S    
C117  H64   S    
C3    O11   A    
C127  C128  S    
C55   C71   A    
C9    H1    S    
C44   C48   A    
C68   H19   S    
C46   O22   S    
C15   H7    S    
C26   C30   A    
C59   H31   S    
