data_mof_unit_65921.cif
_audit_creation_date              2012-10-26T17:59:50-0400
_audit_creation_method            fapswitch 2.2
_symmetry_space_group_name_H-M    P1
_symmetry_Int_Tables_number       1
_space_group_crystal_system       triclinic
_cell_length_a                    38.973413
_cell_length_b                    38.977272
_cell_length_c                    38.973702
_cell_angle_alpha                 90.000399
_cell_angle_beta                  90.000352
_cell_angle_gamma                 90.023355
_cell_volume                      59204.0618351

loop_
_atom_site_label
_atom_site_type_symbol
_atom_type_description
_atom_site_fract_x
_atom_site_fract_y
_atom_site_fract_z
_atom_type_partial_charge
C1    C     C_R   0.000004 0.566006 0.499992 0.647843
C2    C     C_R   0.433997 0.999994 0.499999 0.648000
C3    C     C_R   0.528704 0.342670 0.987920 -0.135397
C4    C     C_R   0.471268 0.988087 0.342650 -0.135316
C5    C     C_R   0.471403 0.342622 0.012113 -0.135502
C6    C     C_R   0.471272 0.011902 0.657349 -0.135322
C7    C     C_R   0.471297 0.657330 0.987919 -0.135400
C8    C     C_R   0.012110 0.657345 0.471295 -0.135259
C9    C     C_R   0.657344 0.988122 0.471258 -0.135331
C10   C     C_R   0.987889 0.342655 0.471296 -0.135258
C11   C     C_R   0.342655 0.011877 0.471259 -0.135319
C12   C     C_R   0.987881 0.657364 0.528581 -0.135662
C13   C     C_R   0.500000 0.000000 0.566003 0.647995
C14   C     C_R   0.342646 0.988072 0.528723 -0.135315
C15   C     C_R   0.012120 0.342636 0.528580 -0.135660
C16   C     C_R   0.657355 0.011930 0.528722 -0.135318
C17   C     C_R   0.657226 0.529296 0.988246 -0.135182
C18   C     C_R   0.988177 0.528758 0.342610 -0.135048
C19   C     C_R   0.342510 0.528378 0.011528 -0.135127
C20   C     C_R   0.011421 0.528930 0.657322 -0.135243
C21   C     C_R   0.657492 0.471626 0.011530 -0.135127
C22   C     C_R   0.988579 0.471071 0.657321 -0.135242
C23   C     C_R   0.342773 0.470705 0.988252 -0.135183
C24   C     C_R   0.566003 0.000006 0.499999 0.648013
C25   C     C_R   0.011813 0.471243 0.342608 -0.135045
C26   C     C_R   0.999999 0.500000 0.823549 -0.056699
C27   C     C_R   0.999990 0.176405 0.499964 -0.056418
C28   C     C_R   0.999986 0.499995 0.176296 -0.064013
C29   C     C_R   0.000009 0.823595 0.499962 -0.056419
C30   C     C_R   0.500056 0.176406 0.000013 -0.056419
C31   C     C_R   0.176370 0.499486 0.999791 -0.060100
C32   C     C_R   0.499945 0.823594 0.000013 -0.056418
C33   C     C_R   0.823631 0.500513 0.999779 -0.060114
C34   C     C_R   0.176412 0.999992 0.499996 -0.056405
C35   C     C_R   0.500006 0.066187 0.000000 0.578129
C36   C     C_R   0.500000 1.000000 0.823588 -0.056407
C37   C     C_R   0.823588 0.000009 0.499994 -0.056404
C38   C     C_R   0.500001 0.999999 0.176412 -0.056404
C39   C     C_R   0.500001 0.999999 0.324565 -0.058993
C40   C     C_R   0.499939 0.675442 0.000018 -0.058924
C41   C     C_R   0.500001 0.000001 0.675435 -0.058995
C42   C     C_R   0.500062 0.324558 0.000017 -0.058924
C43   C     C_R   0.999999 0.675443 0.499931 -0.058919
C44   C     C_R   0.675435 0.000026 0.499990 -0.058993
C45   C     C_R   0.000001 0.324557 0.499931 -0.058919
C46   C     C_R   0.500000 1.000000 0.066188 0.578106
C47   C     C_R   0.324565 0.999974 0.499991 -0.058997
C48   C     C_R   0.675454 0.500549 0.999872 -0.058912
C49   C     C_R   0.999994 0.500000 0.324516 -0.059186
C50   C     C_R   0.324546 0.499454 0.999875 -0.058908
C51   C     C_R   1.000000 0.500000 0.675419 -0.058641
C52   C     C_R   0.000000 0.500000 0.895926 0.027175
C53   C     C_R   0.999988 0.104025 0.499994 0.021372
C54   C     C_R   0.999993 0.500001 0.103907 0.002672
C55   C     C_R   0.000011 0.895975 0.499993 0.021371
C56   C     C_R   0.500022 0.104026 0.000003 0.021365
C57   C     C_R   0.499994 0.933812 0.000000 0.578135
C58   C     C_R   0.103993 0.500042 0.999901 0.014909
C59   C     C_R   0.499978 0.895974 0.000003 0.021366
C60   C     C_R   0.896008 0.499956 0.999894 0.014913
C61   C     C_R   0.104028 0.999999 0.500001 0.021308
C62   C     C_R   0.500000 1.000000 0.895972 0.021309
C63   C     C_R   0.895972 0.000001 0.500000 0.021311
C64   C     C_R   0.500000 1.000000 0.104028 0.021310
C65   C     C_R   0.500000 1.000000 0.396510 0.031405
C66   C     C_R   0.499976 0.603495 0.000005 0.031006
C67   C     C_R   0.500000 0.000001 0.603490 0.031402
C68   C     C_R   0.500000 1.000000 0.933812 0.578111
C69   C     C_R   0.500024 0.396505 0.000004 0.031007
C70   C     C_R   0.000007 0.603495 0.499971 0.030979
C71   C     C_R   0.603489 0.000019 0.499994 0.031417
C72   C     C_R   0.999993 0.396505 0.499971 0.030978
C73   C     C_R   0.396510 0.999981 0.499994 0.031403
C74   C     C_R   0.603495 0.500213 0.999969 0.031714
C75   C     C_R   0.999999 0.500001 0.396485 0.031654
C76   C     C_R   0.396505 0.499789 0.999968 0.031717
C77   C     C_R   0.000000 0.500000 0.603472 0.031848
C78   C     C_R   0.970743 0.489465 0.767185 -0.112337
C79   C     C_R   0.066188 0.000001 0.500000 0.578108
C80   C     C_R   0.970307 0.232795 0.490710 -0.112099
C81   C     C_R   0.970312 0.509249 0.232743 -0.111462
C82   C     C_R   0.970310 0.767181 0.509158 -0.112102
C83   C     C_R   0.029255 0.510536 0.767186 -0.112335
C84   C     C_R   0.029692 0.767204 0.490708 -0.112098
C85   C     C_R   0.029664 0.490748 0.232741 -0.111457
C86   C     C_R   0.029689 0.232819 0.509157 -0.112101
C87   C     C_R   0.490842 0.232804 0.029707 -0.112099
C88   C     C_R   0.232765 0.509070 0.029331 -0.111690
C89   C     C_R   0.509158 0.767196 0.029708 -0.112099
C90   C     C_R   0.000003 0.933813 0.499999 0.578136
C91   C     C_R   0.767237 0.490946 0.029326 -0.111687
C92   C     C_R   0.509311 0.232812 0.970332 -0.112102
C93   C     C_R   0.767214 0.510667 0.970359 -0.112191
C94   C     C_R   0.490692 0.767187 0.970332 -0.112102
C95   C     C_R   0.232784 0.489320 0.970372 -0.112193
C96   C     C_R   0.232803 0.970324 0.509307 -0.112126
C97   C     C_R   0.509306 0.970340 0.767181 -0.112124
C98   C     C_R   0.767166 0.970355 0.490677 -0.112111
C99   C     C_R   0.490679 0.970337 0.232818 -0.112111
C100  C     C_R   0.232834 0.029645 0.490679 -0.112111
C101  C     C_R   0.933812 0.999999 0.500000 0.578115
C102  C     C_R   0.509323 0.029661 0.232818 -0.112111
C103  C     C_R   0.767197 0.029677 0.509304 -0.112126
C104  C     C_R   0.490695 0.029660 0.767182 -0.112123
C105  C     C_R   0.490431 0.970437 0.268614 -0.113284
C106  C     C_R   0.490445 0.731393 0.970431 -0.113282
C107  C     C_R   0.490447 0.029560 0.731386 -0.113297
C108  C     C_R   0.490600 0.268598 0.029611 -0.113262
C109  C     C_R   0.509571 0.029561 0.268615 -0.113283
C110  C     C_R   0.509557 0.268607 0.970430 -0.113283
C111  C     C_R   0.509554 0.970441 0.731385 -0.113296
C112  C     C_R   1.000000 0.500000 0.565998 0.648181
C113  C     C_R   0.999997 0.066187 0.499999 0.578141
C114  C     C_R   0.509399 0.731402 0.029612 -0.113262
C115  C     C_R   0.970404 0.731387 0.509389 -0.113242
C116  C     C_R   0.731400 0.029582 0.509551 -0.113300
C117  C     C_R   0.029596 0.268613 0.509389 -0.113243
C118  C     C_R   0.268600 0.970419 0.509555 -0.113299
C119  C     C_R   0.029591 0.731410 0.490452 -0.113299
C120  C     C_R   0.268630 0.029541 0.490430 -0.113282
C121  C     C_R   0.970408 0.268590 0.490453 -0.113299
C122  C     C_R   0.731370 0.970459 0.490428 -0.113282
C123  C     C_R   0.731446 0.490691 0.029253 -0.113170
C124  C     C_R   0.000000 0.500000 0.933795 0.570006
C125  C     C_R   0.029563 0.490492 0.268545 -0.112508
C126  C     C_R   0.268591 0.489106 0.970495 -0.112657
C127  C     C_R   0.970838 0.489255 0.731392 -0.113261
C128  C     C_R   0.731407 0.510883 0.970484 -0.112655
C129  C     C_R   0.029161 0.510746 0.731393 -0.113263
C130  C     C_R   0.268557 0.509325 0.029254 -0.113170
C131  C     C_R   0.970418 0.509508 0.268547 -0.112506
C132  C     C_R   0.999999 0.500000 0.713247 0.037933
C133  C     C_R   0.000003 0.286739 0.499918 0.037665
C134  C     C_R   0.999991 0.500000 0.286688 0.037446
C135  C     C_R   0.933827 0.499987 0.000177 0.561121
C136  C     C_R   0.999996 0.713261 0.499918 0.037665
C137  C     C_R   0.500077 0.286740 0.000021 0.037660
C138  C     C_R   0.286718 0.499273 0.999874 0.037695
C139  C     C_R   0.499924 0.713260 0.000021 0.037661
C140  C     C_R   0.713283 0.500730 0.999869 0.037691
C141  C     C_R   0.286749 0.999978 0.499992 0.037627
C142  C     C_R   0.500001 0.000001 0.713251 0.037623
C143  C     C_R   0.713251 0.000023 0.499989 0.037628
C144  C     C_R   0.500001 0.999999 0.286749 0.037632
C145  C     C_R   0.500001 0.999999 0.214483 0.041251
C146  C     C_R   0.999998 0.500000 0.066140 0.552311
C147  C     C_R   0.499929 0.785526 0.000018 0.041226
C148  C     C_R   0.500000 1.000000 0.785517 0.041244
C149  C     C_R   0.500072 0.214474 0.000017 0.041225
C150  C     C_R   0.000004 0.785526 0.499942 0.041225
C151  C     C_R   0.785517 0.000014 0.499991 0.041248
C152  C     C_R   0.999995 0.214474 0.499943 0.041225
C153  C     C_R   0.214483 0.999987 0.499994 0.041248
C154  C     C_R   0.785561 0.500757 0.999814 0.039821
C155  C     C_R   0.999987 0.499996 0.214389 0.038726
C156  C     C_R   0.214440 0.499244 0.999825 0.039821
C157  C     C_R   0.066174 0.500013 0.000177 0.561207
C158  C     C_R   0.999999 0.500001 0.785502 0.040919
C159  C     C_3   0.070157 0.551789 0.886489 -0.021081
C160  C     C_3   0.090793 0.567541 0.915644 -0.355769
C161  C     C_3   0.073287 0.112775 0.546129 -0.017175
C162  C     C_3   0.094704 0.083667 0.560827 -0.351845
C163  C     C_3   0.070798 0.464301 0.097620 -0.008985
C164  C     C_3   0.091710 0.437895 0.077949 -0.349401
C165  C     C_3   0.073309 0.887298 0.453829 -0.017179
C166  C     C_3   0.094735 0.916423 0.439143 -0.351761
C167  C     C_3   0.929844 0.448205 0.886485 -0.021099
C168  C     C_R   0.017872 0.525737 0.877796 0.209047
C169  C     C_3   0.909208 0.432450 0.915637 -0.355793
C170  C     C_3   0.926714 0.887226 0.546130 -0.017175
C171  C     C_3   0.905298 0.916335 0.560828 -0.351847
C172  C     C_3   0.929194 0.535665 0.097567 -0.008877
C173  C     C_3   0.908243 0.562112 0.077992 -0.349333
C174  C     C_3   0.926688 0.112704 0.453828 -0.017179
C175  C     C_3   0.905261 0.083578 0.439145 -0.351761
C176  C     C_3   0.546183 0.112743 0.926713 -0.017181
C177  C     C_3   0.560868 0.083628 0.905291 -0.351827
C178  C     C_3   0.097535 0.463055 0.929830 -0.008634
C179  C     C_R   0.019249 0.122157 0.524657 0.209467
C180  C     C_3   0.077495 0.436529 0.909403 -0.349147
C181  C     C_3   0.453819 0.887255 0.926711 -0.017179
C182  C     C_3   0.439134 0.916369 0.905288 -0.351826
C183  C     C_3   0.902520 0.536869 0.929810 -0.008600
C184  C     C_3   0.922506 0.563405 0.909344 -0.349122
C185  C     C_3   0.453864 0.112734 0.073294 -0.017173
C186  C     C_3   0.439165 0.083612 0.094712 -0.351786
C187  C     C_3   0.885580 0.448729 0.070930 -0.021471
C188  C     C_3   0.914385 0.433030 0.092083 -0.356303
C189  C     C_3   0.546135 0.887266 0.073297 -0.017174
C190  C     C_R   0.019172 0.475279 0.122139 0.209746
C191  C     C_3   0.560834 0.916388 0.094715 -0.351784
C192  C     C_3   0.114412 0.551302 0.070909 -0.021428
C193  C     C_3   0.085605 0.567016 0.092050 -0.356304
C194  C     C_3   0.112779 0.073217 0.453738 -0.017178
C195  C     C_3   0.083649 0.094620 0.439057 -0.351822
C196  C     C_3   0.453739 0.073212 0.887237 -0.017185
C197  C     C_3   0.439073 0.094620 0.916375 -0.351803
C198  C     C_3   0.887255 0.073216 0.546305 -0.017178
C199  C     C_3   0.916404 0.094629 0.560967 -0.351833
C200  C     C_3   0.546295 0.073224 0.112756 -0.017171
C201  C     C_R   0.019276 0.877877 0.475317 0.209521
C202  C     C_3   0.560978 0.094631 0.083618 -0.351853
C203  C     C_3   0.112744 0.926787 0.546307 -0.017177
C204  C     C_3   0.083595 0.905376 0.560970 -0.351835
C205  C     C_3   0.453704 0.926776 0.112755 -0.017170
C206  C     C_3   0.439022 0.905369 0.083616 -0.351851
C207  C     C_3   0.887220 0.926781 0.453738 -0.017181
C208  C     C_3   0.916350 0.905377 0.439059 -0.351823
C209  C     C_3   0.546261 0.926786 0.887236 -0.017186
C210  C     C_3   0.560926 0.905379 0.916374 -0.351803
C211  C     C_3   0.562792 0.057437 0.394101 0.007917
C212  C     C_R   0.982128 0.474263 0.877795 0.209012
C213  C     C_3   0.591722 0.067943 0.418111 -0.343034
C214  C     C_3   0.562378 0.605966 0.057857 0.008042
C215  C     C_3   0.591224 0.581955 0.068543 -0.343046
C216  C     C_3   0.562775 0.942591 0.605905 0.007916
C217  C     C_3   0.591702 0.932098 0.581897 -0.343013
C218  C     C_3   0.562451 0.394145 0.942185 0.007974
C219  C     C_3   0.591306 0.418176 0.931514 -0.342904
C220  C     C_3   0.437210 0.942562 0.394101 0.007921
C221  C     C_3   0.408277 0.932057 0.418107 -0.343020
C222  C     C_3   0.437625 0.394037 0.057855 0.008042
C223  C     C_R   0.999996 0.433994 0.499991 0.647842
C224  C     C_R   0.980751 0.877843 0.524657 0.209466
C225  C     C_3   0.408776 0.418046 0.068540 -0.343039
C226  C     C_3   0.437230 0.057412 0.605900 0.007917
C227  C     C_3   0.408297 0.067903 0.581899 -0.343010
C228  C     C_3   0.437554 0.605855 0.942180 0.007968
C229  C     C_3   0.408701 0.581823 0.931506 -0.342919
C230  C     C_3   0.057832 0.605889 0.437543 0.007857
C231  C     C_3   0.068492 0.581862 0.408693 -0.343157
C232  C     C_3   0.605891 0.942603 0.437198 0.007928
C233  C     C_3   0.581873 0.932100 0.408274 -0.343021
C234  C     C_3   0.942166 0.394110 0.437543 0.007857
C235  C     C_R   0.980804 0.524715 0.122139 0.209725
C236  C     C_3   0.931505 0.418137 0.408695 -0.343157
C237  C     C_3   0.394117 0.057397 0.437206 0.007922
C238  C     C_3   0.418124 0.067896 0.408272 -0.343011
C239  C     C_3   0.942082 0.605932 0.562297 0.008176
C240  C     C_3   0.931350 0.581914 0.591133 -0.342808
C241  C     C_3   0.394084 0.942564 0.562779 0.007909
C242  C     C_3   0.418087 0.932073 0.591713 -0.343023
C243  C     C_3   0.057920 0.394069 0.562296 0.008175
C244  C     C_3   0.068653 0.418086 0.591133 -0.342813
C245  C     C_3   0.605918 0.057438 0.562778 0.007908
C246  C     C_R   0.980722 0.122123 0.475319 0.209521
C247  C     C_3   0.581915 0.067930 0.591711 -0.343026
C248  C     C_3   0.605666 0.563470 0.943019 0.008020
C249  C     C_3   0.581593 0.592409 0.932731 -0.342912
C250  C     C_3   0.942791 0.562948 0.394080 0.007801
C251  C     C_3   0.932397 0.591912 0.418084 -0.343005
C252  C     C_3   0.393818 0.562985 0.056849 0.007741
C253  C     C_3   0.417722 0.592080 0.067146 -0.342694
C254  C     C_3   0.056547 0.563573 0.605934 0.007954
C255  C     C_3   0.066712 0.592652 0.581961 -0.342581
C256  C     C_3   0.606185 0.437023 0.056855 0.007741
C257  C     C_R   0.524703 0.122142 0.980747 0.209482
C258  C     C_3   0.582281 0.407929 0.067156 -0.342695
C259  C     C_3   0.943453 0.436427 0.605931 0.007952
C260  C     C_3   0.933289 0.407348 0.581958 -0.342582
C261  C     C_3   0.394329 0.436525 0.943025 0.008021
C262  C     C_3   0.418401 0.407584 0.932738 -0.342910
C263  C     C_3   0.057205 0.437055 0.394076 0.007799
C264  C     C_3   0.067600 0.408089 0.418078 -0.343002
C265  C     C_R   0.122052 0.474733 0.981298 0.206402
C266  C     C_R   0.475297 0.877858 0.980745 0.209480
C267  C     C_R   0.877951 0.525250 0.981268 0.206456
C268  C     C_R   0.475358 0.122139 0.019264 0.209505
C269  C     C_R   0.877721 0.474828 0.018430 0.212231
C270  C     C_R   0.524642 0.877861 0.019265 0.209507
C271  C     C_R   1.000000 0.500000 0.433988 0.647986
C272  C     C_R   0.122280 0.525182 0.018423 0.212247
C273  C     C_R   0.122152 0.019218 0.475299 0.209461
C274  C     C_R   0.475305 0.019219 0.877856 0.209485
C275  C     C_R   0.877865 0.019225 0.524700 0.209508
C276  C     C_R   0.524707 0.019224 0.122144 0.209485
C277  C     C_R   0.122135 0.980777 0.524702 0.209510
C278  C     C_R   0.475294 0.980775 0.122143 0.209485
C279  C     C_R   0.877848 0.980782 0.475298 0.209460
C280  C     C_R   0.524694 0.980780 0.877856 0.209486
C281  C     C_R   0.528709 0.012480 0.378619 0.197826
C282  C     C_R   0.566006 0.500040 0.999996 0.648065
C283  C     C_R   0.528585 0.621413 0.012683 0.197787
C284  C     C_R   0.528704 0.987531 0.621381 0.197824
C285  C     C_R   0.528656 0.378636 0.987344 0.197478
C286  C     C_R   0.471292 0.987519 0.378618 0.197819
C287  C     C_R   0.471415 0.378587 0.012681 0.197779
C288  C     C_R   0.471296 0.012470 0.621381 0.197818
C289  C     C_R   0.471345 0.621364 0.987342 0.197474
C290  C     C_R   0.012680 0.621378 0.471343 0.197887
C291  C     C_R   0.621375 0.987549 0.471285 0.197840
C292  C     C_R   0.987319 0.378621 0.471343 0.197888
C293  C     C_R   0.500005 0.433994 0.000000 0.647851
C294  C     C_R   0.378624 0.012449 0.471285 0.197832
C295  C     C_R   0.987305 0.621399 0.528567 0.197350
C296  C     C_R   0.378614 0.987507 0.528701 0.197811
C297  C     C_R   0.012696 0.378601 0.528567 0.197352
C298  C     C_R   0.621387 0.012494 0.528700 0.197809
C299  C     C_R   0.621254 0.529102 0.987709 0.198114
C300  C     C_R   0.987623 0.528741 0.378585 0.198071
C301  C     C_R   0.378478 0.528522 0.012150 0.197701
C302  C     C_R   0.012028 0.528897 0.621358 0.197760
C303  C     C_R   0.621524 0.471482 0.012153 0.197697
C304  C     C_R   0.433994 0.499960 0.999996 0.648066
C305  C     C_R   0.987972 0.471102 0.621357 0.197762
C306  C     C_R   0.378745 0.470898 0.987712 0.198107
C307  C     C_R   0.012372 0.471260 0.378584 0.198064
C308  C     C_R   0.016724 0.526126 0.841779 -0.134370
C309  C     C_R   0.018157 0.158166 0.525115 -0.133464
C310  C     C_R   0.018334 0.474953 0.158003 -0.120882
C311  C     C_R   0.018179 0.841868 0.474829 -0.133431
C312  C     C_R   0.983275 0.473875 0.841778 -0.134364
C313  C     C_R   0.981843 0.841834 0.525114 -0.133464
C314  C     C_R   0.981639 0.525038 0.158002 -0.120808
C315  C     C_R   0.499995 0.566006 0.000001 0.647853
C316  C     C_R   0.981818 0.158132 0.474831 -0.133433
C317  C     C_R   0.525193 0.158151 0.981846 -0.133465
C318  C     C_R   0.157892 0.474092 0.982184 -0.121421
C319  C     C_R   0.474808 0.841849 0.981845 -0.133465
C320  C     C_R   0.842110 0.525893 0.982153 -0.121370
C321  C     C_R   0.474902 0.158148 0.018174 -0.133431
C322  C     C_R   0.841668 0.474735 0.017289 -0.134253
C323  C     C_R   0.525098 0.841852 0.018175 -0.133432
C324  C     C_R   0.158332 0.525274 0.017285 -0.134251
C325  C     C_R   0.158163 0.018115 0.474822 -0.133460
C326  C     C_R   0.500000 1.000000 0.433997 0.648010
C327  C     C_R   0.474830 0.018119 0.841845 -0.133480
C328  C     C_R   0.841852 0.018128 0.525171 -0.133497
C329  C     C_R   0.525181 0.018124 0.158155 -0.133468
C330  C     C_R   0.158148 0.981874 0.525174 -0.133494
C331  C     C_R   0.474821 0.981874 0.158155 -0.133469
C332  C     C_R   0.841837 0.981885 0.474821 -0.133460
C333  C     C_R   0.525169 0.981880 0.841845 -0.133482
C334  C     C_R   0.528734 0.011911 0.342651 -0.135323
C335  C     C_R   0.528597 0.657378 0.012115 -0.135500
C336  C     C_R   0.528729 0.988100 0.657349 -0.135325
Cu1   Cu    Cu3+1 0.965740 0.500000 0.500000 0.921563
Cu2   Cu    Cu3+1 1.000000 0.000000 0.465740 1.041347
Cu3   Cu    Cu3+1 0.000000 0.465740 0.000000 1.011903
Cu4   Cu    Cu3+1 1.000000 0.534260 0.000000 1.011917
Cu5   Cu    Cu3+1 0.034260 0.500000 0.500000 0.921564
Cu6   Cu    Cu3+1 0.500000 0.500000 0.034260 0.921511
Cu7   Cu    Cu3+1 0.500000 0.500000 0.965740 0.921600
Cu8   Cu    Cu3+1 0.500000 0.965740 0.500000 0.921426
Cu9   Cu    Cu3+1 0.500000 0.034260 0.500000 0.921414
Cu10  Cu    Cu3+1 0.465740 0.000000 0.000000 1.041252
Cu11  Cu    Cu3+1 0.534260 0.000000 0.000000 1.041254
Cu12  Cu    Cu3+1 1.000000 0.000000 0.534260 1.041177
H1    H     H_    0.028776 0.547055 0.828074 0.114755
H2    H     H_    0.171171 0.453675 0.968829 0.131170
H3    H     H_    0.118398 0.568305 0.908629 0.086613
H4    H     H_    0.081797 0.594086 0.920752 0.168329
H5    H     H_    0.078722 0.136431 0.561112 0.126466
H6    H     H_    0.081483 0.116776 0.518982 0.105810
H7    H     H_    0.089927 0.059751 0.546130 0.172008
H8    H     H_    0.122387 0.090183 0.559038 0.082870
H9    H     H_    0.087920 0.079355 0.588164 0.167982
H10   H     H_    0.084828 0.470894 0.121649 0.112196
H11   H     H_    0.068645 0.487575 0.081227 0.129799
H12   H     H_    0.078337 0.430891 0.053781 0.193035
H13   H     H_    0.454596 0.828207 0.968556 0.115750
H14   H     H_    0.117275 0.448735 0.071498 0.090091
H15   H     H_    0.095252 0.414495 0.093809 0.152191
H16   H     H_    0.078721 0.863658 0.438821 0.126463
H17   H     H_    0.081519 0.883275 0.480967 0.105786
H18   H     H_    0.089980 0.940325 0.453861 0.172035
H19   H     H_    0.122415 0.909913 0.440911 0.082880
H20   H     H_    0.087938 0.920756 0.411813 0.168029
H21   H     H_    0.926263 0.432116 0.863208 0.129491
H22   H     H_    0.919349 0.474379 0.881496 0.099020
H23   H     H_    0.912262 0.448035 0.939290 0.167630
H24   H     H_    0.828832 0.546301 0.968782 0.131203
H25   H     H_    0.881604 0.431682 0.908620 0.086622
H26   H     H_    0.918207 0.405906 0.920745 0.168328
H27   H     H_    0.921279 0.863571 0.561113 0.126467
H28   H     H_    0.918517 0.883224 0.518983 0.105811
H29   H     H_    0.910074 0.940250 0.546131 0.172009
H30   H     H_    0.877615 0.909819 0.559040 0.082870
H31   H     H_    0.912083 0.920647 0.588165 0.167982
H32   H     H_    0.915162 0.528955 0.121562 0.112065
H33   H     H_    0.931394 0.512456 0.081087 0.130026
H34   H     H_    0.921663 0.569311 0.053908 0.192984
H35   H     H_    0.454700 0.171788 0.031465 0.115831
H36   H     H_    0.882741 0.551216 0.071395 0.090174
H37   H     H_    0.904561 0.585405 0.093979 0.151880
H38   H     H_    0.921278 0.136342 0.438816 0.126465
H39   H     H_    0.918478 0.116732 0.480965 0.105787
H40   H     H_    0.910013 0.059678 0.453867 0.172025
H41   H     H_    0.877581 0.090091 0.440911 0.082879
H42   H     H_    0.912059 0.079241 0.411816 0.168033
H43   H     H_    0.561186 0.136392 0.921292 0.126421
H44   H     H_    0.519042 0.116752 0.918508 0.105815
H45   H     H_    0.546153 0.059718 0.910054 0.172030
H46   H     H_    0.827761 0.454236 0.029827 0.113533
H47   H     H_    0.559095 0.090143 0.877610 0.082854
H48   H     H_    0.588201 0.079309 0.912085 0.167971
H49   H     H_    0.121655 0.469045 0.915686 0.112877
H50   H     H_    0.081489 0.486611 0.931540 0.126160
H51   H     H_    0.053313 0.429980 0.922978 0.194004
H52   H     H_    0.071051 0.447033 0.883703 0.090383
H53   H     H_    0.093089 0.412913 0.906152 0.151214
H54   H     H_    0.438816 0.863606 0.921290 0.126421
H55   H     H_    0.480960 0.883246 0.918507 0.105816
H56   H     H_    0.453849 0.940280 0.910051 0.172027
H57   H     H_    0.545299 0.828213 0.031468 0.115830
H58   H     H_    0.440908 0.909854 0.877608 0.082853
H59   H     H_    0.411802 0.920689 0.912080 0.167971
H60   H     H_    0.878425 0.530788 0.915659 0.112795
H61   H     H_    0.918623 0.513357 0.931578 0.126318
H62   H     H_    0.946645 0.570068 0.922940 0.193987
H63   H     H_    0.929024 0.552855 0.883683 0.090416
H64   H     H_    0.906842 0.586963 0.906007 0.151108
H65   H     H_    0.438872 0.136378 0.078718 0.126511
H66   H     H_    0.481006 0.116752 0.081502 0.105776
H67   H     H_    0.453870 0.059707 0.089947 0.172014
H68   H     H_    0.172239 0.545782 0.029811 0.113539
H69   H     H_    0.440940 0.090124 0.122393 0.082899
H70   H     H_    0.411831 0.079283 0.087916 0.168042
H71   H     H_    0.862355 0.432444 0.073944 0.129509
H72   H     H_    0.880206 0.474819 0.081433 0.099356
H73   H     H_    0.938085 0.448633 0.089468 0.165456
H74   H     H_    0.906869 0.432238 0.119555 0.086903
H75   H     H_    0.919688 0.406496 0.083161 0.168961
H76   H     H_    0.561129 0.863623 0.078719 0.126511
H77   H     H_    0.518993 0.883246 0.081504 0.105776
H78   H     H_    0.546128 0.940292 0.089951 0.172012
H79   H     H_    0.171807 0.031369 0.454591 0.115795
H80   H     H_    0.559059 0.909876 0.122397 0.082899
H81   H     H_    0.588167 0.920719 0.087919 0.168043
H82   H     H_    0.137640 0.567582 0.073924 0.129488
H83   H     H_    0.119777 0.525215 0.081423 0.099371
H84   H     H_    0.061899 0.551421 0.089427 0.165540
H85   H     H_    0.093111 0.567809 0.119523 0.086894
H86   H     H_    0.080315 0.593550 0.083120 0.168917
H87   H     H_    0.136412 0.078618 0.438704 0.126529
H88   H     H_    0.116832 0.081456 0.480864 0.105768
H89   H     H_    0.059757 0.089881 0.453808 0.171953
H90   H     H_    0.454604 0.031371 0.828205 0.115756
H91   H     H_    0.090182 0.122300 0.440785 0.082919
H92   H     H_    0.079281 0.087790 0.411740 0.168065
H93   H     H_    0.438691 0.078596 0.863613 0.126509
H94   H     H_    0.480862 0.081464 0.883168 0.105763
H95   H     H_    0.453838 0.089898 0.940258 0.171957
H96   H     H_    0.440794 0.122298 0.909841 0.082910
H97   H     H_    0.411759 0.087777 0.920757 0.168062
H98   H     H_    0.863642 0.078585 0.561376 0.126469
H99   H     H_    0.883166 0.081476 0.519192 0.105764
H100  H     H_    0.940277 0.089920 0.546182 0.171964
H101  H     H_    0.828217 0.031383 0.545401 0.115718
H102  H     H_    0.909871 0.122305 0.559271 0.082836
H103  H     H_    0.920806 0.087779 0.588272 0.168000
H104  H     H_    0.561339 0.078618 0.136383 0.126480
H105  H     H_    0.519175 0.081464 0.116815 0.105770
H106  H     H_    0.546218 0.089897 0.059731 0.171983
H107  H     H_    0.559265 0.122310 0.090145 0.082847
H108  H     H_    0.588291 0.087800 0.079244 0.167995
H109  H     H_    0.136358 0.921417 0.561376 0.126469
H110  H     H_    0.116831 0.918527 0.519194 0.105761
H111  H     H_    0.059721 0.910085 0.546187 0.171970
H112  H     H_    0.031453 0.171820 0.545312 0.115774
H113  H     H_    0.545416 0.031382 0.171795 0.115764
H114  H     H_    0.090126 0.877699 0.559273 0.082837
H115  H     H_    0.079195 0.912226 0.588276 0.167999
H116  H     H_    0.438659 0.921382 0.136382 0.126480
H117  H     H_    0.480824 0.918534 0.116817 0.105770
H118  H     H_    0.453783 0.910101 0.059731 0.171982
H119  H     H_    0.440733 0.877690 0.090144 0.082847
H120  H     H_    0.411710 0.912201 0.079241 0.167995
H121  H     H_    0.863587 0.921381 0.438705 0.126529
H122  H     H_    0.883167 0.918544 0.480865 0.105768
H123  H     H_    0.940241 0.910116 0.453810 0.171951
H124  H     H_    0.171783 0.968621 0.545404 0.115720
H125  H     H_    0.909816 0.877697 0.440787 0.082920
H126  H     H_    0.920717 0.912206 0.411742 0.168067
H127  H     H_    0.561312 0.921404 0.863613 0.126511
H128  H     H_    0.519139 0.918534 0.883164 0.105763
H129  H     H_    0.546159 0.910099 0.940256 0.171950
H130  H     H_    0.559207 0.877701 0.909839 0.082910
H131  H     H_    0.588240 0.912222 0.920759 0.168065
H132  H     H_    0.539196 0.071649 0.401854 0.123175
H133  H     H_    0.570082 0.064876 0.367516 0.110564
H134  H     H_    0.615736 0.054343 0.411005 0.172619
H135  H     H_    0.454586 0.968617 0.171794 0.115762
H136  H     H_    0.596093 0.096034 0.416272 0.069410
H137  H     H_    0.584944 0.061387 0.444997 0.175214
H138  H     H_    0.538685 0.598221 0.071927 0.123162
H139  H     H_    0.569634 0.632550 0.065336 0.110618
H140  H     H_    0.615334 0.589066 0.055103 0.172481
H141  H     H_    0.595401 0.583782 0.096666 0.069610
H142  H     H_    0.584479 0.555074 0.061930 0.175360
H143  H     H_    0.539175 0.928364 0.598155 0.123177
H144  H     H_    0.570064 0.935160 0.632492 0.110568
H145  H     H_    0.615719 0.945712 0.589001 0.172631
H146  H     H_    0.828192 0.968630 0.454590 0.115793
H147  H     H_    0.596066 0.904009 0.583740 0.069434
H148  H     H_    0.584924 0.938645 0.555010 0.175243
H149  H     H_    0.538764 0.401879 0.928110 0.123195
H150  H     H_    0.569704 0.367567 0.934701 0.110510
H151  H     H_    0.615410 0.411074 0.944959 0.172587
H152  H     H_    0.595489 0.416359 0.903392 0.069401
H153  H     H_    0.584567 0.445051 0.938134 0.175655
H154  H     H_    0.460806 0.928351 0.401857 0.123178
H155  H     H_    0.429925 0.935120 0.367514 0.110558
H156  H     H_    0.384264 0.945653 0.410996 0.172614
H157  H     H_    0.545396 0.968628 0.828205 0.115754
H158  H     H_    0.403909 0.903965 0.416270 0.069406
H159  H     H_    0.415051 0.938616 0.444993 0.175216
H160  H     H_    0.461318 0.401788 0.071922 0.123174
H161  H     H_    0.430373 0.367453 0.065337 0.110613
H162  H     H_    0.384666 0.410930 0.055102 0.172479
H163  H     H_    0.404602 0.416222 0.096663 0.069608
H164  H     H_    0.415516 0.444927 0.061922 0.175370
H165  H     H_    0.460829 0.071634 0.598140 0.123193
H166  H     H_    0.429951 0.064849 0.632487 0.110559
H167  H     H_    0.384280 0.054295 0.589014 0.172615
H168  H     H_    0.551406 0.020144 0.328836 0.122340
H169  H     H_    0.403938 0.095993 0.583736 0.069433
H170  H     H_    0.415064 0.061347 0.555011 0.175249
H171  H     H_    0.461242 0.598121 0.928107 0.123197
H172  H     H_    0.430299 0.632432 0.934696 0.110516
H173  H     H_    0.384595 0.588924 0.944949 0.172591
H174  H     H_    0.404519 0.583639 0.903384 0.069403
H175  H     H_    0.415441 0.554948 0.938126 0.175662
H176  H     H_    0.071908 0.598154 0.461230 0.123156
H177  H     H_    0.065321 0.632468 0.430281 0.110623
H178  H     H_    0.055042 0.588962 0.384590 0.172501
H179  H     H_    0.551208 0.671208 0.020494 0.122348
H180  H     H_    0.096613 0.583685 0.404503 0.069590
H181  H     H_    0.061868 0.554985 0.415443 0.175326
H182  H     H_    0.598150 0.928373 0.460794 0.123170
H183  H     H_    0.632476 0.935182 0.429897 0.110587
H184  H     H_    0.588968 0.945718 0.384261 0.172650
H185  H     H_    0.583715 0.904012 0.403897 0.069447
H186  H     H_    0.554988 0.938636 0.415064 0.175211
H187  H     H_    0.928090 0.401844 0.461231 0.123155
H188  H     H_    0.934677 0.367530 0.430281 0.110623
H189  H     H_    0.944954 0.411038 0.384591 0.172503
H190  H     H_    0.551397 0.979876 0.671165 0.122331
H191  H     H_    0.903383 0.416314 0.404504 0.069591
H192  H     H_    0.938128 0.445014 0.415445 0.175328
H193  H     H_    0.401878 0.071619 0.460801 0.123203
H194  H     H_    0.367532 0.064830 0.429921 0.110573
H195  H     H_    0.411009 0.054288 0.384259 0.172628
H196  H     H_    0.416292 0.095986 0.403904 0.069445
H197  H     H_    0.445010 0.061346 0.415045 0.175228
H198  H     H_    0.928043 0.598188 0.538586 0.123203
H199  H     H_    0.934599 0.632513 0.569537 0.110501
H200  H     H_    0.944753 0.589028 0.615262 0.172531
H201  H     H_    0.551330 0.328879 0.979551 0.122245
H202  H     H_    0.903221 0.583730 0.595265 0.069420
H203  H     H_    0.937974 0.555036 0.584407 0.175735
H204  H     H_    0.401839 0.928347 0.539184 0.123168
H205  H     H_    0.367496 0.935121 0.570063 0.110550
H206  H     H_    0.410978 0.945678 0.615726 0.172618
H207  H     H_    0.416242 0.903982 0.596080 0.069397
H208  H     H_    0.444975 0.938633 0.584940 0.175230
H209  H     H_    0.071958 0.401814 0.538586 0.123207
H210  H     H_    0.065404 0.367488 0.569535 0.110499
H211  H     H_    0.055250 0.410971 0.615262 0.172527
H212  H     H_    0.448596 0.979854 0.328835 0.122343
H213  H     H_    0.096782 0.416271 0.595264 0.069421
H214  H     H_    0.062027 0.444964 0.584409 0.175735
H215  H     H_    0.598163 0.071655 0.539182 0.123165
H216  H     H_    0.632506 0.064881 0.570062 0.110551
H217  H     H_    0.589023 0.054326 0.615725 0.172617
H218  H     H_    0.583760 0.096021 0.596078 0.069397
H219  H     H_    0.555027 0.061370 0.584938 0.175229
H220  H     H_    0.597997 0.539970 0.928593 0.123166
H221  H     H_    0.632238 0.570908 0.935673 0.110841
H222  H     H_    0.588594 0.616320 0.946575 0.173084
H223  H     H_    0.032201 0.454983 0.171437 0.131129
H224  H     H_    0.448791 0.328792 0.020490 0.122352
H225  H     H_    0.583486 0.597041 0.904684 0.069608
H226  H     H_    0.554713 0.585480 0.939153 0.174765
H227  H     H_    0.928498 0.539396 0.401847 0.123228
H228  H     H_    0.935365 0.570248 0.367495 0.111004
H229  H     H_    0.946088 0.615881 0.410971 0.172786
H230  H     H_    0.904319 0.596366 0.416246 0.069719
H231  H     H_    0.938929 0.585120 0.444970 0.174996
H232  H     H_    0.401664 0.539521 0.071230 0.123264
H233  H     H_    0.367205 0.570211 0.064241 0.110607
H234  H     H_    0.410534 0.615968 0.053369 0.172830
H235  H     H_    0.448604 0.020126 0.671165 0.122339
H236  H     H_    0.415863 0.596638 0.095207 0.069423
H237  H     H_    0.444634 0.585361 0.060646 0.175180
H238  H     H_    0.071091 0.540178 0.598194 0.123188
H239  H     H_    0.063843 0.570949 0.632536 0.110479
H240  H     H_    0.052749 0.616466 0.589027 0.173186
H241  H     H_    0.094735 0.597423 0.583886 0.069325
H242  H     H_    0.060341 0.585784 0.555054 0.174893
H243  H     H_    0.598340 0.460489 0.071234 0.123262
H244  H     H_    0.632798 0.429798 0.064248 0.110610
H245  H     H_    0.589469 0.384040 0.053381 0.172826
H246  H     H_    0.448672 0.671121 0.979548 0.122244
H247  H     H_    0.584141 0.403375 0.095217 0.069423
H248  H     H_    0.555369 0.414647 0.060655 0.175182
H249  H     H_    0.928911 0.459823 0.598190 0.123192
H250  H     H_    0.936155 0.429053 0.632533 0.110478
H251  H     H_    0.947250 0.383534 0.589027 0.173183
H252  H     H_    0.905265 0.402577 0.583882 0.069326
H253  H     H_    0.939661 0.414215 0.555052 0.174893
H254  H     H_    0.401995 0.460022 0.928595 0.123162
H255  H     H_    0.367756 0.429084 0.935683 0.110842
H256  H     H_    0.411403 0.383675 0.946586 0.173094
H257  H     H_    0.020491 0.671148 0.448673 0.122374
H258  H     H_    0.416505 0.402948 0.904692 0.069607
H259  H     H_    0.445282 0.414515 0.939157 0.174764
H260  H     H_    0.071498 0.460606 0.401845 0.123230
H261  H     H_    0.064631 0.429756 0.367491 0.111003
H262  H     H_    0.053910 0.384120 0.410965 0.172786
H263  H     H_    0.095678 0.403635 0.416240 0.069718
H264  H     H_    0.061069 0.414879 0.444966 0.174994
H265  H     H_    0.671156 0.979896 0.448588 0.122333
H266  H     H_    0.979507 0.328851 0.448674 0.122373
H267  H     H_    0.328843 0.020102 0.448588 0.122348
H268  H     H_    0.979487 0.671181 0.551185 0.122214
H269  H     H_    0.328827 0.979846 0.551394 0.122336
H270  H     H_    0.020515 0.328819 0.551185 0.122214
H271  H     H_    0.031470 0.828240 0.454618 0.115811
H272  H     H_    0.671174 0.020157 0.551391 0.122335
H273  H     H_    0.670932 0.552106 0.980215 0.122541
H274  H     H_    0.980011 0.551445 0.328793 0.122774
H275  H     H_    0.328601 0.551063 0.019533 0.122221
H276  H     H_    0.019259 0.551749 0.671119 0.122014
H277  H     H_    0.671401 0.448942 0.019537 0.122225
H278  H     H_    0.980741 0.448251 0.671118 0.122015
H279  H     H_    0.329067 0.447894 0.980224 0.122534
H280  H     H_    0.019977 0.448556 0.328791 0.122776
H281  H     H_    0.947588 0.481816 0.780495 0.092033
H282  H     H_    0.971223 0.452946 0.828073 0.114752
H283  H     H_    0.946820 0.219499 0.484122 0.091634
H284  H     H_    0.946823 0.515847 0.219476 0.094338
H285  H     H_    0.946827 0.780459 0.515757 0.091674
H286  H     H_    0.052410 0.518185 0.780497 0.092033
H287  H     H_    0.053178 0.780501 0.484119 0.091634
H288  H     H_    0.053152 0.484149 0.219472 0.094327
H289  H     H_    0.053172 0.219541 0.515756 0.091673
H290  H     H_    0.484239 0.219514 0.053188 0.091659
H291  H     H_    0.219464 0.516192 0.052653 0.092065
H292  H     H_    0.515760 0.780486 0.053190 0.091659
H293  H     H_    0.968548 0.828180 0.545312 0.115774
H294  H     H_    0.780539 0.483835 0.052651 0.092062
H295  H     H_    0.515910 0.219529 0.946848 0.091644
H296  H     H_    0.780492 0.517755 0.947013 0.094321
H297  H     H_    0.484093 0.780470 0.946848 0.091644
H298  H     H_    0.219505 0.482220 0.947031 0.094310
H299  H     H_    0.219505 0.946862 0.515971 0.091605
H300  H     H_    0.515961 0.946877 0.780467 0.091624
H301  H     H_    0.780440 0.946889 0.484016 0.091644
H302  H     H_    0.484011 0.946872 0.219532 0.091623
H303  H     H_    0.219560 0.053111 0.484017 0.091644
H304  H     H_    0.967767 0.545003 0.171435 0.131182
H305  H     H_    0.515992 0.053126 0.219533 0.091624
H306  H     H_    0.780495 0.053140 0.515966 0.091604
H307  H     H_    0.484039 0.053123 0.780468 0.091624
H308  H     H_    0.483316 0.947248 0.282188 0.095972
H309  H     H_    0.483406 0.717819 0.947218 0.095911
H310  H     H_    0.483344 0.052747 0.717812 0.095974
H311  H     H_    0.483558 0.282164 0.052823 0.095948
H312  H     H_    0.516687 0.052750 0.282189 0.095973
H313  H     H_    0.516597 0.282180 0.947218 0.095911
H314  H     H_    0.516657 0.947254 0.717811 0.095974
H315  H     H_    0.968527 0.171760 0.454620 0.115806
H316  H     H_    0.516441 0.717837 0.052825 0.095947
H317  H     H_    0.947188 0.717809 0.516420 0.095966
H318  H     H_    0.717838 0.052771 0.516659 0.095958
H319  H     H_    0.052813 0.282191 0.516419 0.095966
H320  H     H_    0.282162 0.947230 0.516664 0.095958
H321  H     H_    0.052805 0.717850 0.483417 0.095883
H322  H     H_    0.282216 0.052727 0.483320 0.095991
H323  H     H_    0.947194 0.282150 0.483419 0.095883
H324  H     H_    0.717784 0.947272 0.483320 0.095992
H325  H     H_    0.717898 0.483149 0.052323 0.095875
H326  H     H_    0.545406 0.171792 0.968558 0.115751
H327  H     H_    0.052762 0.483423 0.282119 0.096649
H328  H     H_    0.282174 0.481592 0.947441 0.096455
H329  H     H_    0.947935 0.481231 0.717836 0.095695
H330  H     H_    0.717822 0.518386 0.947428 0.096462
H331  H     H_    0.052064 0.518769 0.717838 0.095695
H332  H     H_    0.282105 0.516878 0.052321 0.095871
H333  H     H_    0.947220 0.516578 0.282124 0.096651
H334  H     H_    0.073742 0.567877 0.863213 0.129480
H335  H     H_    0.080649 0.525614 0.881501 0.099034
H336  H     H_    0.087735 0.551955 0.939296 0.167663
O1    O     O_R   0.971060 0.549890 0.500000 -0.514938
O2    O     O_R   0.500000 0.450110 0.028940 -0.515106
O3    O     O_R   0.450110 0.500000 0.028940 -0.515480
O4    O     O_R   0.500000 0.549890 0.028940 -0.515101
O5    O     O_R   0.450110 0.500000 0.971060 -0.515307
O6    O     O_R   0.500000 0.450110 0.971060 -0.515144
O7    O     O_R   0.549890 0.500000 0.971060 -0.515309
O8    O     O_R   0.500000 0.549890 0.971060 -0.515144
O9    O     O_R   0.500000 0.971060 0.450110 -0.515274
O10   O     O_R   0.450110 0.971060 0.500000 -0.515263
O11   O     O_R   0.500000 0.971060 0.549890 -0.515262
O12   O     O_R   0.971060 0.500000 0.549890 -0.515500
O13   O     O_R   0.549890 0.971060 0.500000 -0.515267
O14   O     O_R   0.500000 0.028940 0.549890 -0.515269
O15   O     O_R   0.450110 0.028940 0.500000 -0.515285
O16   O     O_R   0.500000 0.028940 0.450110 -0.515273
O17   O     O_R   0.549890 0.028940 0.500000 -0.515265
O18   O     O_R   0.471060 0.049890 0.000000 -0.480156
O19   O     O_R   0.471060 0.000000 0.049890 -0.480111
O20   O     O_R   0.471060 0.950110 0.000000 -0.480197
O21   O     O_R   0.471060 0.000000 0.950110 -0.480096
O22   O     O_R   0.528940 0.950110 0.000000 -0.480156
O23   O     O_R   0.971060 0.450110 0.500000 -0.515284
O24   O     O_R   0.528940 0.000000 0.049890 -0.480109
O25   O     O_R   0.528940 0.049890 0.000000 -0.480197
O26   O     O_R   0.528940 0.000000 0.950110 -0.480097
O27   O     O_R   0.049890 0.000000 0.528940 -0.480123
O28   O     O_R   1.000000 0.950110 0.528940 -0.480180
O29   O     O_R   0.950110 0.000000 0.528940 -0.480126
O30   O     O_R   1.000000 0.049890 0.528940 -0.480176
O31   O     O_R   0.950110 0.000000 0.471060 -0.480067
O32   O     O_R   0.000000 0.950110 0.471060 -0.480179
O33   O     O_R   0.049890 0.000000 0.471060 -0.480071
O34   O     O_R   0.971060 0.500000 0.450110 -0.515306
O35   O     O_R   1.000000 0.049890 0.471060 -0.480182
O36   O     O_R   1.000000 0.471060 0.950110 -0.483288
O37   O     O_R   0.950110 0.471060 0.000000 -0.475369
O38   O     O_R   1.000000 0.471060 0.049890 -0.481863
O39   O     O_R   0.049890 0.471060 0.000000 -0.490407
O40   O     O_R   1.000000 0.528940 0.049890 -0.481974
O41   O     O_R   0.950110 0.528940 0.000000 -0.490353
O42   O     O_R   1.000000 0.528940 0.950110 -0.483229
O43   O     O_R   0.049890 0.528940 0.000000 -0.475330
O44   O     O_3   0.035081 0.551191 0.895785 -0.540434
O45   O     O_R   0.028940 0.450110 0.500000 -0.514938
O46   O     O_3   0.038128 0.104212 0.548890 -0.537467
O47   O     O_3   0.038115 0.450555 0.105150 -0.539976
O48   O     O_3   0.038154 0.895857 0.451098 -0.537395
O49   O     O_3   0.964919 0.448808 0.895784 -0.540454
O50   O     O_3   0.961873 0.895788 0.548890 -0.537467
O51   O     O_3   0.961853 0.549438 0.105157 -0.540021
O52   O     O_3   0.961843 0.104142 0.451100 -0.537396
O53   O     O_3   0.548924 0.104181 0.961870 -0.537452
O54   O     O_3   0.104888 0.449811 0.962759 -0.542209
O55   O     O_3   0.451077 0.895818 0.961867 -0.537453
O56   O     O_R   0.028940 0.500000 0.549890 -0.515494
O57   O     O_3   0.895112 0.550159 0.962709 -0.542206
O58   O     O_3   0.451121 0.104175 0.038136 -0.537410
O59   O     O_3   0.895624 0.449593 0.036069 -0.538056
O60   O     O_3   0.548878 0.895825 0.038139 -0.537409
O61   O     O_3   0.104377 0.550428 0.036047 -0.538043
O62   O     O_3   0.104197 0.038060 0.451045 -0.537420
O63   O     O_3   0.451057 0.038058 0.895820 -0.537412
O64   O     O_3   0.895839 0.038064 0.548955 -0.537406
O65   O     O_3   0.548966 0.038068 0.104180 -0.537417
O66   O     O_3   0.104162 0.961940 0.548957 -0.537406
O67   O     O_R   0.028940 0.549890 0.500000 -0.515284
O68   O     O_3   0.451035 0.961931 0.104179 -0.537416
O69   O     O_3   0.895803 0.961938 0.451046 -0.537419
O70   O     O_3   0.548942 0.961941 0.895821 -0.537412
O71   O     O_3   0.557954 0.021649 0.396535 -0.519349
O72   O     O_3   0.557776 0.603527 0.022037 -0.518986
O73   O     O_3   0.557946 0.978376 0.603466 -0.519364
O74   O     O_3   0.557836 0.396573 0.978004 -0.519562
O75   O     O_3   0.442047 0.978350 0.396533 -0.519353
O76   O     O_3   0.442223 0.396473 0.022034 -0.518989
O77   O     O_3   0.442055 0.021625 0.603467 -0.519363
O78   O     O_R   0.028940 0.500000 0.450110 -0.515310
O79   O     O_3   0.442165 0.603427 0.978000 -0.519560
O80   O     O_3   0.022013 0.603455 0.442162 -0.519288
O81   O     O_3   0.603454 0.978387 0.442043 -0.519343
O82   O     O_3   0.977985 0.396544 0.442163 -0.519291
O83   O     O_3   0.396543 0.021611 0.442042 -0.519350
O84   O     O_3   0.977908 0.603500 0.557746 -0.519246
O85   O     O_3   0.396525 0.978352 0.557946 -0.519366
O86   O     O_3   0.022094 0.396500 0.557745 -0.519243
O87   O     O_3   0.603476 0.021650 0.557945 -0.519371
O88   O     O_3   0.603200 0.558320 0.978765 -0.519080
O89   O     O_R   0.549890 0.500000 0.028940 -0.515472
O90   O     O_3   0.978567 0.558013 0.396499 -0.519473
O91   O     O_3   0.396258 0.557919 0.021091 -0.519853
O92   O     O_3   0.020827 0.558250 0.603436 -0.519468
O93   O     O_3   0.603744 0.442085 0.021097 -0.519856
O94   O     O_3   0.979174 0.441750 0.603436 -0.519467
O95   O     O_3   0.396798 0.441680 0.978770 -0.519081
O96   O     O_3   0.021429 0.441988 0.396496 -0.519478

loop_
_geom_bond_atom_site_label_1
_geom_bond_atom_site_label_2
_ccdc_geom_bond_type
C100  C153  A    
C11   C294  A    
C336  H190  S    
C159  H334  S    
Cu1   O23   S    
C17   C48   A    
C76   C304  S    
C46   O19   A    
C110  H313  S    
C117  C133  A    
C248  H221  S    
Cu8   O9    S    
C40   C335  A    
C124  O42   A    
C66   C315  S    
C181  O55   S    
C176  O53   S    
C81   H284  S    
C195  H91   S    
C34   C330  A    
C32   C323  A    
C54   C235  A    
Cu8   O13   S    
C198  H99   S    
C261  O95   S    
C243  H210  S    
C18   C300  A    
C225  H164  S    
C123  H325  S    
C262  H256  S    
C287  O76   S    
C57   C59   S    
C180  H51   S    
C90   O28   A    
C115  C136  A    
C214  H138  S    
C58   C272  A    
Cu4   O41   S    
C85   H288  S    
C332  H146  S    
Cu10  O18   S    
C222  H161  S    
C174  H39   S    
C306  O95   S    
C167  O49   S    
C111  C142  A    
C170  O50   S    
C36   C148  S    
C14   H269  S    
C188  H74   S    
C236  H189  S    
C239  C240  S    
C229  H174  S    
C8    C43   A    
C118  H320  S    
C24   O17   A    
C260  H252  S    
C93   H296  S    
C16   C44   A    
C90   O32   A    
C163  H10   S    
C118  C141  A    
Cu7   O8    S    
C80   H283  S    
C254  O92   S    
C244  H213  S    
C307  O96   S    
C42   C137  S    
Cu2   O32   S    
C327  H90   S    
C251  H231  S    
C297  O86   S    
C239  H198  S    
C234  C236  S    
C278  C331  A    
C126  H328  S    
C78   C127  A    
C224  C313  A    
C228  C229  S    
C146  O38   A    
C53   C113  S    
C76   C306  A    
C284  O73   S    
C218  H150  S    
C170  H27   S    
C30   C321  A    
C62   C280  A    
Cu7   O7    S    
Cu11  O25   S    
C80   C152  A    
C92   H295  S    
C21   H277  S    
C262  H259  S    
C25   H280  S    
C9    C291  A    
C107  H310  S    
C246  C316  A    
Cu6   Cu7   S    
C196  C197  S    
C30   C149  S    
C10   C292  A    
C173  H36   S    
Cu1   O12   S    
C277  C330  A    
C176  H44   S    
Cu2   O33   S    
C20   C302  A    
Cu12  O29   S    
Cu1   O34   S    
C21   C303  A    
C243  O86   S    
C77   C112  S    
C183  C184  S    
C100  H303  S    
C86   C152  A    
C169  H26   S    
C259  H249  S    
Cu9   O14   S    
C247  H218  S    
C258  H248  S    
C34   C325  A    
C237  H193  S    
C226  H166  S    
C41   C336  A    
C74   C303  A    
C230  H176  S    
C162  H7    S    
C216  C217  S    
C242  H208  S    
C293  O6    A    
C240  H202  S    
C193  H85   S    
C63   C275  A    
C264  H263  S    
C235  O51   S    
C184  H63   S    
C201  C311  A    
C172  H33   S    
C30   C317  A    
C333  H157  S    
C60   C267  A    
C246  O52   S    
C130  C138  A    
C103  H306  S    
C218  O74   S    
C207  H121  S    
C219  H152  S    
Cu6   O3    S    
C4    H212  S    
C34   C153  S    
C176  H43   S    
C5    H224  S    
C330  H124  S    
C214  C215  S    
C186  H69   S    
C45   C133  S    
C206  H119  S    
C119  C136  A    
C225  H162  S    
C257  C317  A    
C209  O70   S    
C185  H66   S    
C50   C138  S    
C280  O70   S    
C180  H53   S    
Cu12  O27   S    
C47   C141  S    
C270  O60   S    
C1    C70   S    
Cu4   O43   S    
C62   C68   S    
C57   O22   A    
C304  O3    A    
C245  H216  S    
C168  O44   S    
C103  C116  A    
C52   C124  S    
C171  H30   S    
C106  C139  A    
C135  O41   A    
C236  H191  S    
C84   C119  A    
C216  H144  S    
C299  O88   S    
C238  H197  S    
C26   C158  S    
C86   C117  A    
C278  O68   S    
C281  O71   S    
C31   C324  A    
C178  O54   S    
C166  H20   S    
C232  H182  S    
C181  H55   S    
C15   C297  A    
C200  C202  S    
Cu2   Cu12  S    
C249  H226  S    
C52   C212  A    
C122  H324  S    
C274  O63   S    
C24   O13   A    
C102  C109  A    
C187  C188  S    
C256  H244  S    
C97   H300  S    
C104  C107  A    
C18   C49   A    
C55   C224  A    
C316  H315  S    
C256  O93   S    
C25   C307  A    
C27   C152  S    
C26   C308  A    
C199  H100  S    
Cu7   O5    S    
Cu9   O15   S    
C19   C50   A    
C204  H115  S    
C205  H117  S    
C72   C297  A    
C105  H308  S    
C31   C156  S    
C258  H247  S    
C213  H137  S    
C192  O61   S    
C167  C169  S    
Cu5   O56   S    
C175  H41   S    
C84   H287  S    
C159  H335  S    
C70   C290  A    
C37   C332  A    
C29   C313  A    
C253  H234  S    
C191  H81   S    
C55   C90   S    
C283  C335  A    
C207  O69   S    
C325  H79   S    
C261  C262  S    
Cu9   O16   S    
C178  C180  S    
C81   C131  A    
C170  C171  S    
C55   C201  A    
C16   C298  A    
C75   C300  A    
C214  O72   S    
C241  C242  S    
C62   C274  A    
C205  H116  S    
C314  H304  S    
C242  H206  S    
C200  O65   S    
C203  O66   S    
C210  H131  S    
C263  H261  S    
C2    O15   A    
C209  H128  S    
C312  H282  S    
C78   C158  A    
C64   C278  A    
C256  C258  S    
Cu4   O40   S    
C99   H302  S    
C250  H228  S    
C272  C324  A    
C271  O78   A    
C60   C269  A    
C109  C144  A    
C233  H185  S    
C183  O57   S    
C224  O50   S    
C127  H329  S    
C63   C101  S    
C187  O59   S    
C12   C295  A    
C99   C145  A    
C91   C123  A    
C237  C238  S    
C115  H317  S    
C197  H96   S    
C275  C328  A    
C230  C231  S    
C122  C143  A    
C194  O62   S    
C33   C320  A    
C211  H132  S    
C53   C179  A    
C220  C221  S    
C196  H93   S    
C163  H11   S    
C193  H84   S    
C6    H235  S    
C157  O43   A    
Cu3   O38   S    
C48   C140  S    
C98   H301  S    
C265  C318  A    
C211  O71   S    
C10   H266  S    
C239  H199  S    
C32   C319  A    
C267  C320  A    
C193  H86   S    
C37   C328  A    
Cu10  O20   S    
C222  C225  S    
C282  O7    A    
C95   H298  S    
C238  H195  S    
C228  H172  S    
C227  H170  S    
C73   C294  A    
C167  H21   S    
C200  H104  S    
C67   C288  A    
C166  H18   S    
C70   C295  A    
C215  H141  S    
C175  H40   S    
C296  O85   S    
C275  O64   S    
C252  H232  S    
C10   C45   A    
C209  C210  S    
C160  H336  S    
C247  H219  S    
C273  O62   S    
C254  H238  S    
C235  C314  A    
C253  H237  S    
C191  H80   S    
C2    C73   S    
C169  H23   S    
C220  O75   S    
C35   O18   A    
C162  H8    S    
C182  H58   S    
C64   C276  A    
C301  O91   S    
C195  H92   S    
C120  C141  A    
C276  O65   S    
C111  H314  S    
C92   C149  A    
C202  H107  S    
C231  H181  S    
C89   C147  A    
C264  H262  S    
C315  O8    A    
C334  H168  S    
C213  H134  S    
C54   C190  A    
C135  O37   A    
C35   C56   S    
C61   C277  A    
C172  H32   S    
C251  H229  S    
C8    H257  S    
C221  H159  S    
C253  H236  S    
C179  C309  A    
C58   C157  S    
C17   H273  S    
C322  H46   S    
C65   C281  A    
C219  H153  S    
C77   C302  A    
C196  O63   S    
C19   H275  S    
C279  O69   S    
C81   C155  A    
C36   C327  A    
C27   C316  A    
C21   C48   A    
C128  C140  A    
C93   C128  A    
C41   C142  S    
C243  H209  S    
C210  H129  S    
C101  O29   A    
C240  H203  S    
C95   C126  A    
C92   C110  A    
C180  H52   S    
C61   C79   S    
C44   C143  S    
C214  H139  S    
C58   C265  A    
C266  C319  A    
Cu4   O42   S    
C276  C329  A    
Cu10  O19   S    
C87   H290  S    
C188  H73   S    
C43   C136  S    
C240  H200  S    
C124  O36   A    
C171  H31   S    
Cu8   Cu9   S    
C3    H201  S    
C226  C227  S    
C28   C310  A    
C252  C253  S    
Cu8   O11   S    
C241  H205  S    
C187  H72   S    
C200  H105  S    
C288  O77   S    
C65   C326  S    
C192  H83   S    
C89   H292  S    
C125  C134  A    
C226  O77   S    
C69   C285  A    
C5    C42   A    
C17   C299  A    
C3    C42   A    
Cu3   O36   S    
C244  H214  S    
C269  O59   S    
C104  C148  A    
C11   C47   A    
C56   C257  A    
C178  H49   S    
C279  C332  A    
C203  C204  S    
C131  C134  A    
C105  C144  A    
C161  C162  S    
C263  C264  S    
C91   H294  S    
C181  C182  S    
C198  C199  S    
C185  O58   S    
C177  H48   S    
C217  H148  S    
C1    O1    A    
C80   C121  A    
C298  O87   S    
C208  H123  S    
C73   C296  A    
C320  H24   S    
C88   C156  A    
C15   H270  S    
C223  O45   A    
C203  H110  S    
C204  H114  S    
C20   C51   A    
C102  C145  A    
C266  O55   S    
C97   C111  A    
C230  O80   S    
C243  C244  S    
C160  H3    S    
Cu12  O30   S    
C68   O26   A    
C95   C156  A    
C247  H217  S    
C208  H125  S    
C220  H154  S    
C53   C246  A    
C250  O90   S    
C191  H78   S    
Cu12  O28   S    
C234  H187  S    
C169  H25   S    
Cu8   O10   S    
C197  H95   S    
C77   C305  A    
C66   C289  A    
C26   C312  A    
C117  H319  S    
C28   C155  S    
C270  C323  A    
C27   C309  A    
C230  H177  S    
C28   C314  A    
C126  C138  A    
C234  O82   S    
C82   H285  S    
C199  H103  S    
C59   C266  A    
C103  C151  A    
C54   C146  S    
C129  C132  A    
C177  H47   S    
C194  C195  S    
C264  H264  S    
C323  H57   S    
C213  H136  S    
C231  H180  S    
C86   H289  S    
C194  H88   S    
C125  H327  S    
C245  O87   S    
C76   C301  A    
C219  H151  S    
C241  O85   S    
Cu6   O4    S    
C269  C322  A    
C96   C153  A    
C20   H276  S    
C189  H77   S    
C129  H331  S    
C14   C296  A    
C207  C208  S    
C186  H70   S    
C18   H274  S    
C212  C312  A    
C189  O60   S    
C174  O52   S    
C198  H98   S    
C91   C154  A    
C182  H56   S    
C101  O31   A    
C32   C147  S    
C216  H143  S    
C185  H65   S    
C23   C50   A    
C290  O80   S    
C250  C251  S    
C232  O81   S    
C72   C223  S    
C4    C286  A    
C245  H215  S    
C59   C270  A    
C65   C286  A    
C5    C287  A    
C38   C329  A    
C222  H160  S    
C174  H38   S    
C205  O68   S    
C6    C288  A    
C2    O10   A    
C254  C255  S    
C206  H120  S    
C190  C310  A    
C75   C307  A    
C171  H29   S    
C170  H28   S    
C159  C160  S    
C236  H192  S    
C108  H311  S    
C119  H321  S    
C189  H76   S    
C283  O72   S    
C78   H281  S    
Cu3   O39   S    
C229  H175  S    
C104  H307  S    
C260  H251  S    
C163  O47   S    
C305  O94   S    
C164  H15   S    
C46   O24   A    
C263  H260  S    
Cu5   O78   S    
C181  H54   S    
C69   C287  A    
C309  H112  S    
C157  O39   A    
C245  C247  S    
C179  O46   S    
C211  H133  S    
Cu2   O31   S    
C69   C293  S    
C162  H9    S    
C302  O92   S    
C321  H35   S    
C248  C249  S    
C35   O25   A    
C291  O81   S    
C218  H149  S    
C274  C327  A    
C3    C285  A    
C329  H113  S    
C89   C114  A    
C159  O44   S    
C293  O2    A    
Cu11  O26   S    
C255  H242  S    
C110  C137  A    
C67   C284  A    
C262  H258  S    
C82   C115  A    
C183  H61   S    
C51   C132  S    
C83   C129  A    
C265  O54   S    
C326  O16   A    
C12   C43   A    
Cu6   O89   S    
C161  H5    S    
C303  O93   S    
C331  H135  S    
C319  H13   S    
C255  H241  S    
C98   C151  A    
C259  O94   S    
C79   O33   A    
C259  H250  S    
C7    C289  A    
C31   C318  A    
C185  C186  S    
C108  C137  A    
C83   C158  A    
C75   C271  S    
C237  H194  S    
C252  H233  S    
C226  H165  S    
C232  C233  S    
C33   C322  A    
C186  H67   S    
C83   H286  S    
C72   C292  A    
C242  H207  S    
C25   C49   A    
C71   C298  A    
C94   C106  A    
C286  O75   S    
C16   H272  S    
C23   H279  S    
C215  H140  S    
C209  H127  S    
C130  H332  S    
C280  C333  A    
C22   H278  S    
C7    H246  S    
C74   C282  S    
C9    H265  S    
C228  O79   S    
C121  H323  S    
C61   C273  A    
C11   H267  S    
C295  O84   S    
C29   C311  A    
C324  H68   S    
C233  H184  S    
C71   C291  A    
C207  H122  S    
Cu1   Cu5   S    
Cu6   O2    S    
C84   C150  A    
C49   C134  S    
C273  C325  A    
C165  C166  S    
C112  O56   A    
C294  O83   S    
C206  H118  S    
C326  O9    A    
C85   C125  A    
C163  C164  S    
C88   C130  A    
C225  H163  S    
C63   C279  A    
C190  O47   S    
Cu10  Cu11  S    
C196  H94   S    
C164  H12   S    
C112  O12   A    
C8    C290  A    
C205  C206  S    
C1    O67   A    
Cu3   O37   S    
C106  H309  S    
C22   C305  A    
C113  O35   A    
C96   C118  A    
C93   C154  A    
C12   H268  S    
C88   H291  S    
C194  H87   S    
C188  H75   S    
C197  H97   S    
C40   C139  S    
C217  H145  S    
C94   H297  S    
C238  H196  S    
C227  H169  S    
C189  C191  S    
C260  H253  S    
C23   C306  A    
C257  O53   S    
C261  H255  S    
C127  C132  A    
C304  O5    A    
C165  O48   S    
C166  H19   S    
C174  C175  S    
C114  H316  S    
C87   C108  A    
Cu3   Cu4   S    
C199  H102  S    
C6    C41   A    
C335  H179  S    
C212  O49   S    
C19   C301  A    
C251  H230  S    
C268  O58   S    
C68   O21   A    
C100  C120  A    
C256  H243  S    
C254  H239  S    
C255  H240  S    
C116  H318  S    
C252  O91   S    
C38   C331  A    
C29   C150  S    
C248  O88   S    
Cu7   O6    S    
C120  H322  S    
Cu11  O24   S    
C114  C139  A    
C74   C299  A    
C66   C283  A    
Cu10  O21   S    
C222  O76   S    
C272  O61   S    
C37   C151  S    
C284  C336  A    
C202  H108  S    
C96   H299  S    
C102  H305  S    
C175  H42   S    
C263  O96   S    
C99   C105  A    
C271  O34   A    
C79   O27   A    
C241  H204  S    
C192  H82   S    
C281  C334  A    
C221  H158  S    
C57   O20   A    
C161  H6    S    
C173  H34   S    
C328  H101  S    
Cu9   O17   S    
C33   C154  S    
C258  H245  S    
C13   O11   A    
C216  O73   S    
C123  C140  A    
C46   C64   S    
C38   C145  S    
C182  H59   S    
C210  H130  S    
C116  C143  A    
C285  O74   S    
C165  H17   S    
C4    C39   A    
C7    C40   A    
C211  C213  S    
C220  H155  S    
C308  H1    S    
C282  O89   A    
C85   C155  A    
C113  O30   A    
C39   C144  S    
C107  C142  A    
C233  H186  S    
C248  H220  S    
C60   C135  S    
C82   C150  A    
C98   C122  A    
C313  H293  S    
C176  C177  S    
C221  H156  S    
C36   C333  A    
C318  H2    S    
C300  O90   S    
C97   C148  A    
C187  H71   S    
C15   C45   A    
C164  H14   S    
C259  C260  S    
C128  H330  S    
C231  H178  S    
C172  C173  S    
C165  H16   S    
C13   C67   S    
C94   C147  A    
C289  O79   S    
Cu5   O45   S    
C131  H333  S    
C9    C44   A    
C229  H173  S    
C13   O14   A    
C244  H211  S    
C249  H222  S    
C168  C308  A    
C56   C268  A    
C237  O83   S    
C178  H50   S    
C201  O48   S    
C146  O40   A    
C173  H37   S    
C14   C47   A    
C177  H45   S    
C268  C321  A    
C217  H147  S    
C261  H254  S    
C228  H171  S    
C227  H167  S    
C184  H64   S    
C167  H22   S    
C192  C193  S    
C277  O66   S    
C203  H109  S    
C204  H111  S    
C183  H60   S    
C267  O57   S    
C172  O51   S    
C198  O64   S    
C52   C168  A    
C249  H225  S    
C232  H183  S    
C218  C219  S    
C215  H142  S    
C184  H62   S    
Cu2   O35   S    
C160  H4    S    
C310  H223  S    
C208  H126  S    
C292  O82   S    
C234  H188  S    
C317  H326  S    
C109  H312  S    
C39   C334  A    
C315  O4    A    
C87   C149  A    
C239  O84   S    
Cu11  O22   S    
C223  O23   A    
C195  H89   S    
C121  C133  A    
C161  O46   S    
C250  H227  S    
C202  H106  S    
C24   C71   S    
C311  H271  S    
C22   C51   A    
Cu5   O67   S    
Cu1   O1    S    
