data_mof_unit_28615.cif
_audit_creation_date              2012-12-10T17:03:39-0500
_audit_creation_method            fapswitch 2.2
_symmetry_space_group_name_H-M    P1
_symmetry_Int_Tables_number       1
_space_group_crystal_system       triclinic
_cell_length_a                    10.038501
_cell_length_b                    10.725981
_cell_length_c                    13.11674
_cell_angle_alpha                 89.712626
_cell_angle_beta                  69.814095
_cell_angle_gamma                 89.927955
_cell_volume                      1325.55155695

loop_
_atom_site_label
_atom_site_type_symbol
_atom_type_description
_atom_site_fract_x
_atom_site_fract_y
_atom_site_fract_z
_atom_type_partial_charge
C1    C     C_R   0.501852 0.737268 0.495861 0.931371
C2    C     C_R   0.432863 0.487726 0.984281 0.027324
C3    C     C_R   0.454155 0.443153 0.878906 -0.052709
C4    C     C_R   0.539999 0.465724 0.029499 0.074218
C5    C     C_R   0.656473 0.386671 0.975920 0.090217
C6    C     C_R   0.663962 0.328766 0.879398 -0.333548
C7    C     C_R   0.561248 0.352536 0.832752 0.482683
C8    C     C_R   0.534354 0.520084 0.127081 -0.231503
C9    C     C_R   0.744149 0.407779 0.125431 -0.202546
C10   C     C_R   0.367980 0.491120 0.822688 -0.115967
C11   C     C_2   0.621345 0.067472 0.473597 -0.158719
C12   C     C_R   0.420757 0.495165 0.704283 0.917558
C13   C     C_2   0.499349 0.130625 0.502694 -0.334108
C14   C     C_2   0.620775 0.933267 0.480874 -0.164650
C15   C     C_2   0.508352 0.868302 0.479196 -0.340755
C16   C     C_2   0.105053 0.434203 0.433201 -0.129301
C17   C     C_2   0.953405 0.429431 0.436961 -0.132027
C18   C     C_R   0.500354 0.262651 0.499543 0.945470
C19   C     C_R   0.579077 0.499849 0.295727 0.855796
C20   C     C_R   0.760270 0.361638 0.022711 -0.169162
C21   C     C_R   0.627308 0.483069 0.178988 -0.058188
C22   C     C_R   0.242592 0.555251 0.878958 -0.202746
C23   C     C_R   0.208728 0.580912 0.988515 -0.143665
C24   C     C_R   0.304426 0.551210 0.040387 -0.163534
H1    H     H_    0.816997 0.378328 0.165481 0.146724
H2    H     H_    0.395773 0.086856 0.533418 0.139572
H3    H     H_    0.713268 0.888359 0.489754 0.171921
H4    H     H_    0.182097 0.378231 0.372100 0.163374
H5    H     H_    0.928332 0.364804 0.382815 0.147442
H6    H     H_    0.876649 0.564102 0.546555 0.161793
H7    H     H_    0.747660 0.262401 0.841156 0.162126
H8    H     H_    0.849007 0.300733 0.982774 0.134347
H9    H     H_    0.173845 0.590150 0.837242 0.155427
H10   H     H_    0.273238 0.576359 0.124860 0.128736
H11   H     H_    0.111344 0.629705 0.032094 0.142548
H12   H     H_    0.723401 0.114674 0.448820 0.166835
N1    N     N_2   0.148270 0.498670 0.498870 -0.190370
N2    N     N_2   0.852610 0.498640 0.498840 -0.182069
O1    O     O_R   0.386950 0.680940 0.500020 -0.618314
O2    O     O_R   0.613110 0.680900 0.499980 -0.616708
O3    O     O_R   0.330780 0.500000 0.653640 -0.627548
O4    O     O_R   0.556930 0.499960 0.653610 -0.567808
O5    O     O_R   0.386890 0.319100 0.500020 -0.620371
O6    O     O_R   0.613050 0.319060 0.499980 -0.579118
O7    O     O_R   0.443070 0.500040 0.346390 -0.609897
O8    O     O_R   0.669220 0.500000 0.346360 -0.618990
Zn1   Zn    Zn3+2 0.349000 0.500030 0.500020 0.930559
Zn2   Zn    Zn3+2 0.651000 0.499970 0.499980 0.960975
H13   H     H_    0.419848 0.910232 0.462247 0.151442
H14   H     H_    0.074986 0.547087 0.560141 0.158559
H15   H     H_    0.453008 0.586379 0.168388 0.141426
O9    O     O_3   0.562663 0.281548 0.744696 -0.627832
C25   C     C_3   0.465234 0.181434 0.780356 0.069680
H16   H     H_    0.401753 0.177303 0.726007 0.154364
H17   H     H_    0.386861 0.191786 0.864492 0.113388
C26   C     C_3   0.546478 0.058923 0.772450 -0.331716
H18   H     H_    0.629723 0.051565 0.690854 0.242542
H19   H     H_    0.599455 0.058160 0.834144 0.206488
C27   C     C_3   0.447847 0.946360 0.791080 -0.944499
H20   H     H_    0.365165 0.950426 0.873171 0.260902
H21   H     H_    0.510092 0.859293 0.784875 0.266961
H22   H     H_    0.395905 0.943879 0.728798 0.265604

loop_
_geom_bond_atom_site_label_1
_geom_bond_atom_site_label_2
_ccdc_geom_bond_type
C16   H4    S    
C2    C4    A    
C23   C24   A    
C19   O7    A    
C6    C7    A    
C1    C15   S    
C18   O6    A    
C14   H3    S    
N1    Zn1   S    
C17   H5    S    
C9    C20   A    
N2    Zn2   S    
C26   C27   S    
C16   N1    D    
C4    C8    A    
O7    Zn1   S    
C6    H7    S    
O3    Zn1   S    
C19   O8    A    
C9    H1    S    
C27   H20   S    
C3    C10   A    
O4    Zn2   S    
C18   O5    A    
O9    C25   S    
N1    H14   S    
C11   C13   D    
C8    H15   S    
C9    C21   A    
C12   O3    A    
C10   C12   S    
C13   C18   S    
C11   H12   S    
C19   C21   S    
C26   H19   S    
C7    O9    S    
C2    C3    A    
C3    C7    A    
C23   H11   S    
C17   N2    D    
C15   H13   S    
C2    C24   A    
C5    C6    A    
C11   C14   S    
O8    Zn2   S    
C13   H2    S    
C27   H21   S    
C1    O1    A    
C25   H17   S    
C26   H18   S    
H6    N2    S    
O1    Zn1   S    
C20   H8    S    
C25   C26   S    
C5    C20   A    
C22   H9    S    
O2    Zn2   S    
C14   C15   D    
C16   C17   S    
C27   H22   S    
C12   O4    A    
C1    O2    A    
C25   H16   S    
O5    Zn1   S    
C10   C22   A    
C22   C23   A    
C24   H10   S    
O6    Zn2   S    
C4    C5    A    
C8    C21   A    
