data_mof_unit_52422.cif
_audit_creation_date              2012-12-10T16:44:41-0500
_audit_creation_method            fapswitch 2.2
_symmetry_space_group_name_H-M    P1
_symmetry_Int_Tables_number       1
_space_group_crystal_system       triclinic
_cell_length_a                    14.956809
_cell_length_b                    8.730864
_cell_length_c                    7.443305
_cell_angle_alpha                 102.39604
_cell_angle_beta                  94.789472
_cell_angle_gamma                 91.584951
_cell_volume                      944.977581335

loop_
_atom_site_label
_atom_site_type_symbol
_atom_type_description
_atom_site_fract_x
_atom_site_fract_y
_atom_site_fract_z
_atom_type_partial_charge
C1    C     C_R   0.496905 0.200687 0.455139 0.832083
C2    C     C_R   0.503095 0.799313 0.544860 0.832083
C3    C     C_R   0.046019 0.243287 0.579380 -0.216940
C4    C     C_R   0.953981 0.756713 0.420619 -0.216941
C5    C     C_2   0.480184 0.036287 0.436796 -0.238593
C6    C     C_2   0.519816 0.963713 0.563204 -0.238594
C7    C     C_R   0.329076 0.500886 0.502060 0.799936
C8    C     C_R   0.670924 0.499114 0.497940 0.799936
C9    C     C_R   0.813104 0.624327 0.450988 -0.241733
C10   C     C_R   0.186896 0.375673 0.549012 -0.241733
C11   C     C_R   0.767021 0.497259 0.493198 -0.042092
C12   C     C_R   0.232979 0.502741 0.506802 -0.042092
C13   C     C_R   0.812574 0.369722 0.534174 -0.263819
C14   C     C_R   0.187426 0.630278 0.465826 -0.263819
C15   C     C_R   0.905791 0.368909 0.535114 0.114123
C16   C     C_R   0.094209 0.631091 0.464886 0.114123
C17   C     C_R   0.953057 0.499070 0.497685 0.059213
C18   C     C_R   0.046943 0.500930 0.502315 0.059213
C19   C     C_R   0.906447 0.627337 0.455522 0.115936
C20   C     C_R   0.093553 0.372663 0.544478 0.115936
C21   C     C_R   0.952607 0.241161 0.573731 -0.214782
C22   C     C_R   0.047393 0.758839 0.426269 -0.214782
Cu1   Cu    Cu3+1 0.510010 0.517380 0.684380 0.947230
Cu2   Cu    Cu3+1 0.489990 0.482620 0.315620 0.947230
H1    H     H_    0.776334 0.721550 0.418339 0.120333
H2    H     H_    0.223666 0.278450 0.581661 0.120333
H3    H     H_    0.775204 0.271637 0.564178 0.143421
H4    H     H_    0.224796 0.728363 0.435822 0.143421
H5    H     H_    0.917150 0.139555 0.599035 0.133721
H6    H     H_    0.082850 0.860445 0.400965 0.133721
H7    H     H_    0.081048 0.143717 0.610368 0.139532
H8    H     H_    0.918952 0.856283 0.389632 0.139532
H9    H     H_    0.429774 0.379895 0.948371 0.224127
H10   H     H_    0.570226 0.620105 0.051628 0.224127
N1    N     N_2   0.474890 0.456420 0.038520 -0.216934
N2    N     N_2   0.525110 0.543580 0.961480 -0.216934
O1    O     O_R   0.506510 0.286130 0.619770 -0.582757
O2    O     O_R   0.493490 0.713870 0.380230 -0.582757
O3    O     O_R   0.489600 0.256770 0.308360 -0.600686
O4    O     O_R   0.510400 0.743230 0.691640 -0.600685
O5    O     O_R   0.378710 0.514640 0.655720 -0.600098
O6    O     O_R   0.621290 0.485360 0.344280 -0.600098
O7    O     O_R   0.361800 0.485290 0.344300 -0.562256
O8    O     O_R   0.638200 0.514710 0.655700 -0.562256
C23   C     C_R   0.405108 0.965308 0.297347 0.145471
C24   C     C_R   0.316187 0.988798 0.339963 -0.186745
C25   C     C_R   0.245162 0.946728 0.201801 -0.136312
C26   C     C_R   0.262203 0.878343 0.021248 -0.118796
C27   C     C_R   0.350479 0.854433 0.977935 -0.133535
C28   C     C_R   0.421950 0.898653 0.114982 -0.066084
H11   H     H_    0.302316 0.043824 0.478901 0.103817
H12   H     H_    0.177075 0.970072 0.233639 0.126116
H13   H     H_    0.207162 0.846214 0.914271 0.134816
H14   H     H_    0.363190 0.805402 0.837064 0.157749
H15   H     H_    0.490289 0.884372 0.078834 0.124536
C29   C     C_R   0.594892 0.034692 0.702653 0.145471
C30   C     C_R   0.578050 0.101347 0.885018 -0.066084
C31   C     C_R   0.649521 0.145567 0.022065 -0.133535
C32   C     C_R   0.737797 0.121657 0.978753 -0.118797
C33   C     C_R   0.754838 0.053273 0.798199 -0.136311
C34   C     C_R   0.683813 0.011202 0.660037 -0.186745
H16   H     H_    0.509711 0.115627 0.921166 0.124536
H17   H     H_    0.636810 0.194598 0.162936 0.157749
H18   H     H_    0.792838 0.153786 0.085729 0.134817
H19   H     H_    0.822925 0.029928 0.766361 0.126116
H20   H     H_    0.697684 0.956176 0.521099 0.103817

loop_
_geom_bond_atom_site_label_1
_geom_bond_atom_site_label_2
_ccdc_geom_bond_type
Cu2   O2    S    
Cu1   Cu2   S    
C25   H12   S    
C10   C20   A    
Cu1   O1    S    
C11   C13   A    
C4    C22   A    
C27   H14   S    
C2    O2    A    
C18   C20   A    
N1    N2    D    
Cu1   O5    S    
C1    O1    A    
C14   H4    S    
C10   H2    S    
C2    C6    S    
C17   C18   A    
C30   C31   A    
C9    H1    S    
C32   C33   A    
C5    C23   S    
C3    C20   A    
C23   C24   A    
C3    H7    S    
C9    C11   A    
C8    O8    A    
C32   H18   S    
C4    H8    S    
C15   C21   A    
C10   C12   A    
C23   C28   A    
C8    C11   S    
C1    C5    S    
C5    C6    D    
C24   H11   S    
C26   C27   A    
C17   C19   A    
C8    O6    A    
C33   H19   S    
Cu1   N2    S    
H10   N2    S    
C13   C15   A    
C26   H13   S    
C14   C16   A    
C7    C12   S    
C3    C21   A    
Cu2   N1    S    
C1    O3    A    
Cu1   O4    S    
C25   C26   A    
C2    O4    A    
C30   H16   S    
Cu2   O3    S    
Cu2   O6    S    
C29   C30   A    
C16   C18   A    
C27   C28   A    
C6    C29   S    
C31   H17   S    
C15   C17   A    
Cu2   O7    S    
C29   C34   A    
C13   H3    S    
C16   C22   A    
C22   H6    S    
H9    N1    S    
C31   C32   A    
C24   C25   A    
C4    C19   A    
C21   H5    S    
C34   H20   S    
C9    C19   A    
Cu1   O8    S    
C28   H15   S    
C7    O5    A    
C12   C14   A    
C33   C34   A    
C7    O7    A    
