data_mof_unit_5281.cif
_audit_creation_date              2013-03-05T16:16:21-0500
_audit_creation_method            fapswitch 2.2
_symmetry_space_group_name_H-M    P1
_symmetry_Int_Tables_number       1
_space_group_crystal_system       triclinic
_cell_length_a                    27.830744
_cell_length_b                    15.875349
_cell_length_c                    14.619968
_cell_angle_alpha                 89.807493
_cell_angle_beta                  89.958282
_cell_angle_gamma                 89.93347
_cell_volume                      6459.39230833

loop_
_atom_site_label
_atom_site_type_symbol
_atom_site_description
_atom_site_fract_x
_atom_site_fract_y
_atom_site_fract_z
_atom_type_partial_charge
O1    O     O_R   0.500010 0.379080 0.576170 -0.562163
O2    O     O_R   0.499990 0.620920 0.423830 -0.569016
O3    O     O_R   0.500000 0.379080 0.423800 -0.573406
O4    O     O_R   0.500000 0.620920 0.576200 -0.573745
C1    C     C_R   0.499822 0.339478 0.500131 0.829474
C2    C     C_R   0.500068 0.660457 0.499917 0.831298
O5    O     O_R   0.430270 0.500020 0.576180 -0.580534
O6    O     O_R   0.569730 0.499980 0.423820 -0.578761
O7    O     O_R   0.430260 0.500010 0.423810 -0.578165
O8    O     O_R   0.569740 0.499990 0.576190 -0.580097
C3    C     C_R   0.407235 0.500255 0.500038 0.803202
C4    C     C_R   0.592773 0.500005 0.499976 0.805628
Cu1   Cu    Cu3+1 0.500010 0.500000 0.590220 0.968182
Cu2   Cu    Cu3+1 0.499990 0.500000 0.409780 0.963242
C5    C     C_R   0.178464 0.425409 0.488284 0.550856
C6    C     C_R   0.821591 0.576097 0.493392 0.547805
O9    O     O_2   0.204320 0.354309 0.476931 -0.512983
O10   O     O_2   0.795818 0.648102 0.492059 -0.521426
N1    N     N_R   0.202018 0.500258 0.498205 -0.474885
N2    N     N_R   0.798002 0.500746 0.496989 -0.474408
C7    C     C_R   0.177794 0.574561 0.506635 0.517501
C8    C     C_R   0.822191 0.425964 0.497996 0.516514
C9    C     C_R   0.278820 0.509603 0.418336 -0.131439
C10   C     C_R   0.721144 0.497167 0.417177 -0.143199
C11   C     C_R   0.328838 0.509324 0.418009 -0.226866
C12   C     C_R   0.671137 0.497211 0.417149 -0.223234
C13   C     C_R   0.328969 0.492044 0.582824 -0.239560
C14   C     C_R   0.671126 0.503081 0.582826 -0.241913
C15   C     C_R   0.278594 0.491470 0.583887 0.127283
C16   C     C_R   0.721509 0.503350 0.583651 0.131143
C17   C     C_R   0.253506 0.500756 0.500521 0.344281
C18   C     C_R   0.746522 0.500123 0.499665 0.347420
C19   C     C_R   0.101979 0.499308 0.497171 -0.114767
C20   C     C_R   0.898030 0.501589 0.493851 -0.111694
C21   C     C_R   0.127727 0.422753 0.489424 -0.121300
C22   C     C_R   0.872305 0.578409 0.491472 -0.121063
C23   C     C_R   0.102187 0.346366 0.483057 0.492915
C24   C     C_R   0.897922 0.654762 0.486417 0.462426
C25   C     C_R   0.127464 0.575589 0.505866 0.009117
C26   C     C_R   0.872527 0.424922 0.496682 0.007719
C27   C     C_R   0.354340 0.500586 0.500237 -0.065528
C28   C     C_R   0.645683 0.500096 0.499949 -0.064537
H1    H     H_    0.348300 0.485369 0.646762 0.157891
H2    H     H_    0.651861 0.505155 0.647225 0.157703
C29   C     C_R   0.974363 0.423209 0.493088 0.088625
C30   C     C_R   0.025634 0.577756 0.501251 0.087670
C31   C     C_R   0.974605 0.578441 0.495291 -0.024182
C32   C     C_R   0.025420 0.422962 0.489391 -0.022567
C33   C     C_R   0.949170 0.501133 0.493788 0.064142
C34   C     C_R   0.050843 0.499939 0.496197 0.066179
C35   C     C_R   0.947438 0.347789 0.497982 -0.213190
C36   C     C_R   0.052557 0.652496 0.512755 -0.213489
C37   C     C_R   0.897623 0.348818 0.499375 -0.155827
C38   C     C_R   0.102362 0.651268 0.514648 -0.156573
O11   O     O_2   0.797483 0.352877 0.500832 -0.549879
O12   O     O_2   0.202473 0.647184 0.515895 -0.551183
C39   C     C_R   0.052010 0.347861 0.478662 -0.311771
C40   C     C_R   0.948011 0.654178 0.490033 -0.298152
H3    H     H_    0.652442 0.494879 0.352268 0.162333
H4    H     H_    0.347510 0.516230 0.353402 0.163229
H5    H     H_    0.740383 0.494961 0.352815 0.136266
H6    H     H_    0.259531 0.516459 0.354435 0.141344
H7    H     H_    0.878801 0.289195 0.503184 0.182458
H8    H     H_    0.121182 0.710432 0.523198 0.182168
H9    H     H_    0.963716 0.286420 0.503460 0.135765
H10   H     H_    0.036337 0.713396 0.522420 0.139600
H11   H     H_    0.034969 0.288433 0.464712 0.148506
H12   H     H_    0.964902 0.715046 0.486506 0.151045
C41   C     C_3   0.536373 0.972499 0.538127 -0.024852
C42   C     C_3   0.453263 0.028985 0.463332 -0.046408
C43   C     C_3   0.532342 0.027311 0.450814 0.005220
C44   C     C_3   0.456625 0.972627 0.551011 -0.035077
C45   C     C_1   0.498458 0.249999 0.500459 -0.180359
C46   C     C_1   0.498958 0.749800 0.499951 -0.210390
C47   C     C_3   0.498490 0.028002 0.586779 0.448206
C48   C     C_3   0.490746 0.972400 0.415492 0.447261
C49   C     C_3   0.495169 0.082952 0.499805 -0.029144
C50   C     C_3   0.494830 0.916561 0.501719 -0.056151
C51   C     C_1   0.496968 0.174640 0.500457 0.003658
C52   C     C_1   0.497312 0.825091 0.500622 -0.047894
C53   C     C_3   0.483024 0.573317 0.969155 0.161830
C54   C     C_3   0.517040 0.427605 0.030716 0.162638
C55   C     C_3   0.454754 0.511264 0.030861 -0.190339
C56   C     C_3   0.545298 0.489682 0.969070 -0.186949
H13   H     H_    0.417491 0.520849 0.055912 0.130010
H14   H     H_    0.582578 0.480308 0.944017 0.127567
H15   H     H_    0.449219 0.384664 0.944705 0.130126
H16   H     H_    0.550914 0.616083 0.055332 0.127927
N3    N     N_1   0.499980 0.500000 0.274190 -0.155353
N4    N     N_1   0.500020 0.500000 0.725810 -0.156462
C57   C     C_3   0.528040 0.563688 0.030529 -0.188422
C58   C     C_3   0.472019 0.437194 0.969428 -0.184614
C59   C     C_3   0.499965 0.500783 0.091508 0.030141
C60   C     C_3   0.500078 0.500101 0.908426 0.029850
C61   C     C_1   0.499962 0.500414 0.194168 0.092722
C62   C     C_1   0.500055 0.500004 0.805815 0.100375
C63   C     C_3   0.581919 0.934586 0.580498 -0.383247
C64   C     C_3   0.616416 0.002507 0.615081 -0.331175
C65   C     C_3   0.660275 0.963045 0.660825 -0.852337
H17   H     H_    0.649140 0.924463 0.720715 0.252405
H18   H     H_    0.680003 0.922644 0.611508 0.259998
H19   H     H_    0.684773 0.013512 0.684787 0.248290
H20   H     H_    0.628745 0.042325 0.557210 0.222083
H21   H     H_    0.597951 0.043557 0.665374 0.246947
H22   H     H_    0.571497 0.892407 0.637835 0.188052
H23   H     H_    0.600151 0.894770 0.528760 0.196022
C66   C     C_3   0.411150 0.073933 0.415148 -0.367013
C67   C     C_3   0.364399 0.023165 0.411952 -0.371147
C68   C     C_3   0.329572 0.059907 0.341762 -0.820983
H24   H     H_    0.321450 0.126741 0.358030 0.263638
H25   H     H_    0.345223 0.056057 0.271971 0.246957
H26   H     H_    0.295507 0.023568 0.342929 0.247559
H27   H     H_    0.371462 0.956570 0.394255 0.208000
H28   H     H_    0.346704 0.025623 0.479982 0.220251
H29   H     H_    0.403521 0.134097 0.451013 0.199080
H30   H     H_    0.423056 0.089961 0.344610 0.214195
O13   O     O_3   0.489476 0.945683 0.323339 -0.622464
C69   C     C_3   0.452746 0.885854 0.308343 0.067916
H31   H     H_    0.425573 0.914369 0.261957 0.155438
H32   H     H_    0.433497 0.865422 0.371399 0.134382
C70   C     C_3   0.474397 0.808405 0.261921 -0.334178
H33   H     H_    0.487323 0.826030 0.192517 0.212961
H34   H     H_    0.505683 0.785500 0.302124 0.234979
C71   C     C_3   0.437760 0.737334 0.254153 -0.905730
H35   H     H_    0.425062 0.717852 0.323102 0.265083
H36   H     H_    0.454741 0.682046 0.220833 0.254815
H37   H     H_    0.406530 0.758096 0.212504 0.247682
O14   O     O_3   0.504081 0.070765 0.670896 -0.611601
C72   C     C_3   0.499003 0.015326 0.745585 0.046305
H38   H     H_    0.518765 0.955386 0.734795 0.130683
H39   H     H_    0.460330 0.002648 0.757586 0.167865
C73   C     C_3   0.519251 0.057020 0.831317 -0.323804
H40   H     H_    0.558198 0.069599 0.821533 0.215659
H41   H     H_    0.500697 0.118108 0.843026 0.228707
C74   C     C_3   0.512492 0.000820 0.915289 -0.939715
H42   H     H_    0.473652 0.989647 0.927911 0.257796
H43   H     H_    0.528006 0.031911 0.976346 0.263451
H44   H     H_    0.530945 0.939437 0.905328 0.255528
C75   C     C_3   0.463497 0.656843 0.932456 -0.422731
C76   C     C_3   0.451899 0.717579 0.010567 -0.341621
C77   C     C_3   0.431569 0.800509 0.974548 -0.860637
H45   H     H_    0.456589 0.829302 0.924196 0.259599
H46   H     H_    0.396208 0.789658 0.941571 0.255721
H47   H     H_    0.426480 0.844959 0.032260 0.245395
H48   H     H_    0.425059 0.688338 0.057092 0.222721
H49   H     H_    0.485096 0.730911 0.050123 0.220091
H50   H     H_    0.490871 0.685448 0.886545 0.196783
H51   H     H_    0.430529 0.644170 0.891940 0.197447
C78   C     C_3   0.536663 0.344313 0.067709 -0.418512
C79   C     C_3   0.551500 0.285100 0.990100 -0.338896
C80   C     C_3   0.572193 0.203022 0.027820 -0.850581
H52   H     H_    0.604195 0.215929 0.070908 0.255097
H53   H     H_    0.544791 0.169433 0.069431 0.255122
H54   H     H_    0.583288 0.161895 0.970275 0.243953
H55   H     H_    0.519790 0.270410 0.946815 0.217398
H56   H     H_    0.579123 0.316026 0.946550 0.218696
H57   H     H_    0.568230 0.357909 0.111755 0.198341
H58   H     H_    0.508490 0.313877 0.110353 0.199222
C81   C     C_3   0.252744 0.480695 0.674230 -0.405602
C82   C     C_3   0.258067 0.390273 0.710033 -0.352157
C83   C     C_3   0.229577 0.377243 0.798128 -0.847939
H59   H     H_    0.242327 0.421156 0.851873 0.257185
H60   H     H_    0.190678 0.388059 0.785717 0.254792
H61   H     H_    0.234600 0.311623 0.822850 0.243575
H62   H     H_    0.244895 0.345323 0.657694 0.242828
H63   H     H_    0.296534 0.376194 0.723709 0.218144
H64   H     H_    0.267939 0.525626 0.724692 0.197286
H65   H     H_    0.213950 0.495875 0.667759 0.205504
C84   C     C_3   0.747438 0.506752 0.674445 -0.407145
C85   C     C_3   0.743612 0.594763 0.716727 -0.339390
C86   C     C_3   0.770689 0.599250 0.807274 -0.837772
H66   H     H_    0.755614 0.553166 0.856887 0.250520
H67   H     H_    0.809438 0.585596 0.796494 0.259842
H68   H     H_    0.767131 0.663473 0.836379 0.244674
H69   H     H_    0.758948 0.642204 0.668884 0.261416
H70   H     H_    0.705280 0.610888 0.729112 0.212964
H71   H     H_    0.731461 0.459294 0.721567 0.195568
H72   H     H_    0.785964 0.489997 0.666755 0.209767
O15   O     O_3   0.126222 0.270260 0.473369 -0.563486
C87   C     C_3   0.118469 0.218132 0.550985 0.070712
H73   H     H_    0.123806 0.151800 0.529211 0.166464
H74   H     H_    0.081185 0.221772 0.578570 0.112866
C88   C     C_3   0.154875 0.237872 0.626548 -0.322310
H75   H     H_    0.191859 0.228144 0.599921 0.250564
H76   H     H_    0.151039 0.304642 0.647925 0.211247
C89   C     C_3   0.147433 0.181288 0.709880 -0.934806
H77   H     H_    0.111027 0.191268 0.739125 0.259445
H78   H     H_    0.174541 0.196703 0.762896 0.261237
H79   H     H_    0.151664 0.114046 0.690666 0.259023
O16   O     O_3   0.874376 0.731502 0.483619 -0.569075
C90   C     C_3   0.873081 0.760084 0.392053 0.086970
H80   H     H_    0.855479 0.712599 0.347086 0.147225
H81   H     H_    0.910095 0.772802 0.366402 0.119305
C91   C     C_3   0.844120 0.841808 0.387631 -0.288687
H82   H     H_    0.807280 0.830338 0.414332 0.245462
H83   H     H_    0.861592 0.890088 0.431302 0.217625
C92   C     C_3   0.840683 0.875207 0.289882 -0.939991
H84   H     H_    0.877117 0.887842 0.261961 0.257640
H85   H     H_    0.819819 0.934886 0.289229 0.261734
H86   H     H_    0.822128 0.828806 0.245511 0.258821
C93   C     C_3   0.571653 0.065056 0.389698 -0.355126
C94   C     C_3   0.604467 0.997693 0.348042 -0.326346
C95   C     C_3   0.638514 0.036306 0.277659 -0.850564
H87   H     H_    0.617820 0.064926 0.220470 0.256995
H88   H     H_    0.661211 0.085378 0.310054 0.258081
H89   H     H_    0.662300 0.986524 0.249478 0.244199
H90   H     H_    0.626336 0.967642 0.402453 0.213424
H91   H     H_    0.582747 0.948206 0.314092 0.254946
H92   H     H_    0.553747 0.101051 0.333945 0.210020
H93   H     H_    0.593393 0.110112 0.430197 0.183849
C96   C     C_3   0.412883 0.939402 0.604555 -0.396570
C97   C     C_3   0.423498 0.860269 0.662076 -0.340911
C98   C     C_3   0.385757 0.847467 0.736470 -0.867130
H94   H     H_    0.387373 0.899557 0.786912 0.249528
H95   H     H_    0.349250 0.845022 0.705926 0.264471
H96   H     H_    0.392722 0.787009 0.772487 0.247891
H97   H     H_    0.422832 0.804075 0.617093 0.230289
H98   H     H_    0.459462 0.863154 0.694173 0.207342
H99   H     H_    0.398704 0.991306 0.647630 0.206194
H100  H     H_    0.384430 0.921502 0.555584 0.190881

loop_
_geom_bond_atom_site_label_1
_geom_bond_atom_site_label_2
_geom_bond_distance
_ccdc_geom_bond_type
C74   H44   1.110965 S    
C91   H83   1.111834 S    
C95   H87   1.111196 S    
O16   C90   1.412523 S    
Cu1   N4    1.982322 S    
C13   C15   1.402086 A    
C84   C85   1.533297 S    
C84   H72   1.110127 S    
C88   H75   1.110990 S    
N1    C17   1.433414 S    
O14   C72   1.407322 S    
C90   H81   1.114429 S    
C63   C64   1.531935 S    
C32   C39   1.411633 A    
C15   C81   1.512866 S    
C85   H70   1.111665 S    
C98   H94   1.110823 S    
C81   H65   1.110013 S    
O5    C3    1.284992 A    
C96   H100  1.105934 S    
C86   H67   1.110984 S    
C75   H50   1.111388 S    
C10   H5    1.082955 S    
C38   H8    1.083599 S    
O1    C1    1.278999 A    
C25   C38   1.395302 A    
N1    C7    1.363863 A    
C10   C12   1.391735 A    
C42   C66   1.541114 S    
C77   H46   1.110078 S    
N2    C18   1.433263 S    
C43   C48   1.540451 S    
C50   C52   1.453831 S    
C98   H96   1.110122 S    
C44   C96   1.539604 S    
C97   H97   1.110263 S    
C29   C35   1.414776 A    
C64   H20   1.108885 S    
C55   C59   1.548273 S    
C30   C36   1.414604 A    
C54   C58   1.547980 S    
C67   C68   1.526060 S    
C70   H34   1.111047 S    
C53   C75   1.528227 S    
C47   O14   1.415480 S    
C35   H9    1.076722 S    
C80   H54   1.110073 S    
C67   H28   1.110322 S    
O4    Cu1   1.929874 S    
C92   H85   1.110635 S    
C69   H31   1.111116 S    
C70   C71   1.526177 S    
C44   C50   1.563029 S    
C68   H25   1.110991 S    
C53   C55   1.548584 S    
C24   C40   1.395068 A    
C77   H45   1.110613 S    
C9    H6    1.082927 S    
C65   H17   1.110999 S    
C36   C38   1.386531 A    
C73   H40   1.111450 S    
C24   O16   1.383158 S    
C4    C28   1.472524 S    
C66   C67   1.532123 S    
C41   C47   1.547539 S    
C11   H4    1.083038 S    
C82   H63   1.111522 S    
C92   H84   1.111022 S    
C12   H3    1.082984 S    
C55   H13   1.110059 S    
C87   C88   1.532937 S    
C6    N2    1.366040 A    
C72   C73   1.527786 S    
C63   H22   1.109728 S    
C32   C34   1.416616 A    
C91   H82   1.111805 S    
C80   H52   1.110921 S    
C59   C61   1.500881 S    
C54   C59   1.539600 S    
C94   H91   1.110472 S    
Cu1   Cu2   2.638027 S    
C42   C49   1.544294 S    
C80   H53   1.110910 S    
C41   C50   1.554052 S    
O2    C2    1.279088 A    
C39   H11   1.076598 S    
C44   C47   1.552463 S    
C5    O9    1.348552 S    
C93   H92   1.111782 S    
C83   H60   1.110900 S    
C87   H74   1.114515 S    
C2    C46   1.418658 S    
C85   H69   1.111478 S    
C98   H95   1.110905 S    
C23   O15   1.387955 S    
C86   H68   1.110406 S    
C75   H51   1.111385 S    
C41   C43   1.546537 S    
C94   C95   1.525819 S    
C90   H80   1.115853 S    
C95   H89   1.110446 S    
C74   H42   1.110820 S    
C76   C77   1.524720 S    
C31   C33   1.417749 A    
C88   C89   1.525398 S    
C11   C27   1.402900 A    
C56   C60   1.548377 S    
C19   C34   1.423261 A    
C14   H2    1.083704 S    
C73   H41   1.111882 S    
O15   C87   1.418725 S    
C35   C37   1.386615 A    
C69   C70   1.529292 S    
C9    C17   1.399151 A    
C67   H27   1.106595 S    
N3    C61   1.169917 T    
C92   H86   1.111158 S    
C5    N1    1.365935 A    
O7    Cu2   1.951296 S    
C10   C18   1.398968 A    
C16   C84   1.512492 S    
C46   C52   1.196164 T    
C55   C58   1.557373 S    
C57   C59   1.548356 S    
C95   H88   1.110981 S    
C13   C27   1.404529 A    
C81   C82   1.533319 S    
C7    C25   1.400856 A    
H16   C57   1.110063 S    
C29   C33   1.421303 A    
O6    C4    1.285297 A    
C8    C26   1.401085 A    
C58   C60   1.548347 S    
C45   C51   1.197126 T    
C49   C51   1.456550 S    
C19   C25   1.410282 A    
C82   H62   1.110778 S    
C53   C57   1.548655 S    
C60   C62   1.500170 S    
O7    C3    1.285158 A    
C86   H66   1.110895 S    
C66   H29   1.111307 S    
C70   H33   1.111355 S    
O3    Cu2   1.929875 S    
O8    C4    1.285068 A    
C71   H37   1.110683 S    
C63   H23   1.109529 S    
O4    C2    1.277913 A    
C56   C57   1.556766 S    
N2    C8    1.364155 A    
C26   C37   1.395294 A    
C54   C56   1.548153 S    
C94   H90   1.108284 S    
C84   H71   1.112107 S    
C42   C48   1.544460 S    
C74   H43   1.109456 S    
C20   C26   1.410137 A    
C68   H26   1.110446 S    
O1    Cu1   1.931294 S    
C76   H49   1.111249 S    
C93   H93   1.110261 S    
C43   C49   1.537728 S    
C83   H61   1.110226 S    
C36   H10   1.076232 S    
C87   H73   1.110905 S    
C12   C28   1.402985 A    
C71   H36   1.110237 S    
C72   H38   1.110197 S    
C78   H58   1.111346 S    
C29   C32   1.421961 A    
C21   C23   1.409727 A    
C43   C93   1.533254 S    
C30   C31   1.422950 A    
C20   C33   1.423277 A    
O6    Cu2   1.951888 S    
C14   C28   1.404809 A    
C65   H18   1.111020 S    
C48   C50   1.542857 S    
O3    C1    1.279032 A    
O8    Cu1   1.951296 S    
C76   H48   1.110891 S    
C7    O12   1.349942 S    
C42   C44   1.563547 S    
C75   C76   1.531054 S    
N4    C62   1.169678 T    
C8    O11   1.349924 S    
C77   H47   1.110625 S    
C96   H99   1.110695 S    
C30   C34   1.422098 A    
O13   C69   1.413909 S    
C48   O13   1.414295 S    
C93   C94   1.532923 S    
C79   H55   1.111749 S    
C82   C83   1.525572 S    
C89   H79   1.110837 S    
C88   H76   1.111116 S    
C90   C91   1.527794 S    
C14   C16   1.402266 A    
C15   C17   1.412286 A    
C83   H59   1.110834 S    
C78   C79   1.532040 S    
C6    C22   1.412179 A    
C31   C40   1.413062 A    
C16   C18   1.412084 A    
C53   C60   1.539345 S    
C37   H7    1.083584 S    
C40   H12   1.076126 S    
C97   H98   1.106811 S    
C73   C74   1.526849 S    
C64   H21   1.109657 S    
C22   C24   1.408670 A    
C19   C21   1.414969 A    
C81   H64   1.112028 S    
C3    C27   1.472106 S    
C20   C22   1.413782 A    
C9    C11   1.392028 A    
C1    C45   1.421054 S    
Cu2   N3    1.982322 S    
O2    Cu2   1.931290 S    
C69   H32   1.113434 S    
C66   H30   1.111753 S    
C5    C21   1.412825 A    
C54   C78   1.527476 S    
C96   C97   1.537887 S    
C91   C92   1.525634 S    
C13   H1    1.083688 S    
O5    Cu1   1.951888 S    
C65   H19   1.110388 S    
C97   C98   1.524756 S    
C6    O10   1.348907 S    
C64   C65   1.525206 S    
C85   C86   1.525634 S    
C47   C49   1.542372 S    
C68   H24   1.111064 S    
C79   C80   1.525623 S    
C56   H14   1.110048 S    
C79   H56   1.111535 S    
C78   H57   1.111415 S    
C89   H77   1.110838 S    
H15   C58   1.110083 S    
C89   H78   1.110150 S    
C23   C39   1.398158 A    
C71   H35   1.110995 S    
C72   H39   1.108911 S    
C41   C63   1.532849 S    
