data_mof_unit_31856.cif
_audit_creation_date              2012-12-10T17:58:20-0500
_audit_creation_method            fapswitch 2.2
_symmetry_space_group_name_H-M    P1
_symmetry_Int_Tables_number       1
_space_group_crystal_system       triclinic
_cell_length_a                    9.528764
_cell_length_b                    10.771901
_cell_length_c                    15.413317
_cell_angle_alpha                 90.099126
_cell_angle_beta                  74.655433
_cell_angle_gamma                 90.333546
_cell_volume                      1525.64396921

loop_
_atom_site_label
_atom_site_type_symbol
_atom_type_description
_atom_site_fract_x
_atom_site_fract_y
_atom_site_fract_z
_atom_type_partial_charge
C1    C     C_R   0.998695 0.262343 0.502130 0.851047
C2    C     C_R   0.001214 0.737685 0.498219 0.852504
C3    C     C_R   0.573313 0.582058 0.089364 -0.288072
C4    C     C_R   0.419008 0.473986 0.904135 -0.281435
C5    C     C_R   0.717661 0.608220 0.043809 0.408539
C6    C     C_R   0.273555 0.451833 0.948423 0.390894
C7    C     C_R   0.884821 0.061486 0.560992 0.264103
C8    C     C_R   0.115596 0.938599 0.440026 0.271974
C9    C     C_R   0.887147 0.932909 0.557741 -0.236278
C10   C     C_R   0.113154 0.067139 0.443219 -0.235097
C11   C     C_R   0.001965 0.871472 0.497995 -0.130963
C12   C     C_R   0.998126 0.128577 0.502751 -0.129801
C13   C     C_R   0.546381 0.435874 0.563876 0.007265
C14   C     C_R   0.453605 0.564146 0.436148 0.006078
C15   C     C_R   0.397700 0.435921 0.563872 -0.016225
C16   C     C_R   0.602283 0.564089 0.436148 -0.018044
C17   C     C_R   0.918554 0.502079 0.672186 0.807371
C18   C     C_R   0.081534 0.499487 0.327637 0.812587
C19   C     C_R   0.873787 0.517193 0.770035 -0.084671
C20   C     C_R   0.126315 0.495817 0.228897 -0.063533
C21   C     C_R   0.916419 0.596176 0.907468 -0.126777
C22   C     C_R   0.076908 0.451546 0.086166 -0.127858
C23   C     C_R   0.967557 0.569079 0.816289 -0.168656
C24   C     C_R   0.027976 0.465056 0.179111 -0.169825
C25   C     C_R   0.729844 0.490646 0.815773 -0.197328
C26   C     C_R   0.272284 0.518139 0.184626 -0.188222
C27   C     C_R   0.672449 0.524972 0.906218 0.046457
C28   C     C_R   0.324388 0.508533 0.090595 0.050472
C29   C     C_R   0.769253 0.576051 0.952975 0.039387
C30   C     C_R   0.224610 0.470801 0.041378 0.045203
C31   C     C_R   0.522137 0.509306 0.950961 0.007554
C32   C     C_R   0.473042 0.532594 0.044811 0.008893
Cu1   Cu    Cu3+1 0.140660 0.500020 0.500000 0.969957
Cu2   Cu    Cu3+1 0.859340 0.499980 0.500000 0.974416
H1    H     H_    0.343954 0.539246 0.225988 0.154788
H2    H     H_    0.665082 0.442652 0.778605 0.158966
H3    H     H_    0.914342 0.447642 0.212175 0.165958
H4    H     H_    0.079598 0.590520 0.781752 0.175241
H5    H     H_    0.992052 0.635477 0.941622 0.187346
H6    H     H_    0.998902 0.424183 0.049690 0.184704
H7    H     H_    0.543399 0.605609 0.159654 0.152211
H8    H     H_    0.445980 0.466495 0.831947 0.152071
H9    H     H_    0.800876 0.880652 0.603240 0.184037
H10   H     H_    0.199511 0.119380 0.397774 0.182715
H11   H     H_    0.579642 0.384334 0.615104 0.158174
H12   H     H_    0.420335 0.615695 0.384932 0.158506
H13   H     H_    0.319482 0.384358 0.614969 0.126390
H14   H     H_    0.680512 0.615635 0.385046 0.130849
N1    N     N_R   0.352080 0.500030 0.499980 -0.164893
N2    N     N_R   0.647920 0.499970 0.500020 -0.165486
O1    O     O_R   0.118740 0.319660 0.500000 -0.586012
O2    O     O_R   0.881260 0.680340 0.500000 -0.584782
O3    O     O_R   0.881170 0.319630 0.500010 -0.544194
O4    O     O_R   0.118830 0.680370 0.499990 -0.544777
O5    O     O_R   0.055570 0.500030 0.629830 -0.597740
O6    O     O_R   0.944430 0.499970 0.370170 -0.591026
O7    O     O_R   0.818000 0.500000 0.629840 -0.578592
O8    O     O_R   0.182000 0.500000 0.370160 -0.584079
O9    O     O_3   0.812583 0.654201 0.090689 -0.629870
C33   C     C_3   0.780974 0.779996 0.114733 0.060469
H15   H     H_    0.814308 0.797781 0.177490 0.180973
H16   H     H_    0.662845 0.802647 0.130247 0.149024
C34   C     C_3   0.868499 0.866586 0.041004 -0.372020
H17   H     H_    0.986186 0.844520 0.027089 0.229270
H18   H     H_    0.834095 0.852258 0.978215 0.217887
C35   C     C_3   0.845705 0.002580 0.068897 -0.878167
H19   H     H_    0.728981 0.027326 0.081761 0.264161
H20   H     H_    0.910173 0.062815 0.014171 0.251588
H21   H     H_    0.882052 0.020088 0.130633 0.260197
O10   O     O_3   0.176647 0.420038 0.899086 -0.628882
C36   C     C_3   0.194212 0.293429 0.874922 0.028142
H22   H     H_    0.173733 0.234039 0.936247 0.146844
H23   H     H_    0.305875 0.275654 0.831486 0.159016
C37   C     C_3   0.084558 0.258529 0.822195 -0.317215
H24   H     H_    0.972311 0.275255 0.864688 0.234414
H25   H     H_    0.103327 0.317905 0.761274 0.227746
C38   C     C_3   0.098559 0.122693 0.793073 -0.886056
H26   H     H_    0.208977 0.104821 0.748604 0.265865
H27   H     H_    0.017124 0.100831 0.755274 0.277788
H28   H     H_    0.078670 0.060898 0.852752 0.252206
Br1   Br    Br    0.730769 0.139731 0.650043 -0.593729
Br2   Br    Br    0.270435 0.860584 0.351351 -0.581942

loop_
_geom_bond_atom_site_label_1
_geom_bond_atom_site_label_2
_ccdc_geom_bond_type
Cu1   O5    S    
C35   H20   S    
C34   H18   S    
Cu2   O6    S    
Cu1   O8    S    
C27   C29   A    
C10   H10   S    
C15   H13   S    
C16   H14   S    
C14   H12   S    
C38   H26   S    
C37   H25   S    
C33   C34   S    
C8    Br2   S    
C16   N2    A    
C35   H21   S    
Cu1   N1    S    
C33   H16   S    
C1    O3    A    
C18   O8    A    
C20   C24   A    
C37   C38   S    
Cu2   O7    S    
O10   C36   S    
C14   C16   A    
C17   O5    A    
C18   O6    A    
C35   H19   S    
C34   C35   S    
O9    C33   S    
C1    C12   S    
C2    C11   S    
C10   C12   A    
C24   H3    S    
C5    C29   A    
C38   H27   S    
C21   C23   A    
C7    C12   A    
Cu2   N2    S    
C9    H9    S    
C37   H24   S    
C5    O9    S    
C27   C31   A    
C28   C32   A    
C4    C6    A    
C2    O4    A    
C36   H23   S    
C3    C5    A    
C21   C29   A    
C13   N2    A    
C33   H15   S    
C19   C23   A    
C9    C11   A    
C31   C32   A    
C21   H5    S    
C22   H6    S    
Cu1   Cu2   S    
C1    O1    A    
C2    O2    A    
C7    Br1   S    
C13   C15   A    
C22   C24   A    
Cu1   O1    S    
C38   H28   S    
Cu1   O4    S    
C6    O10   S    
C3    H7    S    
C22   C30   A    
C6    C30   A    
Cu2   O2    S    
C20   C26   A    
C36   C37   S    
C25   C27   A    
C23   H4    S    
C26   C28   A    
C28   C30   A    
C36   H22   S    
C13   H11   S    
C4    H8    S    
C8    C11   A    
C17   C19   S    
C18   C20   S    
C15   N1    A    
C3    C32   A    
C19   C25   A    
C4    C31   A    
C25   H2    S    
C34   H17   S    
C14   N1    A    
C7    C9    A    
C26   H1    S    
Cu2   O3    S    
C8    C10   A    
C17   O7    A    
