data_mof_unit_55044.cif
_audit_creation_date              2012-12-11T15:59:28-0500
_audit_creation_method            fapswitch 2.2
_symmetry_space_group_name_H-M    P1
_symmetry_Int_Tables_number       1
_space_group_crystal_system       triclinic
_cell_length_a                    10.766023
_cell_length_b                    10.830435
_cell_length_c                    17.052569
_cell_angle_alpha                 99.674824
_cell_angle_beta                  100.356066
_cell_angle_gamma                 60.315046
_cell_volume                      1691.97342954

loop_
_atom_site_label
_atom_site_type_symbol
_atom_type_description
_atom_site_fract_x
_atom_site_fract_y
_atom_site_fract_z
_atom_type_partial_charge
C1    C     C_R   0.355540 0.767125 0.397062 0.596222
C2    C     C_R   0.837921 0.218349 0.194009 0.000831
C3    C     C_R   0.860775 0.219740 0.278280 0.025142
C4    C     C_R   0.785850 0.473165 0.285741 -0.165017
C5    C     C_R   0.786490 0.464731 0.204500 -0.169543
C6    C     C_R   0.831640 0.100496 0.148043 -0.075671
C7    C     C_R   0.866163 0.980485 0.184263 -0.177021
C8    C     C_R   0.914011 0.973458 0.265891 -0.078480
C9    C     C_R   0.915673 0.090287 0.312930 0.237559
C10   C     C_R   0.822097 0.351615 0.323782 0.024500
C11   C     C_R   0.358946 0.817422 0.157921 -0.040031
C12   C     C_R   0.365537 0.342513 0.358860 0.572273
C13   C     C_R   0.442908 0.857909 0.219438 0.001758
C14   C     C_R   0.425437 0.860470 0.299700 -0.028465
C15   C     C_R   0.271842 0.747112 0.253705 0.253806
C16   C     C_R   0.290526 0.747701 0.174991 -0.142842
C17   C     C_R   0.540890 0.899295 0.203955 -0.100463
C18   C     C_R   0.608119 0.953361 0.265939 -0.136102
C19   C     C_R   0.589219 0.958331 0.344576 -0.096901
C20   C     C_R   0.493374 0.919140 0.361416 -0.086939
C21   C     C_R   0.341381 0.803680 0.316467 0.042872
C22   C     C_R   0.299484 0.278413 0.799423 -0.006427
C23   C     C_R   0.773298 0.379447 0.402478 0.604231
C24   C     C_R   0.426381 0.178239 0.763483 0.039718
C25   C     C_R   0.478950 0.226916 0.713465 0.036900
C26   C     C_R   0.248919 0.446659 0.706270 -0.140731
C27   C     C_R   0.210717 0.411467 0.769357 -0.145702
C28   C     C_R   0.506718 0.032884 0.779149 -0.084480
C29   C     C_R   0.645825 0.947029 0.758050 -0.111721
C30   C     C_R   0.707624 0.004731 0.721221 -0.109929
C31   C     C_R   0.625210 0.143539 0.699168 -0.080266
C32   C     C_R   0.381757 0.354109 0.676861 -0.002580
C33   C     C_1   0.846690 0.329206 0.705598 -0.052234
C34   C     C_R   0.358343 0.768946 0.627486 0.558517
C35   C     C_1   0.893339 0.293914 0.772361 -0.053388
C36   C     C_1   0.339648 0.809277 0.709649 -0.051721
C37   C     C_1   0.313040 0.837202 0.777590 -0.060271
C38   C     C_R   0.889152 0.310732 0.086128 0.548284
C39   C     C_R   0.291054 0.258903 0.121681 0.574025
C40   C     C_R   0.299147 0.888130 0.084318 0.550867
C41   C     C_R   0.942769 0.273622 0.854976 0.543302
C42   C     C_R   0.278813 0.254018 0.876899 0.529304
C43   C     C_R   0.278897 0.884788 0.857343 0.538393
C44   C     C_R   0.408085 0.374887 0.600143 0.539118
C45   C     C_R   0.777663 0.378729 0.628962 0.556920
C46   C     C_1   0.324748 0.312158 0.277182 -0.034300
C47   C     C_1   0.306129 0.285185 0.206433 -0.061356
C48   C     C_R   0.822032 0.335242 0.158578 0.002868
Cr1   Cr    Cr6+3 0.608100 0.610860 0.522250 1.021901
Cr2   Cr    Cr6+3 0.288890 0.599990 0.488420 1.069885
Cr3   Cr    Cr6+3 0.603040 0.289190 0.489390 1.034432
Cr4   Cr    Cr6+3 0.053960 0.052250 0.967380 1.014512
Cr5   Cr    Cr6+3 0.059890 0.373160 0.992710 0.994771
Cr6   Cr    Cr6+3 0.373370 0.061690 0.991710 0.988490
H1    H     H_    0.752686 0.577608 0.318219 0.156623
H2    H     H_    0.670384 0.996905 0.252709 0.135816
H3    H     H_    0.646052 0.996361 0.392595 0.155771
H4    H     H_    0.472196 0.937621 0.423067 0.147875
H5    H     H_    0.174611 0.546256 0.680591 0.146395
H6    H     H_    0.463755 0.985266 0.808781 0.150835
H7    H     H_    0.112245 0.488340 0.794701 0.142492
H8    H     H_    0.706900 0.837283 0.772517 0.122247
H9    H     H_    0.817980 0.941040 0.707855 0.123258
H10   H     H_    0.676485 0.184222 0.670395 0.151289
H11   H     H_    0.793754 0.102929 0.084795 0.147874
H12   H     H_    0.765470 0.558495 0.178115 0.136391
H13   H     H_    0.851709 0.894814 0.149077 0.096582
H14   H     H_    0.940588 0.880931 0.294662 0.189252
H15   H     H_    0.571451 0.886798 0.145109 0.146461
H16   H     H_    0.240970 0.706486 0.124551 0.119254
O1    O     O_R   0.749810 0.499790 0.438040 -0.526937
O2    O     O_R   0.298970 0.468800 0.557390 -0.499421
O3    O     O_R   0.489400 0.255930 0.561910 -0.520702
O4    O     O_R   0.723890 0.306050 0.584610 -0.517240
O5    O     O_3   0.500010 0.500010 0.500020 -0.291537
O6    O     O_R   0.171100 0.914680 0.053100 -0.506955
O7    O     O_R   0.941680 0.184840 0.050710 -0.498341
O8    O     O_R   0.922080 0.403420 0.072610 -0.535400
O9    O     O_R   0.196880 0.369150 0.083850 -0.517392
O10   O     O_R   0.411730 0.181020 0.091530 -0.503186
O11   O     O_R   0.365010 0.944360 0.063320 -0.528226
O12   O     O_R   0.477660 0.726260 0.439290 -0.533629
O13   O     O_R   0.159380 0.906670 0.876210 -0.506295
O14   O     O_R   0.930820 0.177420 0.886730 -0.482566
O15   O     O_R   0.910360 0.395420 0.895720 -0.509617
O16   O     O_R   0.186010 0.361730 0.919870 -0.497244
O17   O     O_R   0.400000 0.173010 0.914630 -0.504974
O18   O     O_R   0.354140 0.936940 0.899340 -0.536374
O19   O     O_3   0.162410 0.162370 0.983930 -0.302024
O20   O     O_R   0.260150 0.743000 0.412270 -0.408469
O21   O     O_R   0.297740 0.466550 0.394720 -0.479603
O22   O     O_R   0.488080 0.253500 0.386430 -0.522227
O23   O     O_R   0.722670 0.303800 0.421940 -0.455779
O24   O     O_R   0.751130 0.502220 0.613520 -0.501364
O25   O     O_R   0.478890 0.728510 0.601960 -0.496138
O26   O     O_R   0.261470 0.745430 0.587750 -0.507590
Cl1   Cl    Cl    0.001807 0.063371 0.411744 -0.605323
O27   O     O_3   0.184148 0.697873 0.273565 -0.539791
C49   C     C_3   0.126760 0.634644 0.209163 -0.009255
H17   H     H_    0.216941 0.540165 0.183223 0.168394
H18   H     H_    0.063199 0.706738 0.161707 0.122748
C50   C     C_3   0.025828 0.595567 0.238464 -0.367150
H19   H     H_    0.915341 0.687252 0.237894 0.102083
H20   H     H_    0.020399 0.506612 0.198359 0.150920
H21   H     H_    0.063185 0.562679 0.300127 0.189366

loop_
_geom_bond_atom_site_label_1
_geom_bond_atom_site_label_2
_ccdc_geom_bond_type
C25   C31   A    
C1    C21   S    
C1    O20   A    
C33   C45   S    
C12   O21   A    
C19   C20   A    
Cr3   O4    S    
C7    C8    A    
C22   C42   S    
C19   H3    S    
C26   C32   A    
C26   C27   A    
C43   O18   A    
C14   C21   A    
C36   C37   T    
Cr5   O9    S    
Cr3   O5    S    
Cr6   O17   S    
C15   C16   A    
C43   O13   A    
C50   H21   S    
C18   C19   A    
Cr4   O14   S    
Cr2   O2    S    
C27   H7    S    
Cr3   O3    S    
C29   H8    S    
Cr2   O20   S    
C6    H11   S    
C8    C9    A    
Cr1   O5    S    
Cr5   O16   S    
C42   O16   A    
Cr1   O24   S    
C26   H5    S    
C38   C48   S    
C18   H2    S    
C25   C32   A    
C30   H9    S    
Cr4   O19   S    
C2    C6    A    
C45   O24   A    
C40   O11   A    
Cr6   O10   S    
C28   H6    S    
C5    C48   A    
C50   H19   S    
C14   C20   A    
C16   H16   S    
C34   O25   A    
Cr6   O19   S    
C12   C46   S    
C5    H12   S    
C38   O8    A    
C2    C48   A    
C1    O12   A    
C41   O14   A    
C7    H13   S    
Cr1   O25   S    
C23   O23   A    
C45   O4    A    
C39   O9    A    
Cr1   O12   S    
C37   C43   S    
Cr4   O13   S    
C29   C30   A    
C3    C9    A    
C23   O1    A    
Cr3   O22   S    
C11   C16   A    
C49   H17   S    
C17   C18   A    
C32   C44   S    
C24   C25   A    
C50   H20   S    
Cr3   O23   S    
C49   H18   S    
C8    H14   S    
C22   C27   A    
C4    H1    S    
Cr5   O19   S    
C22   C24   A    
C15   O27   S    
C4    C10   A    
Cr4   O7    S    
C39   C47   S    
C44   O3    A    
C46   C47   T    
C28   C29   A    
C9    Cl1   S    
C31   H10   S    
C12   O22   A    
C24   C28   A    
C34   O26   A    
C4    C5    A    
Cr4   O6    S    
C6    C7    A    
C38   O7    A    
C10   C23   S    
C41   O15   A    
C13   C17   A    
C39   O10   A    
C2    C3    A    
C3    C10   A    
Cr2   O5    S    
Cr6   O18   S    
C11   C13   A    
Cr2   O26   S    
C30   C31   A    
C33   C35   T    
C44   O2    A    
C34   C36   S    
C11   C40   S    
C35   C41   S    
Cr5   O8    S    
C40   O6    A    
Cr2   O21   S    
C15   C21   A    
C49   C50   S    
O27   C49   S    
Cr1   O1    S    
Cr5   O15   S    
C42   O17   A    
C17   H15   S    
C13   C14   A    
C20   H4    S    
Cr6   O11   S    
