data_mof_unit_46431.cif
_audit_creation_date              2012-10-26T17:13:03-0400
_audit_creation_method            fapswitch 2.2
_symmetry_space_group_name_H-M    P1
_symmetry_Int_Tables_number       1
_space_group_crystal_system       triclinic
_cell_length_a                    16.974323
_cell_length_b                    16.982041
_cell_length_c                    16.982041
_cell_angle_alpha                 67.913402
_cell_angle_beta                  68.371241
_cell_angle_gamma                 68.371242
_cell_volume                      4063.52748019

loop_
_atom_site_label
_atom_site_type_symbol
_atom_type_description
_atom_site_fract_x
_atom_site_fract_y
_atom_site_fract_z
_atom_type_partial_charge
Br1   Br    Br    0.266822 0.025191 0.828527 -0.432351
Br2   Br    Br    0.279436 0.832981 0.995205 -0.439655
Br3   Br    Br    0.963402 0.737153 0.173287 -0.427455
Br4   Br    Br    0.989407 0.283479 0.838224 -0.423393
Br5   Br    Br    0.720564 0.004795 0.167019 -0.439655
Br6   Br    Br    0.036598 0.826713 0.262847 -0.427455
Br7   Br    Br    0.010593 0.161776 0.716521 -0.423393
Br8   Br    Br    0.829818 0.269236 0.031703 -0.427181
Br9   Br    Br    0.158532 0.708127 0.020131 -0.423244
Br10  Br    Br    0.170182 0.968297 0.730764 -0.427181
Br11  Br    Br    0.841468 0.979869 0.291873 -0.423244
Br12  Br    Br    0.733177 0.171473 0.974809 -0.432351
C1    C     C_R   0.320379 0.962214 0.449686 -0.021354
C2    C     C_R   0.311671 0.433050 0.003322 -0.026238
C3    C     C_R   0.539648 0.407802 0.004774 -0.013190
C4    C     C_R   0.999961 0.463813 0.586189 -0.011218
C5    C     C_R   0.992836 0.543218 0.411093 -0.013436
C6    C     C_R   0.255170 0.968072 0.254924 0.095599
C7    C     C_R   0.206327 0.046647 0.207411 -0.037203
C8    C     C_R   0.163149 0.043097 0.153417 -0.107630
C9    C     C_R   0.170425 0.961976 0.144780 -0.020581
C10   C     C_R   0.219160 0.883922 0.191767 -0.047174
C11   C     C_R   0.259994 0.886584 0.248068 -0.061331
C12   C     C_R   0.718380 0.099149 0.713417 0.065502
C13   C     C_R   0.032860 0.681576 0.550156 -0.022547
C14   C     C_R   0.694866 0.191183 0.678501 -0.104050
C15   C     C_R   0.727693 0.243628 0.698463 -0.126185
C16   C     C_R   0.784478 0.204448 0.752901 -0.053696
C17   C     C_R   0.807904 0.112761 0.788164 -0.039755
C18   C     C_R   0.774260 0.060270 0.769374 -0.016355
C19   C     C_R   0.900361 0.280933 0.285854 0.064475
C20   C     C_R   0.940372 0.224601 0.230866 -0.014564
C21   C     C_R   0.889571 0.186315 0.215298 -0.035787
C22   C     C_R   0.798320 0.206677 0.251443 -0.051141
C23   C     C_R   0.757896 0.264717 0.303894 -0.125604
C24   C     C_R   0.995137 0.313773 0.437270 -0.025065
C25   C     C_R   0.808740 0.301388 0.321543 -0.104903
C26   C     C_R   0.099639 0.714146 0.719067 0.064475
C27   C     C_R   0.191260 0.678457 0.698612 -0.104902
C28   C     C_R   0.242103 0.696106 0.735283 -0.125604
C29   C     C_R   0.201680 0.748557 0.793323 -0.051142
C30   C     C_R   0.110429 0.784702 0.813685 -0.035787
C31   C     C_R   0.059628 0.769134 0.775399 -0.014564
C32   C     C_R   0.281620 0.286583 0.900851 0.065502
C33   C     C_R   0.305134 0.321498 0.808817 -0.104050
C34   C     C_R   0.272307 0.301536 0.756372 -0.126185
C35   C     C_R   0.453806 0.980402 0.457437 0.018271
C36   C     C_R   0.215522 0.247098 0.795552 -0.053696
C37   C     C_R   0.192096 0.211836 0.887239 -0.039755
C38   C     C_R   0.225740 0.230626 0.939730 -0.016355
C39   C     C_R   0.744830 0.745076 0.031928 0.095599
C40   C     C_R   0.740006 0.751932 0.113416 -0.061331
C41   C     C_R   0.780840 0.808234 0.116078 -0.047174
C42   C     C_R   0.829575 0.855220 0.038023 -0.020581
C43   C     C_R   0.836851 0.846583 0.956902 -0.107630
C44   C     C_R   0.793673 0.792589 0.953353 -0.037203
C45   C     C_R   0.549298 0.995019 0.554909 0.018037
C46   C     C_R   0.992627 0.454225 0.449481 0.018514
C47   C     C_R   0.007373 0.550519 0.545775 0.018514
C48   C     C_R   0.450702 0.445091 0.004981 0.018037
C49   C     C_R   0.546194 0.542563 0.019598 0.018271
C50   C     C_R   0.027356 0.828714 0.564709 0.526058
C51   C     C_R   0.688328 0.996678 0.566949 -0.026238
C52   C     C_R   0.980148 0.170200 0.432409 0.538274
C53   C     C_R   0.829193 0.565233 0.025314 0.522304
C54   C     C_R   0.170019 0.432124 0.981019 0.537999
C55   C     C_R   0.564885 0.026556 0.828736 0.528199
C56   C     C_R   0.432098 0.982240 0.169512 0.534912
C57   C     C_R   0.435115 0.171264 0.973444 0.528199
C58   C     C_R   0.567902 0.830488 0.017760 0.534913
C59   C     C_R   0.972644 0.435291 0.171286 0.526058
C60   C     C_R   0.019852 0.567591 0.829800 0.538274
C61   C     C_R   0.170807 0.974686 0.434767 0.522303
C62   C     C_R   0.967140 0.449844 0.318424 -0.022547
C63   C     C_R   0.829981 0.018981 0.567876 0.537999
C64   C     C_R   0.405031 0.976182 0.407362 0.023899
C65   C     C_R   0.596662 0.006171 0.601905 0.021921
C66   C     C_R   0.984376 0.405836 0.401729 0.021853
C67   C     C_R   0.015624 0.598271 0.594163 0.021853
C68   C     C_R   0.403338 0.398095 0.993829 0.021921
C69   C     C_R   0.594969 0.592638 0.023818 0.023899
C70   C     C_R   0.267907 0.965922 0.398207 -0.036171
C71   C     C_R   0.734228 0.019292 0.607884 -0.033085
C72   C     C_R   0.961202 0.400627 0.269364 -0.036218
C73   C     C_R   0.004863 0.562730 0.686227 -0.025065
C74   C     C_R   0.022765 0.606287 0.733354 -0.032963
C75   C     C_R   0.399873 0.268800 0.964334 -0.035961
C76   C     C_R   0.606895 0.734813 0.019060 -0.036354
C77   C     C_R   0.600127 0.035666 0.731200 -0.035961
C78   C     C_R   0.393105 0.980939 0.265187 -0.036354
C79   C     C_R   0.732093 0.601793 0.034078 -0.036171
C80   C     C_R   0.265772 0.392116 0.980708 -0.033085
C81   C     C_R   0.038798 0.730636 0.599373 -0.036218
C82   C     C_R   0.977234 0.266646 0.393713 -0.032963
C83   C     C_R   0.459719 0.037274 0.712988 -0.092205
C84   C     C_R   0.448060 0.316686 0.973954 -0.022753
C85   C     C_R   0.523153 0.008584 0.277246 -0.095964
C86   C     C_R   0.045178 0.712003 0.457584 -0.092487
C87   C     C_R   0.019312 0.273790 0.517885 -0.093486
C88   C     C_R   0.709556 0.457582 0.052446 -0.093825
C89   C     C_R   0.270697 0.511093 0.030651 -0.094362
C90   C     C_R   0.290444 0.947554 0.542418 -0.093825
C91   C     C_R   0.729303 0.969349 0.488907 -0.094362
C92   C     C_R   0.540281 0.287012 0.962726 -0.092204
C93   C     C_R   0.476847 0.722754 0.991416 -0.095964
C94   C     C_R   0.954822 0.542416 0.287997 -0.092487
C95   C     C_R   0.559315 0.684682 0.011449 -0.022366
C96   C     C_R   0.980688 0.482115 0.726209 -0.093486
C97   C     C_R   0.306453 0.971401 0.307361 -0.070442
C98   C     C_R   0.686549 0.044810 0.687129 -0.059216
C99   C     C_R   0.953244 0.313762 0.313166 -0.059989
C100  C     C_R   0.046756 0.686834 0.686238 -0.059989
C101  C     C_R   0.313451 0.312871 0.955190 -0.059216
C102  C     C_R   0.693547 0.692639 0.028599 -0.070442
C103  C     C_R   0.680586 0.978107 0.433997 -0.021192
C104  C     C_R   0.330686 0.968600 0.587876 -0.020783
C105  C     C_R   0.991485 0.427418 0.676631 -0.022581
C106  C     C_R   0.551940 0.026046 0.683314 -0.022753
C107  C     C_R   0.977661 0.586825 0.327789 -0.020098
C108  C     C_R   0.422358 0.671789 0.004475 -0.022159
C109  C     C_R   0.583849 0.325770 0.987877 -0.020847
C110  C     C_R   0.577642 0.995525 0.328211 -0.022159
C111  C     C_R   0.416151 0.012122 0.674230 -0.020846
C112  C     C_R   0.319414 0.566003 0.021893 -0.021192
C113  C     C_R   0.669314 0.412124 0.031399 -0.020783
C114  C     C_R   0.008515 0.323369 0.572581 -0.022581
C115  C     C_R   0.022339 0.672211 0.413175 -0.020098
C116  C     C_R   0.719624 0.981219 0.344300 0.174445
C117  C     C_R   0.440685 0.988551 0.315318 -0.022366
C118  C     C_R   0.288041 0.979212 0.673389 0.189052
C119  C     C_R   0.993731 0.337406 0.715418 0.166199
C120  C     C_R   0.985827 0.673677 0.286365 0.201237
C121  C     C_R   0.332769 0.709500 0.005634 0.171608
C122  C     C_R   0.670980 0.285356 0.994904 0.190676
C123  C     C_R   0.667231 0.994366 0.290500 0.171609
C124  C     C_R   0.329020 0.005095 0.714644 0.190676
C125  C     C_R   0.280376 0.655700 0.018781 0.174445
C126  C     C_R   0.711959 0.326611 0.020788 0.189052
C127  C     C_R   0.006269 0.284582 0.662594 0.166199
C128  C     C_R   0.679621 0.550314 0.037786 -0.021354
C129  C     C_R   0.014173 0.713635 0.326323 0.201237
C130  C     C_R   0.540930 0.986180 0.418487 -0.010083
C131  C     C_R   0.460352 0.995226 0.592198 -0.013190
C132  C     C_R   0.000039 0.413811 0.536187 -0.011218
C133  C     C_R   0.007164 0.588907 0.456782 -0.013436
C134  C     C_R   0.409619 0.530742 0.013945 -0.011407
C135  C     C_R   0.585009 0.453989 0.019005 -0.013269
C136  C     C_R   0.590381 0.986055 0.469257 -0.011407
C137  C     C_R   0.414991 0.980995 0.546011 -0.013269
C138  C     C_R   0.459070 0.581513 0.013820 -0.010083
Cu1   Cu    Cu3+1 0.995180 0.995180 0.424630 1.025721
Cu2   Cu    Cu3+1 0.004820 0.004820 0.575370 1.020023
Cu3   Cu    Cu3+1 0.995180 0.424630 0.995180 1.020023
Cu4   Cu    Cu3+1 0.004820 0.575370 0.004820 1.025720
Cu5   Cu    Cu3+1 0.424630 0.995180 0.995180 1.019148
Cu6   Cu    Cu3+1 0.575370 0.004820 0.004820 1.019147
H1    H     H_    0.419442 0.070834 0.762620 0.188507
H2    H     H_    0.455444 0.791183 0.959055 0.202826
H3    H     H_    0.923521 0.581913 0.235931 0.185024
H4    H     H_    0.949515 0.461321 0.795049 0.201732
H5    H     H_    0.202342 0.109933 0.212132 0.089993
H6    H     H_    0.124718 0.103060 0.117612 0.086116
H7    H     H_    0.137759 0.959584 0.102051 0.210554
H8    H     H_    0.224959 0.820976 0.185149 0.178468
H9    H     H_    0.297863 0.825855 0.283791 0.093570
H10   H     H_    0.651914 0.222054 0.635097 0.102102
H11   H     H_    0.709662 0.314531 0.671225 0.112996
H12   H     H_    0.544555 0.040945 0.208817 0.202826
H13   H     H_    0.810118 0.245223 0.767951 0.182759
H14   H     H_    0.852168 0.082232 0.830126 0.186053
H15   H     H_    0.793276 0.989383 0.796079 0.105302
H16   H     H_    0.011035 0.207618 0.203571 0.105419
H17   H     H_    0.921008 0.140990 0.174939 0.184882
H18   H     H_    0.758792 0.177907 0.238369 0.183345
H19   H     H_    0.687337 0.280365 0.331800 0.113773
H20   H     H_    0.777039 0.344463 0.364316 0.103391
H21   H     H_    0.222961 0.635684 0.655537 0.103391
H22   H     H_    0.312662 0.668200 0.719635 0.113773
H23   H     H_    0.076479 0.764069 0.418087 0.185024
H24   H     H_    0.241208 0.761632 0.822093 0.183345
H25   H     H_    0.078992 0.825060 0.859010 0.184882
H26   H     H_    0.988965 0.796429 0.792382 0.105419
H27   H     H_    0.348086 0.364903 0.777945 0.102102
H28   H     H_    0.290338 0.328775 0.685469 0.112996
H29   H     H_    0.189882 0.232049 0.754777 0.182760
H30   H     H_    0.147832 0.169873 0.917768 0.186053
H31   H     H_    0.206724 0.203921 0.010617 0.105302
H32   H     H_    0.702137 0.716209 0.174145 0.093570
H33   H     H_    0.775041 0.814851 0.179024 0.178468
H34   H     H_    0.050485 0.204951 0.538679 0.201732
H35   H     H_    0.862241 0.897949 0.040416 0.210554
H36   H     H_    0.875282 0.882388 0.896940 0.086116
H37   H     H_    0.797658 0.787868 0.890067 0.089993
H38   H     H_    0.762693 0.418989 0.082308 0.188288
H39   H     H_    0.201598 0.530057 0.061012 0.198667
H40   H     H_    0.237306 0.917692 0.581011 0.188288
H41   H     H_    0.798402 0.938988 0.469943 0.198667
H42   H     H_    0.580558 0.237380 0.929166 0.188507
O1    O     O_R   0.124540 0.978640 0.385460 -0.505764
O2    O     O_R   0.124540 0.385460 0.978640 -0.504957
O3    O     O_R   0.021360 0.875460 0.614540 -0.511665
O4    O     O_R   0.978640 0.124540 0.385460 -0.503595
O5    O     O_R   0.013780 0.867370 0.487190 -0.509803
O6    O     O_R   0.986220 0.132630 0.512810 -0.504159
O7    O     O_R   0.867370 0.487190 0.013780 -0.507255
O8    O     O_R   0.132630 0.512810 0.986220 -0.501556
O9    O     O_R   0.487190 0.013780 0.867370 -0.509327
O10   O     O_R   0.512810 0.986220 0.132630 -0.508806
O11   O     O_R   0.512810 0.132630 0.986220 -0.509328
O12   O     O_R   0.875460 0.021360 0.614540 -0.504957
O13   O     O_R   0.487190 0.867370 0.013780 -0.508806
O14   O     O_R   0.986220 0.512810 0.132630 -0.509802
O15   O     O_R   0.013780 0.487190 0.867370 -0.504159
O16   O     O_R   0.132630 0.986220 0.512810 -0.507255
O17   O     O_R   0.867370 0.013780 0.487190 -0.501556
O18   O     O_R   0.978640 0.385460 0.124540 -0.511664
O19   O     O_R   0.021360 0.614540 0.875460 -0.503596
O20   O     O_R   0.385460 0.124540 0.978640 -0.509351
O21   O     O_R   0.614540 0.875460 0.021360 -0.498910
O22   O     O_R   0.614540 0.021360 0.875460 -0.509351
O23   O     O_R   0.385460 0.978640 0.124540 -0.498910
O24   O     O_R   0.875460 0.614540 0.021360 -0.505764

loop_
_geom_bond_atom_site_label_1
_geom_bond_atom_site_label_2
_ccdc_geom_bond_type
C69   C128  A    
C3    C135  A    
C43   C44   A    
C69   C95   A    
C63   O12   A    
C121  C125  A    
C9    H7    S    
C94   C107  A    
C3    C48   A    
C29   H24   S    
C74   C100  A    
C56   O23   A    
C6    C97   S    
C49   C138  A    
C58   C76   S    
Cu3   O15   S    
Cu1   O17   S    
Cu3   O2    S    
C91   H41   S    
C33   C34   A    
C32   C33   A    
C59   O18   A    
C13   C81   A    
C60   O19   A    
C93   C95   A    
C35   C130  A    
C14   C15   A    
C85   C110  A    
Br5   C123  S    
C16   C17   A    
C4    C132  A    
C12   C14   A    
C35   C64   A    
C22   C23   A    
Cu5   O9    S    
Cu6   O21   S    
C115  C129  A    
C26   C27   A    
C54   O8    A    
C53   O7    A    
C32   C38   A    
C94   H3    S    
C46   C132  A    
C82   C99   A    
C55   C77   S    
Cu5   O20   S    
Br8   C126  S    
C6    C7    A    
C29   C30   A    
C34   H28   S    
C53   O24   A    
Cu4   O14   S    
C88   C128  A    
C11   H9    S    
C78   C117  A    
Br9   C125  S    
C48   C68   A    
C37   H30   S    
C7    C8    A    
C56   O10   A    
C56   C78   S    
Cu1   Cu2   S    
C93   C108  A    
C2    C68   A    
C109  C122  A    
C87   C114  A    
Br1   C124  S    
C21   H17   S    
C80   C101  A    
C57   C75   S    
C5    C46   A    
C60   O15   A    
C52   O6    A    
C30   H25   S    
Br12  C122  S    
C9    C10   A    
C76   C102  A    
C58   O13   A    
C46   C66   A    
C48   C134  A    
C105  C119  A    
C38   H31   S    
C104  C137  A    
C27   H21   S    
C21   C22   A    
Br4   C119  S    
C49   C135  A    
C83   C106  A    
C110  C123  A    
C34   C36   A    
C114  C127  A    
Cu5   Cu6   S    
C39   C102  S    
C55   O22   A    
C42   H35   S    
C45   C131  A    
C39   C40   A    
C72   C99   A    
C70   C97   A    
Br2   C121  S    
C112  C125  A    
C12   C98   S    
C51   C91   A    
C65   C106  A    
C113  C135  A    
C116  C123  A    
C47   C67   A    
C27   C28   A    
C76   C95   A    
C35   C137  A    
C2    C89   A    
C54   C80   S    
C92   C109  A    
C18   H15   S    
C41   C42   A    
C112  C134  A    
C103  C136  A    
C103  C116  A    
C57   O20   A    
C19   C25   A    
Br6   C129  S    
C4    C47   A    
C68   C84   A    
Cu4   O24   S    
C91   C103  A    
Br10  C118  S    
C50   O3    A    
C17   C18   A    
C22   H18   S    
Cu1   O1    S    
C62   C94   A    
C10   H8    S    
C64   C117  A    
C13   C86   A    
C6    C11   A    
C1    C64   A    
C131  C137  A    
C7    H5    S    
C8    H6    S    
C75   C84   A    
C111  C131  A    
C107  C120  A    
C71   C98   A    
Cu6   O22   S    
C8    C9    A    
Cu4   O19   S    
C79   C128  A    
C130  C136  A    
C2    C80   A    
C73   C74   A    
Cu4   O8    S    
Cu2   O12   S    
C115  C133  A    
C28   H22   S    
C47   C133  A    
C86   C115  A    
C32   C101  S    
C59   O14   A    
C84   C92   A    
C5    C133  A    
C17   H14   S    
Cu3   O7    S    
C61   O16   A    
C50   C81   S    
C57   O11   A    
C30   C31   A    
C110  C130  A    
Cu1   O4    S    
C26   C100  S    
C73   C96   A    
C61   C70   S    
C67   C73   A    
C24   C66   A    
C55   O9    A    
C40   C41   A    
C33   H27   S    
C59   C72   S    
C51   C65   A    
C83   C111  A    
C120  C129  A    
C53   C79   S    
C52   O4    A    
C42   C43   A    
C14   H10   S    
C3    C109  A    
C23   C25   A    
Cu6   O11   S    
C13   C67   A    
C92   H42   S    
C96   C105  A    
C77   C98   A    
C19   C20   A    
C118  C124  A    
C39   C44   A    
C62   C72   A    
C90   H40   S    
C122  C126  A    
C87   H34   S    
C60   C74   S    
Br3   C120  S    
C134  C138  A    
C96   H4    S    
C88   H38   S    
C113  C126  A    
C85   H12   S    
C31   H26   S    
C108  C138  A    
C88   C113  A    
Cu1   O5    S    
C79   C102  A    
C111  C124  A    
C23   H19   S    
C43   H36   S    
C45   C65   A    
Cu5   O13   S    
Br11  C116  S    
C1    C90   A    
C85   C117  A    
C26   C31   A    
C1    C70   A    
C93   H2    S    
C49   C69   A    
C4    C105  A    
C20   C21   A    
C25   H20   S    
Br7   C127  S    
C63   C71   S    
Cu2   O16   S    
C108  C121  A    
C36   C37   A    
C61   O1    A    
C58   O21   A    
C114  C132  A    
C63   O17   A    
C89   C112  A    
C24   C87   A    
C90   C104  A    
C20   H16   S    
Cu6   O10   S    
C12   C18   A    
C50   O5    A    
C75   C101  A    
C119  C127  A    
C5    C107  A    
C81   C100  A    
C52   C82   S    
C44   H37   S    
C24   C82   A    
C16   H13   S    
C36   H29   S    
C104  C118  A    
C77   C106  A    
C83   H1    S    
C37   C38   A    
C62   C66   A    
C45   C136  A    
C51   C71   A    
C15   C16   A    
Cu5   O23   S    
C19   C99   S    
C10   C11   A    
Cu2   O6    S    
C28   C29   A    
C40   H32   S    
C78   C97   A    
C86   H23   S    
C41   H33   S    
Cu3   O18   S    
C54   O2    A    
Cu2   O3    S    
C89   H39   S    
C15   H11   S    
Cu3   Cu4   S    
