data_mof_unit_39343.cif
_audit_creation_date              2012-12-10T20:28:41-0500
_audit_creation_method            fapswitch 2.2
_symmetry_space_group_name_H-M    P1
_symmetry_Int_Tables_number       1
_space_group_crystal_system       triclinic
_cell_length_a                    10.621107
_cell_length_b                    10.654903
_cell_length_c                    9.868127
_cell_angle_alpha                 89.994441
_cell_angle_beta                  90.092408
_cell_angle_gamma                 89.914118
_cell_volume                      1116.74228192

loop_
_atom_site_label
_atom_site_type_symbol
_atom_type_description
_atom_site_fract_x
_atom_site_fract_y
_atom_site_fract_z
_atom_type_partial_charge
C1    C     C_R   0.504569 0.259884 0.500046 0.875785
C2    C     C_R   0.065817 0.611926 0.565195 0.088583
C3    C     C_R   0.128277 0.511976 0.499763 -0.094837
C4    C     C_R   0.064352 0.417101 0.431976 -0.230494
C5    C     C_R   0.935803 0.416890 0.432304 -0.210627
C6    C     C_R   0.871697 0.511679 0.500222 -0.091823
C7    C     C_R   0.533639 0.063897 0.622768 0.143730
C8    C     C_R   0.527432 0.128601 0.500337 -0.106255
C9    C     C_R   0.548315 0.064750 0.378083 -0.233046
C10   C     C_R   0.548866 0.935015 0.378132 -0.222348
C11   C     C_R   0.528599 0.871128 0.500446 -0.102718
C12   C     C_R   0.260503 0.503463 0.499981 0.870743
C13   C     C_R   0.534775 0.935850 0.622908 0.119821
C14   C     C_3   0.452604 0.928353 0.745563 -0.478895
C15   C     C_3   0.450487 0.070564 0.744680 -0.496870
C16   C     C_R   0.415149 0.428702 0.071135 0.182927
C17   C     C_R   0.590236 0.561802 0.072065 -0.129611
C18   C     C_R   0.590174 0.561922 0.928137 -0.131524
C19   C     C_R   0.415362 0.428267 0.928475 0.160497
C20   C     C_3   0.275165 0.440162 0.922487 -0.140698
C21   C     C_3   0.275242 0.440504 0.076985 -0.519098
C22   C     C_R   0.505038 0.740051 0.500016 0.854980
C23   C     C_R   0.739501 0.503287 0.500114 0.865391
C24   C     C_R   0.130944 0.712854 0.626561 -0.204434
C25   C     C_R   0.065176 0.810865 0.688027 -0.146204
C26   C     C_R   0.934182 0.810824 0.688081 -0.136161
C27   C     C_R   0.868557 0.712762 0.626780 -0.196051
C28   C     C_R   0.933908 0.611812 0.565397 0.089763
H1    H     H_    0.114333 0.341676 0.381349 0.145563
H2    H     H_    0.503243 0.888274 0.834312 0.202651
H3    H     H_    0.355944 0.109946 0.721354 0.195364
H4    H     H_    0.498988 0.112996 0.833430 0.204121
H5    H     H_    0.661398 0.614146 0.126426 0.147844
H6    H     H_    0.661231 0.614401 0.873977 0.148333
H7    H     H_    0.244858 0.531121 0.877338 0.186495
H8    H     H_    0.244262 0.531693 0.120504 0.209056
H9    H     H_    0.231027 0.356864 0.124488 0.196487
H10   H     H_    0.232483 0.718089 0.625695 0.145973
H11   H     H_    0.115905 0.887773 0.734429 0.130481
H12   H     H_    0.883224 0.887649 0.734484 0.135433
H13   H     H_    0.766953 0.718136 0.626311 0.144075
H14   H     H_    0.885962 0.341332 0.381840 0.151127
H15   H     H_    0.554273 0.113712 0.282084 0.171530
H16   H     H_    0.555019 0.886045 0.282153 0.170321
H17   H     H_    0.359200 0.885972 0.724188 0.197117
N1    N     N_R   0.499160 0.499140 0.142800 -0.103116
N2    N     N_R   0.499160 0.499180 0.857150 -0.114580
O1    O     O_R   0.500020 0.316790 0.614690 -0.617348
O2    O     O_R   0.500000 0.316760 0.385350 -0.620591
O3    O     O_R   0.316770 0.500020 0.614690 -0.636473
O4    O     O_R   0.316760 0.499980 0.385350 -0.611075
O5    O     O_R   0.500000 0.683240 0.614650 -0.629732
O6    O     O_R   0.499980 0.683210 0.385310 -0.619209
O7    O     O_R   0.683240 0.500020 0.614650 -0.623412
O8    O     O_R   0.683230 0.499980 0.385310 -0.619661
Zn1   Zn    Zn3+2 0.500010 0.500020 0.653130 0.924464
Zn2   Zn    Zn3+2 0.499990 0.499980 0.346870 0.938925
C29   C     C_3   0.212072 0.324636 0.858245 -0.367953
C30   C     C_3   0.068760 0.341079 0.852139 -0.328630
C31   C     C_3   0.006498 0.231611 0.778320 -0.891864
H18   H     H_    0.041805 0.225318 0.672640 0.264728
H19   H     H_    0.026540 0.142025 0.831768 0.252713
H20   H     H_    0.902991 0.246277 0.775186 0.258710
H21   H     H_    0.030247 0.347162 0.956609 0.226139
H22   H     H_    0.045053 0.429402 0.797767 0.235282
H23   H     H_    0.248434 0.312536 0.753670 0.226576
H24   H     H_    0.236021 0.238078 0.915996 0.193612

loop_
_geom_bond_atom_site_label_1
_geom_bond_atom_site_label_2
_ccdc_geom_bond_type
C24   H10   S    
C5    H14   S    
C1    O1    A    
C23   O8    A    
C16   C21   S    
O4    Zn2   S    
C22   O6    A    
C1    C8    S    
C18   H6    S    
C9    C10   A    
C27   H13   S    
C11   C22   S    
C12   O3    A    
C4    H1    S    
C7    C13   A    
C18   N2    A    
C20   C21   S    
C7    C15   S    
C17   C18   A    
C30   H21   S    
C24   C25   A    
C21   H9    S    
C30   C31   S    
C21   H8    S    
C13   C14   S    
C30   H22   S    
C15   H3    S    
C4    C5    A    
C11   C13   A    
C26   H12   S    
C26   C27   A    
C25   H11   S    
C17   H5    S    
C14   H2    S    
C31   H20   S    
C6    C23   S    
C22   O5    A    
N2    Zn1   S    
C29   H23   S    
C2    C3    A    
C14   H17   S    
O7    Zn1   S    
O8    Zn2   S    
N1    Zn2   S    
C2    C24   A    
C5    C6    A    
C19   N2    A    
C9    H15   S    
C10   C11   A    
C16   C19   A    
C10   H16   S    
C3    C4    A    
O3    Zn1   S    
C29   H24   S    
C7    C8    A    
C12   O4    A    
O2    Zn2   S    
C17   N1    A    
O5    Zn1   S    
C23   O7    A    
C31   H19   S    
C1    O2    A    
C16   N1    A    
C27   C28   A    
O1    Zn1   S    
O6    Zn2   S    
C14   C15   S    
C31   H18   S    
C2    C28   A    
C3    C12   S    
C25   C26   A    
C29   C30   S    
C20   C29   S    
C20   H7    S    
C6    C28   A    
C19   C20   S    
C8    C9    A    
C15   H4    S    
