data_mof_unit_17448.cif
_audit_creation_date              2012-10-26T20:16:52-0400
_audit_creation_method            fapswitch 2.2
_symmetry_space_group_name_H-M    P1
_symmetry_Int_Tables_number       1
_space_group_crystal_system       triclinic
_cell_length_a                    10.916826
_cell_length_b                    10.930998
_cell_length_c                    10.480166
_cell_angle_alpha                 91.748013
_cell_angle_beta                  92.341126
_cell_angle_gamma                 92.362428
_cell_volume                      1247.86210323

loop_
_atom_site_label
_atom_site_type_symbol
_atom_type_description
_atom_site_fract_x
_atom_site_fract_y
_atom_site_fract_z
_atom_type_partial_charge
C1    C     C_R   0.504483 0.261733 0.498029 0.574045
C2    C     C_R   0.666835 0.885585 0.803462 -0.085554
C3    C     C_R   0.449454 0.110434 0.257803 0.063121
C4    C     C_R   0.550399 0.889577 0.742179 0.063116
C5    C     C_R   0.554071 0.145458 0.191587 -0.059442
C6    C     C_R   0.445738 0.854780 0.808439 -0.059597
C7    C     C_R   0.542046 0.184894 0.066370 -0.106614
C8    C     C_R   0.457727 0.815273 0.933631 -0.106635
C9    C     C_R   0.426061 0.185890 0.005162 -0.104376
C10   C     C_R   0.573740 0.813954 0.994756 -0.104382
C11   C     C_R   0.450060 0.929723 0.394162 0.061019
C12   C     C_R   0.495500 0.738266 0.501967 0.574062
C13   C     C_R   0.549905 0.070269 0.605815 0.060993
C14   C     C_R   0.490842 0.872131 0.505480 0.005434
C15   C     C_R   0.509116 0.127868 0.494502 0.005411
C16   C     C_R   0.261486 0.501910 0.497022 0.543576
C17   C     C_R   0.738514 0.498074 0.502978 0.543578
C18   C     C_R   0.534773 0.942959 0.614367 -0.056186
C19   C     C_R   0.465152 0.057044 0.385615 -0.056160
C20   C     C_1   0.499984 0.500015 0.072091 0.080190
C21   C     C_1   0.500013 0.499985 0.927909 0.080244
C22   C     C_R   0.188411 0.527956 0.061290 -0.075690
C23   C     C_R   0.872162 0.494209 0.507919 -0.011630
C24   C     C_R   0.811560 0.471900 0.938685 -0.075693
C25   C     C_R   0.159046 0.544503 0.188995 -0.050403
C26   C     C_R   0.840932 0.455388 0.810978 -0.050378
C27   C     C_R   0.097778 0.450053 0.252269 0.059315
C28   C     C_R   0.902234 0.549846 0.747748 0.059319
C29   C     C_R   0.059526 0.342112 0.183087 -0.128956
C30   C     C_R   0.940533 0.657747 0.816981 -0.129005
C31   C     C_R   0.083361 0.328354 0.053925 -0.081222
C32   C     C_R   0.916699 0.671460 0.946147 -0.081318
C33   C     C_R   0.151784 0.418863 0.993346 0.132289
C34   C     C_R   0.127838 0.505745 0.492084 -0.011625
C35   C     C_R   0.848217 0.580960 0.006675 0.132229
C36   C     C_R   0.926644 0.463342 0.393754 -0.133796
C37   C     C_R   0.073358 0.536594 0.606252 -0.133807
C38   C     C_R   0.947076 0.527798 0.617781 -0.023158
C39   C     C_R   0.052927 0.472138 0.382226 -0.023157
C40   C     C_R   0.322240 0.148288 0.069321 -0.110033
C41   C     C_R   0.677607 0.851348 0.930554 -0.109970
C42   C     C_R   0.333028 0.114153 0.196446 -0.085669
Cu1   Cu    Cu3+1 0.500000 0.500000 0.625300 0.983512
Cu2   Cu    Cu3+1 0.500000 0.500000 0.374700 0.983476
H1    H     H_    0.644755 0.141298 0.236830 0.093097
H2    H     H_    0.992534 0.729737 0.771807 0.090495
H3    H     H_    0.049641 0.246325 0.001082 0.098708
H4    H     H_    0.950444 0.753460 0.999029 0.098726
H5    H     H_    0.869736 0.433032 0.311044 0.145859
H6    H     H_    0.130267 0.566884 0.688970 0.145869
H7    H     H_    0.416398 0.214934 0.907729 0.116077
H8    H     H_    0.583391 0.784828 0.092162 0.116123
H9    H     H_    0.233650 0.143535 0.019638 0.095866
H10   H     H_    0.766223 0.855877 0.980185 0.095937
H11   H     H_    0.251382 0.086692 0.245377 0.092175
H12   H     H_    0.355048 0.859186 0.763255 0.093036
H13   H     H_    0.748507 0.912896 0.754494 0.092181
H14   H     H_    0.243901 0.468538 0.837406 0.242832
H15   H     H_    0.227217 0.318218 0.855113 0.222306
H16   H     H_    0.756062 0.531244 0.162575 0.242822
H17   H     H_    0.772675 0.681570 0.144862 0.222318
H18   H     H_    0.298149 0.881571 0.281992 0.212159
H19   H     H_    0.432794 0.874864 0.206401 0.234397
H20   H     H_    0.701835 0.118270 0.717999 0.212174
H21   H     H_    0.567202 0.125145 0.793562 0.234381
H22   H     H_    0.622743 0.212704 0.016197 0.092972
H23   H     H_    0.376990 0.787651 0.983846 0.092985
H24   H     H_    0.237438 0.601001 0.014803 0.085890
H25   H     H_    0.762493 0.398857 0.985133 0.085836
H26   H     H_    0.183042 0.631309 0.238215 0.122805
H27   H     H_    0.816907 0.368607 0.761721 0.122855
H28   H     H_    0.007555 0.270124 0.228298 0.090504
N1    N     N_1   0.500010 0.499990 0.186410 -0.200750
N2    N     N_1   0.499990 0.500010 0.813590 -0.200722
N3    N     N_3   0.181044 0.399774 0.862444 -0.631428
N4    N     N_3   0.818896 0.600038 0.137560 -0.631413
N5    N     N_3   0.389596 0.857517 0.291198 -0.613489
N6    N     N_3   0.610426 0.142447 0.708768 -0.613479
O1    O     O_R   0.499990 0.319650 0.605810 -0.463328
O2    O     O_R   0.500010 0.680350 0.394190 -0.463312
O3    O     O_R   0.499990 0.319640 0.394190 -0.501082
O4    O     O_R   0.500010 0.680360 0.605810 -0.501015
O5    O     O_R   0.319640 0.500010 0.605810 -0.518050
O6    O     O_R   0.680360 0.499990 0.394190 -0.518033
O7    O     O_R   0.319650 0.500010 0.394190 -0.492873
O8    O     O_R   0.680350 0.499990 0.605810 -0.492884

loop_
_geom_bond_atom_site_label_1
_geom_bond_atom_site_label_2
_ccdc_geom_bond_type
C3    C42   A    
C27   C29   A    
C34   C37   A    
Cu1   O5    S    
C14   C18   A    
H18   N5    S    
C9    H7    S    
C10   H8    S    
C2    H13   S    
C15   C19   A    
C11   C19   A    
C17   C23   S    
C13   C18   A    
C24   C26   A    
C11   C14   A    
C2    C41   A    
C1    O3    A    
C11   N5    S    
C16   C34   S    
C33   N3    S    
C27   C39   S    
C22   C25   A    
H14   N3    S    
C31   C33   A    
C3    C19   S    
C1    C15   S    
C29   H28   S    
C4    C18   S    
Cu1   N2    S    
C40   C42   A    
C31   H3    S    
C10   C41   A    
C26   H27   S    
C32   H4    S    
C24   H25   S    
H17   N4    S    
C35   N4    S    
C24   C35   A    
C34   C39   A    
C32   C35   A    
Cu2   O2    S    
C4    C6    A    
Cu2   O3    S    
C5    C7    A    
C6    C8    A    
C3    C5    A    
C5    H1    S    
C21   N2    T    
H16   N4    S    
C16   O5    A    
C17   O8    A    
C2    C4    A    
Cu1   Cu2   S    
C37   C38   A    
C42   H11   S    
C28   C38   S    
C12   O4    A    
C22   H24   S    
C12   C14   S    
C23   C36   A    
C13   C15   A    
C16   O7    A    
C1    O1    A    
Cu2   O7    S    
H15   N3    S    
H19   N5    S    
C7    C9    A    
C22   C33   A    
C13   N6    S    
H21   N6    S    
Cu1   O8    S    
H20   N6    S    
C30   H2    S    
C36   C39   A    
C6    H12   S    
Cu2   O6    S    
C25   C27   A    
C23   C38   A    
C26   C28   A    
C17   O6    A    
C28   C30   A    
C29   C31   A    
C7    H22   S    
C30   C32   A    
C37   H6    S    
C12   O2    A    
C20   N1    T    
C9    C40   A    
Cu2   N1    S    
C41   H10   S    
C20   C21   S    
C8    H23   S    
C8    C10   A    
C40   H9    S    
Cu1   O4    S    
C25   H26   S    
Cu1   O1    S    
C36   H5    S    
