data_mof_unit_16797.cif
_audit_creation_date              2012-12-10T18:11:47-0500
_audit_creation_method            fapswitch 2.2
_symmetry_space_group_name_H-M    P1
_symmetry_Int_Tables_number       1
_space_group_crystal_system       triclinic
_cell_length_a                    10.621612
_cell_length_b                    12.691652
_cell_length_c                    13.19575
_cell_angle_alpha                 82.790364
_cell_angle_beta                  90.53253
_cell_angle_gamma                 102.570466
_cell_volume                      1722.19713803

loop_
_atom_site_label
_atom_site_type_symbol
_atom_type_description
_atom_site_fract_x
_atom_site_fract_y
_atom_site_fract_z
_atom_type_partial_charge
C1    C     C_R   0.480937 0.439135 0.691198 0.866471
C2    C     C_R   0.471817 0.445923 0.973729 0.052084
C3    C     C_R   0.433250 0.466072 0.871641 0.069226
C4    C     C_R   0.742003 0.500697 0.498064 0.889386
C5    C     C_R   0.482380 0.529397 0.037563 0.053865
C6    C     C_R   0.427464 0.620396 0.005219 0.090076
C7    C     C_R   0.366762 0.628012 0.912071 -0.274753
C8    C     C_R   0.366002 0.550811 0.846039 0.157820
C9    C     C_R   0.545690 0.527148 0.132259 0.152924
C10   C     C_R   0.476634 0.689681 0.165664 -0.262939
C11   C     C_R   0.462809 0.399493 0.800674 -0.110497
C12   C     C_3   0.062418 0.593131 0.527737 0.198094
C13   C     C_R   0.284675 0.073733 0.378298 0.126298
C14   C     C_R   0.633585 0.804095 0.643733 0.223604
C15   C     C_R   0.644473 0.910054 0.674089 0.176576
C16   C     C_R   0.519387 0.560531 0.309346 0.868214
C17   C     C_R   0.607271 0.988994 0.606612 -0.298240
C18   C     C_R   0.538524 0.963904 0.519761 0.019118
C19   C     C_R   0.512850 0.854562 0.497611 0.138702
C20   C     C_R   0.476829 0.041852 0.465843 -0.065400
C21   C     C_R   0.371467 0.004909 0.403503 0.093314
C22   C     C_R   0.355085 0.899388 0.372510 0.149028
C23   C     C_3   0.960845 0.503161 0.588948 0.243234
C24   C     C_R   0.425993 0.826817 0.420165 -0.230790
C25   C     C_R   0.509276 0.153893 0.479931 -0.127251
C26   C     C_R   0.323107 0.184775 0.391624 0.305671
C27   C     C_R   0.258118 0.501146 0.496053 0.873433
C28   C     C_3   0.934900 0.409610 0.458049 -0.175512
C29   C     C_3   0.021598 0.413889 0.553162 -0.260200
C30   C     C_3   0.123043 0.503906 0.491884 -0.086683
C31   C     C_3   0.037920 0.499453 0.397879 0.212140
C32   C     C_3   0.976500 0.588634 0.432531 -0.249293
C33   C     C_3   0.655349 0.469140 0.155818 -0.924176
C34   C     C_3   0.876710 0.499542 0.494781 -0.055408
C35   C     C_3   0.281005 0.557333 0.755553 -0.853069
C36   C     C_3   0.241318 0.260441 0.344096 -0.841108
C37   C     C_3   0.270350 0.863163 0.284574 -0.942830
C38   C     C_3   0.143702 0.026929 0.358239 -0.926606
C39   C     C_3   0.684312 0.718104 0.713645 -0.324925
C40   C     C_3   0.807156 0.753392 0.773756 -0.991909
C41   C     C_3   0.682704 0.944512 0.779348 -0.370285
C42   C     C_3   0.584299 0.886185 0.862668 -0.876030
C43   C     C_3   0.082446 0.501274 0.288416 -0.929458
C44   C     C_3   0.130982 0.706274 0.551616 -0.398361
C45   C     C_R   0.430840 0.702323 0.067510 -0.202354
C46   C     C_3   0.043302 0.761169 0.606032 -0.912236
C47   C     C_3   0.906543 0.491286 0.696912 -0.951630
C48   C     C_R   0.522162 0.596921 0.200579 -0.056314
C49   C     C_R   0.491723 0.298639 0.836550 -0.195277
C50   C     C_R   0.498534 0.267294 0.940766 -0.157233
C51   C     C_R   0.490472 0.340708 0.009076 -0.175544
H1    H     H_    0.042906 0.342583 0.602552 0.156947
H2    H     H_    0.471421 0.749436 0.215851 0.171164
H3    H     H_    0.318548 0.694476 0.890652 0.160663
H4    H     H_    0.391346 0.772940 0.042449 0.151772
H5    H     H_    0.733818 0.521613 0.194577 0.230630
H6    H     H_    0.622457 0.392070 0.207384 0.255376
H7    H     H_    0.699654 0.453241 0.085039 0.247337
H8    H     H_    0.190149 0.578201 0.778044 0.221537
H9    H     H_    0.332409 0.624328 0.699628 0.269203
H10   H     H_    0.254455 0.479605 0.722389 0.225527
H11   H     H_    0.297777 0.341819 0.317559 0.276453
H12   H     H_    0.510975 0.244638 0.784074 0.155198
H13   H     H_    0.195939 0.231964 0.273391 0.208854
H14   H     H_    0.163406 0.263863 0.398234 0.241830
H15   H     H_    0.290649 0.789095 0.258410 0.226428
H16   H     H_    0.167067 0.839765 0.306927 0.246477
H17   H     H_    0.287116 0.928017 0.218303 0.254155
H18   H     H_    0.110060 0.947562 0.406203 0.250928
H19   H     H_    0.079094 0.077523 0.382128 0.242973
H20   H     H_    0.128790 0.019897 0.275842 0.252097
H21   H     H_    0.875350 0.822334 0.729978 0.275973
H22   H     H_    0.784684 0.772632 0.850150 0.279873
H23   H     H_    0.495519 0.313069 0.089351 0.156771
H24   H     H_    0.855349 0.684612 0.792120 0.254783
H25   H     H_    0.607614 0.674165 0.769272 0.224643
H26   H     H_    0.709920 0.661896 0.665819 0.263953
H27   H     H_    0.486663 0.898825 0.841615 0.253035
H28   H     H_    0.581186 0.798124 0.874984 0.274602
H29   H     H_    0.610908 0.919389 0.935773 0.247578
H30   H     H_    0.782408 0.940139 0.799505 0.207597
H31   H     H_    0.686635 0.032626 0.780585 0.185268
H32   H     H_    0.001797 0.509038 0.235939 0.247884
H33   H     H_    0.164660 0.571480 0.268419 0.238284
H34   H     H_    0.515954 0.187832 0.968434 0.142319
H35   H     H_    0.112871 0.424895 0.279673 0.248213
H36   H     H_    0.948744 0.754736 0.567846 0.286753
H37   H     H_    0.030172 0.722131 0.686131 0.274990
H38   H     H_    0.089400 0.848523 0.606275 0.254447
H39   H     H_    0.216233 0.703568 0.598474 0.229501
H40   H     H_    0.164111 0.757058 0.478754 0.223264
H41   H     H_    0.984857 0.504891 0.752513 0.246526
H42   H     H_    0.844601 0.549561 0.700928 0.245713
H43   H     H_    0.846380 0.408057 0.716725 0.239194
H44   H     H_    0.595875 0.189209 0.517567 0.149533
H45   H     H_    0.879980 0.334782 0.429183 0.154913
H46   H     H_    0.617711 0.068135 0.631032 0.141935
H47   H     H_    0.403702 0.746281 0.400340 0.221364
H48   H     H_    0.954264 0.659284 0.382643 0.149596
N1    N     N_R   0.432930 0.222190 0.444670 -0.118947
N2    N     N_R   0.566370 0.776980 0.554790 -0.168805
O1    O     O_R   0.467970 0.366730 0.627150 -0.607316
O2    O     O_R   0.510820 0.544830 0.662520 -0.640538
O3    O     O_R   0.664630 0.410960 0.482340 -0.625019
O4    O     O_R   0.707470 0.589060 0.517710 -0.639283
O5    O     O_R   0.489180 0.455170 0.337480 -0.618617
O6    O     O_R   0.532030 0.633270 0.372850 -0.638265
O7    O     O_R   0.292530 0.410940 0.482290 -0.608938
O8    O     O_R   0.335370 0.589040 0.517660 -0.658276
Zn1   Zn    Zn3+2 0.471390 0.381080 0.476380 0.931196
Zn2   Zn    Zn3+2 0.528610 0.618920 0.523620 0.895792

loop_
_geom_bond_atom_site_label_1
_geom_bond_atom_site_label_2
_ccdc_geom_bond_type
C38   H19   S    
N1    Zn1   S    
C33   H7    S    
C49   H12   S    
C6    C45   A    
C43   H32   S    
C47   H41   S    
C1    C11   S    
C51   H23   S    
C16   C48   S    
C7    C8    A    
C46   H38   S    
C42   H29   S    
C12   C23   S    
C31   C43   S    
C24   H47   S    
C23   C29   S    
O2    Zn2   S    
C28   C29   S    
O8    Zn2   S    
C30   C31   S    
C20   C25   A    
C37   H17   S    
C4    O3    A    
C40   H22   S    
C35   H8    S    
C18   C19   A    
C41   C42   S    
C10   H2    S    
C16   O6    A    
C14   C39   S    
C1    O2    A    
C50   H34   S    
C16   O5    A    
C33   H5    S    
O4    Zn2   S    
C38   H18   S    
C28   C34   S    
C42   H28   S    
C21   C22   A    
C12   C32   S    
C27   C30   S    
C9    C33   S    
C43   H33   S    
C36   H11   S    
C44   C46   S    
C50   C51   A    
C46   H37   S    
C4    C34   S    
C23   C47   S    
C15   C41   S    
C3    C8    A    
C39   C40   S    
C36   H14   S    
C14   N2    A    
C22   C37   S    
C35   H9    S    
C8    C35   S    
C32   C34   S    
C5    C9    A    
C29   C30   S    
C11   C49   A    
C25   N1    A    
C31   C32   S    
C23   C34   S    
C41   H30   S    
C37   H15   S    
C10   C45   A    
C17   C18   A    
C47   H42   S    
C13   C21   A    
C35   H10   S    
C39   H25   S    
C27   O8    A    
C13   C38   S    
C44   H40   S    
C26   C36   S    
C25   H44   S    
C10   C48   A    
C22   C24   A    
C13   C26   A    
O1    Zn1   S    
C2    C5    A    
C39   H26   S    
C44   H39   S    
C46   H36   S    
O5    Zn1   S    
C15   C17   A    
C38   H20   S    
C33   H6    S    
C40   H21   S    
C12   C30   S    
C43   H35   S    
O6    Zn2   S    
C28   C31   S    
C40   H24   S    
C42   H27   S    
C6    C7    A    
N2    Zn2   S    
C4    O4    A    
C32   H48   S    
C28   H45   S    
C2    C3    A    
C12   C44   S    
O3    Zn1   S    
C19   N2    A    
C5    C6    A    
C27   O7    A    
C41   H31   S    
C37   H16   S    
C47   H43   S    
O7    Zn1   S    
C19   C24   A    
C18   C20   A    
C3    C11   A    
C2    C51   A    
C20   C21   A    
C45   H4    S    
C9    C48   A    
C49   C50   A    
C14   C15   A    
C7    H3    S    
C36   H13   S    
C17   H46   S    
C1    O1    A    
C26   N1    A    
C29   H1    S    
