data_mof_unit_49513.cif
_audit_creation_date              2013-03-05T15:45:10-0500
_audit_creation_method            fapswitch 2.2
_symmetry_space_group_name_H-M    P1
_symmetry_Int_Tables_number       1
_space_group_crystal_system       triclinic
_cell_length_a                    24.782132
_cell_length_b                    17.22555
_cell_length_c                    15.647232
_cell_angle_alpha                 89.999117
_cell_angle_beta                  50.843037
_cell_angle_gamma                 89.99992
_cell_volume                      5179.47486111

loop_
_atom_site_label
_atom_site_type_symbol
_atom_site_description
_atom_site_fract_x
_atom_site_fract_y
_atom_site_fract_z
_atom_type_partial_charge
C1    C     C_R   0.354700 0.144898 0.748972 -0.072819
C2    C     C_R   0.666404 0.895647 0.196679 -0.016677
C3    C     C_R   0.645297 0.144901 0.251033 -0.072839
C4    C     C_R   0.333591 0.895683 0.803349 -0.016812
C5    C     C_R   0.854728 0.644923 0.748904 -0.072908
C6    C     C_R   0.166408 0.395669 0.196665 -0.016697
C7    C     C_R   0.145271 0.644924 0.251111 -0.072861
C8    C     C_R   0.833592 0.395665 0.803333 -0.016796
H1    H     H_    0.308478 0.160645 0.760932 0.202708
H2    H     H_    0.719576 0.903251 0.163893 0.203024
H3    H     H_    0.691519 0.160650 0.239073 0.202682
H4    H     H_    0.280419 0.903306 0.836151 0.203046
H5    H     H_    0.808512 0.660674 0.760850 0.202752
H6    H     H_    0.219579 0.403262 0.163887 0.203007
H7    H     H_    0.191463 0.660687 0.239238 0.202791
H8    H     H_    0.780421 0.403259 0.836113 0.202979
N1    N     N_R   0.388930 0.078160 0.705470 -0.093603
N2    N     N_R   0.611070 0.921840 0.294530 -0.106588
N3    N     N_R   0.611070 0.078160 0.294530 -0.093622
N4    N     N_R   0.388930 0.921840 0.705470 -0.106553
N5    N     N_R   0.888930 0.578160 0.705470 -0.093590
N6    N     N_R   0.111070 0.421840 0.294530 -0.106535
N7    N     N_R   0.111070 0.578160 0.294530 -0.093532
N8    N     N_R   0.888930 0.421840 0.705470 -0.106558
C9    C     C_R   0.613283 0.107694 0.591615 -0.037370
C10   C     C_R   0.415151 0.854444 0.406942 -0.131441
C11   C     C_R   0.386709 0.107675 0.408387 -0.037363
C12   C     C_R   0.584736 0.854388 0.593063 -0.133743
C13   C     C_R   0.113408 0.607336 0.591588 -0.036468
C14   C     C_R   0.915268 0.354388 0.406937 -0.133551
C15   C     C_R   0.886709 0.607674 0.408388 -0.037362
C16   C     C_R   0.084740 0.354392 0.593066 -0.133497
H9    H     H_    0.595551 0.105275 0.674730 0.196648
H10   H     H_    0.441145 0.840136 0.321904 0.197175
H11   H     H_    0.404443 0.105253 0.325271 0.196610
H12   H     H_    0.558716 0.840067 0.678106 0.197219
H13   H     H_    0.095625 0.604872 0.674736 0.196515
H14   H     H_    0.941288 0.340069 0.321894 0.197231
H15   H     H_    0.904443 0.605253 0.325270 0.196643
H16   H     H_    0.058723 0.340076 0.678110 0.197229
N9    N     N_R   0.580500 0.077840 0.556650 -0.069399
N10   N     N_R   0.419500 0.922160 0.443350 -0.079075
N11   N     N_R   0.419500 0.077840 0.443350 -0.069402
N12   N     N_R   0.580500 0.922160 0.556650 -0.078834
N13   N     N_R   0.080500 0.577840 0.556650 -0.069331
N14   N     N_R   0.919500 0.422160 0.443350 -0.078866
N15   N     N_R   0.919500 0.577840 0.443350 -0.069412
N16   N     N_R   0.080500 0.422160 0.556650 -0.078929
C17   C     C_R   0.686892 0.106476 0.408871 0.377715
C18   C     C_R   0.339989 0.854580 0.590238 0.323850
C19   C     C_R   0.313103 0.106462 0.591130 0.377638
C20   C     C_R   0.659967 0.854545 0.409778 0.324867
C21   C     C_R   0.186987 0.606174 0.408870 0.377707
C22   C     C_R   0.840033 0.354544 0.590222 0.324766
C23   C     C_R   0.813101 0.606455 0.591130 0.377722
C24   C     C_R   0.159963 0.354543 0.409781 0.324690
N17   N     N_R   0.626210 0.077590 0.443410 -0.100282
N18   N     N_R   0.373790 0.922410 0.556590 -0.104560
N19   N     N_R   0.373790 0.077590 0.556590 -0.100268
N20   N     N_R   0.626210 0.922410 0.443410 -0.104554
N21   N     N_R   0.126210 0.577590 0.443410 -0.100363
N22   N     N_R   0.873790 0.422410 0.556590 -0.104538
N23   N     N_R   0.873790 0.577590 0.556590 -0.100295
N24   N     N_R   0.126210 0.422410 0.443410 -0.104597
C25   C     C_R   0.558022 0.142761 0.244784 0.545445
C26   C     C_R   0.422604 0.897599 0.804236 0.496674
C27   C     C_R   0.441973 0.142756 0.755227 0.545405
C28   C     C_R   0.577393 0.897565 0.195780 0.497238
C29   C     C_R   0.058012 0.642780 0.244823 0.545397
C30   C     C_R   0.922603 0.397595 0.804234 0.496758
C31   C     C_R   0.942034 0.642813 0.755076 0.545534
C32   C     C_R   0.077397 0.397599 0.195765 0.496787
N25   N     N_R   0.554800 0.077270 0.294580 -0.089296
N26   N     N_R   0.445200 0.922730 0.705420 -0.089658
N27   N     N_R   0.445200 0.077270 0.705420 -0.089240
N28   N     N_R   0.554800 0.922730 0.294580 -0.089653
N29   N     N_R   0.054800 0.577270 0.294580 -0.089246
N30   N     N_R   0.945200 0.422730 0.705420 -0.089654
N31   N     N_R   0.945200 0.577270 0.705420 -0.089328
N32   N     N_R   0.054800 0.422730 0.294580 -0.089660
C33   C     C_R   0.387228 0.187938 0.779721 -0.042814
C34   C     C_R   0.646788 0.878668 0.133906 0.040968
C35   C     C_R   0.612765 0.187945 0.220292 -0.042898
C36   C     C_R   0.353207 0.878725 0.866125 0.040789
C37   C     C_R   0.887292 0.687998 0.779563 -0.043163
C38   C     C_R   0.146792 0.378720 0.133887 0.040906
C39   C     C_R   0.112742 0.687975 0.220372 -0.043082
C40   C     C_R   0.853208 0.378714 0.866112 0.040979
C41   C     C_R   0.678915 0.127658 0.500454 -0.093876
C42   C     C_R   0.365388 0.810601 0.497701 0.034893
C43   C     C_R   0.321071 0.127620 0.499548 -0.094076
C44   C     C_R   0.634500 0.810536 0.502327 0.035851
C45   C     C_R   0.179156 0.626971 0.500441 -0.095753
C46   C     C_R   0.865502 0.310535 0.497672 0.035682
C47   C     C_R   0.821070 0.627620 0.499549 -0.093963
C48   C     C_R   0.134502 0.310539 0.502332 0.035750
Ni1   Ni    Ni4+2 0.382710 0.000000 0.629850 0.297796
Ni2   Ni    Ni4+2 0.617290 0.000000 0.370150 0.297892
Ni3   Ni    Ni4+2 0.882710 0.500000 0.629850 0.297877
Ni4   Ni    Ni4+2 0.117290 0.500000 0.370150 0.297818
Ni5   Ni    Ni4+2 0.513020 0.000000 0.629850 0.288572
Ni6   Ni    Ni4+2 0.486980 0.000000 0.370150 0.288546
Ni7   Ni    Ni4+2 0.013020 0.500000 0.629850 0.288457
Ni8   Ni    Ni4+2 0.986980 0.500000 0.370150 0.288540
C49   C     C_R   0.221594 0.135074 0.504394 -0.203982
C50   C     C_R   0.730756 0.796638 0.499888 -0.253145
C51   C     C_R   0.778318 0.135095 0.495787 -0.203900
C52   C     C_R   0.268425 0.796256 0.501975 -0.251379
C53   C     C_R   0.721639 0.635069 0.504281 -0.203844
C54   C     C_R   0.230808 0.296641 0.499770 -0.253166
C55   C     C_R   0.279268 0.634760 0.494070 -0.201812
C56   C     C_R   0.769267 0.296669 0.500045 -0.253195
H17   H     H_    0.219135 0.072198 0.507106 0.196134
H18   H     H_    0.733894 0.859565 0.497766 0.184243
H19   H     H_    0.780719 0.072215 0.493214 0.196529
H20   H     H_    0.264599 0.859142 0.505378 0.184118
H21   H     H_    0.719220 0.572191 0.506901 0.196593
H22   H     H_    0.233983 0.359566 0.497562 0.184153
H23   H     H_    0.282346 0.571925 0.490111 0.197089
H24   H     H_    0.766154 0.359597 0.502124 0.184242
C57   C     C_R   0.672546 0.678173 0.508262 0.384262
C58   C     C_R   0.279272 0.254113 0.495696 0.380168
C59   C     C_R   0.328264 0.678146 0.490023 0.382707
C60   C     C_R   0.720790 0.254160 0.504127 0.380139
C61   C     C_R   0.172499 0.178185 0.508392 0.384337
C62   C     C_R   0.779224 0.754119 0.495812 0.380196
C63   C     C_R   0.827419 0.178191 0.491790 0.384345
C64   C     C_R   0.220141 0.753439 0.505960 0.380159
C65   C     C_R   0.678263 0.759569 0.506051 -0.066697
C66   C     C_R   0.273642 0.172916 0.498790 -0.045467
C67   C     C_R   0.321659 0.759491 0.494080 -0.066931
C68   C     C_R   0.726343 0.172955 0.501211 -0.045574
C69   C     C_R   0.178268 0.259578 0.506051 -0.066675
C70   C     C_R   0.773641 0.672918 0.498795 -0.045625
C71   C     C_R   0.821735 0.259586 0.493939 -0.066655
C72   C     C_R   0.226550 0.672330 0.501235 -0.046653
C73   C     C_2   0.642433 0.257036 0.150621 -0.154028
C74   C     C_2   0.303447 0.860495 0.982556 -0.284718
C75   C     C_2   0.357554 0.257021 0.849404 -0.154330
C76   C     C_2   0.696556 0.860448 0.017469 -0.284501
C77   C     C_2   0.142405 0.757081 0.150723 -0.154082
C78   C     C_2   0.803449 0.360479 0.982536 -0.284704
C79   C     C_2   0.857668 0.757134 0.849155 -0.153213
C80   C     C_2   0.196549 0.360479 0.017467 -0.284861
C81   C     C_2   0.698629 0.290034 0.129341 0.396599
C82   C     C_2   0.258988 0.802640 0.012324 0.386428
C83   C     C_2   0.301362 0.290022 0.870676 0.396438
C84   C     C_2   0.741081 0.802661 0.987664 0.386292
C85   C     C_2   0.198621 0.790059 0.129399 0.396458
C86   C     C_2   0.759016 0.302602 0.012281 0.386255
C87   C     C_2   0.801417 0.790083 0.870563 0.396348
C88   C     C_2   0.240974 0.302595 0.987733 0.386414
H25   H     H_    0.299642 0.897795 0.042106 0.135815
H26   H     H_    0.634347 0.262240 0.090187 0.125835
H27   H     H_    0.700293 0.897698 0.957938 0.135789
H28   H     H_    0.365636 0.262220 0.909842 0.125853
H29   H     H_    0.799613 0.397801 0.042096 0.135898
H30   H     H_    0.134293 0.762315 0.090323 0.125861
H31   H     H_    0.200393 0.397803 0.957900 0.135794
H32   H     H_    0.865838 0.762405 0.909482 0.125744
N33   N     N_R   0.752018 0.095121 0.300561 0.231390
O1    O     O_R   0.807950 0.130681 0.270298 -0.354531
O2    O     O_R   0.755958 0.048409 0.231538 -0.379647
N34   N     N_R   0.274173 0.841649 0.696235 0.222751
O3    O     O_R   0.227268 0.895984 0.742028 -0.329431
O4    O     O_R   0.256234 0.771691 0.736438 -0.345654
N35   N     N_R   0.247982 0.095110 0.699448 0.231356
O5    O     O_R   0.192052 0.130689 0.729732 -0.354535
O6    O     O_R   0.244047 0.048396 0.768466 -0.379680
N36   N     N_R   0.725840 0.841638 0.303854 0.222720
O7    O     O_R   0.772710 0.896011 0.258120 -0.329430
O8    O     O_R   0.743830 0.771691 0.263624 -0.345719
N37   N     N_R   0.252044 0.594838 0.300466 0.231503
O9    O     O_R   0.308023 0.630362 0.270060 -0.354451
O10   O     O_R   0.255853 0.548273 0.231434 -0.379968
N38   N     N_R   0.774162 0.341636 0.696146 0.222702
O11   O     O_R   0.727291 0.396007 0.741880 -0.329488
O12   O     O_R   0.756174 0.271689 0.736381 -0.345926
N39   N     N_R   0.747980 0.595096 0.699446 0.231414
O13   O     O_R   0.692039 0.630633 0.729710 -0.354510
O14   O     O_R   0.744054 0.548405 0.768477 -0.379637
N40   N     N_R   0.225826 0.341622 0.303849 0.222700
O15   O     O_R   0.272722 0.395965 0.258129 -0.329584
O16   O     O_R   0.243786 0.271674 0.263615 -0.345925
O17   O     O_3   0.518100 0.156559 0.213556 -0.753621
H33   H     H_    0.527033 0.210303 0.185196 0.339530
O18   O     O_3   0.458565 0.909963 0.843102 -0.751650
H34   H     H_    0.429867 0.889839 0.919514 0.330493
O19   O     O_3   0.481887 0.156545 0.786472 -0.753633
H35   H     H_    0.472950 0.210286 0.814842 0.339469
O20   O     O_3   0.541437 0.909911 0.156902 -0.751761
H36   H     H_    0.570127 0.889749 0.080511 0.330492
O21   O     O_3   0.018091 0.656591 0.213594 -0.753602
H37   H     H_    0.027005 0.710348 0.185285 0.339516
O22   O     O_3   0.958559 0.409961 0.843109 -0.751772
H38   H     H_    0.929858 0.389835 0.919520 0.330509
O23   O     O_3   0.982084 0.656721 0.786043 -0.753397
H39   H     H_    0.973191 0.710497 0.814281 0.339954
O24   O     O_3   0.041441 0.409965 0.156891 -0.751679
H40   H     H_    0.070143 0.389843 0.080478 0.330498
N41   N     N_R   0.618954 0.639055 0.513555 0.260086
O25   O     O_R   0.624125 0.565125 0.492371 -0.291092
O26   O     O_R   0.563068 0.675361 0.544811 -0.327948
N42   N     N_R   0.333784 0.294125 0.486811 0.247804
O27   O     O_R   0.357472 0.359909 0.434322 -0.310046
O28   O     O_R   0.354159 0.270584 0.541355 -0.344707
N43   N     N_R   0.382673 0.639351 0.482811 0.259973
O29   O     O_R   0.378055 0.565397 0.503559 -0.290595
O30   O     O_R   0.438811 0.675949 0.449907 -0.328645
N44   N     N_R   0.666337 0.294204 0.512871 0.247905
O31   O     O_R   0.642793 0.360112 0.565042 -0.309886
O32   O     O_R   0.645852 0.270529 0.458535 -0.344704
N45   N     N_R   0.118845 0.139080 0.513844 0.260090
O33   O     O_R   0.124000 0.065155 0.492629 -0.292079
O34   O     O_R   0.062902 0.175380 0.545340 -0.327621
N46   N     N_R   0.833697 0.794143 0.487025 0.247871
O35   O     O_R   0.857314 0.859997 0.434700 -0.309885
O36   O     O_R   0.854105 0.770536 0.541498 -0.344684
N47   N     N_R   0.880995 0.139071 0.486532 0.260066
O37   O     O_R   0.875713 0.065190 0.508048 -0.291174
O38   O     O_R   0.936996 0.175305 0.454898 -0.327654
N48   N     N_R   0.165040 0.793013 0.516154 0.247182
O39   O     O_R   0.139642 0.857321 0.572184 -0.309753
O40   O     O_R   0.146011 0.770977 0.459182 -0.344082
O41   O     O_3   0.270662 0.754341 0.930923 -0.682786
H41   H     H_    0.244596 0.705262 0.964977 0.329122
O42   O     O_3   0.702680 0.299267 0.213061 -0.674606
H42   H     H_    0.751717 0.309379 0.179912 0.325188
O43   O     O_3   0.729492 0.754412 0.069045 -0.682446
H43   H     H_    0.755579 0.705346 0.034992 0.329173
O44   O     O_3   0.297316 0.299259 0.786951 -0.674825
H44   H     H_    0.248279 0.309373 0.820096 0.325163
O45   O     O_3   0.770727 0.254280 0.930871 -0.682619
H45   H     H_    0.744673 0.205196 0.964924 0.329170
O46   O     O_3   0.202708 0.799269 0.213084 -0.675012
H46   H     H_    0.251753 0.809365 0.179900 0.325208
O47   O     O_3   0.229254 0.254273 0.069150 -0.682648
H47   H     H_    0.255309 0.205188 0.035103 0.329155
O48   O     O_3   0.797267 0.799257 0.786941 -0.674622
H48   H     H_    0.748204 0.809290 0.820180 0.325184

loop_
_geom_bond_atom_site_label_1
_geom_bond_atom_site_label_2
_geom_bond_distance
_ccdc_geom_bond_type
C50   C65   1.396774 A    
C2    N2    1.332952 A    
N8    Ni3   1.861927 S    
C16   N16   1.331910 A    
N41   O25   1.301715 A    
C29   N29   1.344466 A    
O48   H48   0.990022 S    
C84   C87   1.476497 S    
C35   C73   1.460531 S    
C45   C72   1.417240 S    
C30   C40   1.377646 A    
N27   Ni5   1.866769 S    
C76   C84   1.332680 D    
C31   N31   1.344465 A    
N33   O1    1.300696 A    
C27   N27   1.344440 A    
C63   N47   1.444207 S    
C79   H32   1.087049 S    
N35   O6    1.300104 A    
C43   C66   1.417067 S    
C9    N9    1.336103 A    
N37   O9    1.300680 A    
C17   C41   1.366746 A    
O21   H37   0.989394 S    
C81   O42   1.384756 S    
C75   C83   1.337093 D    
C85   O46   1.384758 S    
C41   C68   1.417053 S    
N36   O8    1.300904 A    
C50   H18   1.085744 S    
C2    C34   1.374641 A    
C49   H17   1.084112 S    
N34   O3    1.299516 A    
N46   O36   1.300788 A    
C56   C60   1.373532 A    
N20   Ni2   1.862575 S    
C64   C72   1.402823 A    
N15   N23   1.374035 A    
N5    Ni3   1.861953 S    
C15   C47   1.366917 A    
C37   C79   1.460628 S    
C25   C35   1.391594 A    
C30   N30   1.340962 A    
N36   O7    1.299514 A    
C1    C33   1.385941 A    
C6    N6    1.332954 A    
C25   N25   1.344441 A    
C60   C68   1.403467 A    
C55   H23   1.084053 S    
C58   N42   1.442979 S    
N40   O15   1.299513 A    
C52   C67   1.396756 A    
C34   C76   1.449568 S    
N10   N18   1.374035 A    
C20   N20   1.336941 A    
N16   N24   1.374035 A    
C19   C43   1.366732 A    
C31   C37   1.391620 A    
C61   N45   1.444229 S    
C18   C42   1.384074 A    
C7    C39   1.385943 A    
N4    Ni1   1.861927 S    
C15   H15   1.079110 S    
C30   O22   1.376183 S    
C23   N23   1.332215 A    
N23   Ni3   1.862575 S    
O46   H46   0.990024 S    
C24   N24   1.336938 A    
C11   C43   1.366917 A    
C4    H4    1.078387 S    
N13   Ni7   1.867434 S    
O45   H45   0.990549 S    
C5    H5    1.072362 S    
C81   C86   1.476378 S    
C29   C39   1.391654 A    
N11   N19   1.374035 A    
C5    C37   1.385962 A    
N32   Ni8   1.866773 S    
C79   C87   1.337126 D    
N7    Ni4   1.861928 S    
C53   C70   1.397677 A    
C22   N38   1.429824 S    
O24   H40   0.990770 S    
C8    H8    1.078407 S    
C15   N15   1.336112 A    
O47   H47   0.990568 S    
N42   O27   1.301651 A    
N41   O26   1.301176 A    
N31   Ni7   1.866769 S    
O19   H35   0.989400 S    
N18   Ni1   1.862602 S    
C21   N21   1.332328 A    
N10   Ni6   1.867434 S    
C62   C70   1.403426 A    
C40   C78   1.449450 S    
N33   O2    1.300108 A    
N3    Ni2   1.861928 S    
C10   H10   1.078768 S    
C46   C71   1.424813 S    
N37   O10   1.300115 A    
N28   Ni6   1.866773 S    
C25   O17   1.372817 S    
N12   N20   1.374035 A    
N6    Ni4   1.861956 S    
C88   O47   1.390271 S    
C53   H21   1.084099 S    
O20   H36   0.990767 S    
C18   N18   1.336816 A    
N3    N25   1.394079 A    
C1    H1    1.072369 S    
N46   O35   1.301724 A    
C23   C47   1.366730 A    
C57   C65   1.407441 A    
N35   O5    1.300698 A    
C56   H24   1.085739 S    
N14   Ni8   1.867434 S    
C7    H7    1.072408 S    
C22   N22   1.336940 A    
C28   O20   1.376176 S    
C11   H11   1.079106 S    
N45   O33   1.301734 A    
N16   Ni7   1.867457 S    
C18   N34   1.429826 S    
C12   N12   1.331918 A    
C47   C70   1.417066 S    
C52   C64   1.373121 A    
N43   O29   1.301688 A    
C13   N13   1.336099 A    
C8    C40   1.374618 A    
C26   C36   1.377653 A    
C55   C72   1.397589 A    
C78   H29   1.085823 S    
N48   O40   1.300803 A    
O43   H43   0.990556 S    
C22   C46   1.384170 A    
N47   O38   1.301187 A    
C82   C85   1.476440 S    
C19   N35   1.435611 S    
C73   C81   1.337092 D    
O42   H42   0.990026 S    
C4    C36   1.374609 A    
C64   N48   1.442111 S    
N5    N31   1.394083 A    
C29   O21   1.372817 S    
O41   H41   0.990560 S    
C59   N43   1.444036 S    
C12   C44   1.376975 A    
C38   C80   1.449441 S    
C28   N28   1.340986 A    
N7    N29   1.394079 A    
C80   H31   1.085830 S    
C3    N3    1.332411 A    
C54   H22   1.085739 S    
C84   O43   1.390268 S    
C51   H19   1.084129 S    
C48   C69   1.424818 S    
N39   O13   1.300695 A    
C62   N46   1.443002 S    
N26   Ni5   1.866748 S    
C42   C67   1.424881 S    
C74   H25   1.085828 S    
N8    N30   1.394083 A    
N25   Ni6   1.866749 S    
C16   C48   1.376960 A    
N14   N22   1.374035 A    
C27   C33   1.391598 A    
N44   O32   1.300756 A    
C3    C35   1.385941 A    
N19   Ni1   1.862575 S    
C20   C44   1.384151 A    
N21   Ni4   1.862600 S    
C19   N19   1.332217 A    
C56   C71   1.396776 A    
C20   N36   1.429830 S    
C2    H2    1.078406 S    
N47   O37   1.301709 A    
C10   N10   1.332034 A    
N1    N27   1.394083 A    
C61   C69   1.407425 A    
C33   C75   1.460530 S    
C55   C59   1.392762 A    
N38   O11   1.299515 A    
N2    N28   1.394078 A    
N15   Ni8   1.867455 S    
C59   C67   1.407504 A    
N30   Ni7   1.866748 S    
C17   N33   1.435617 S    
C14   N14   1.331904 A    
N42   O28   1.300780 A    
C51   C68   1.397691 A    
N29   Ni8   1.866749 S    
C17   N17   1.332211 A    
C32   C38   1.377645 A    
N12   Ni5   1.867457 S    
C27   O19   1.372814 S    
N6    N32   1.394078 A    
C49   C66   1.397672 A    
N4    N26   1.394083 A    
C82   O41   1.390271 S    
C39   C77   1.460588 S    
C10   C42   1.377025 A    
C86   O45   1.390279 S    
C87   O48   1.384753 S    
C50   C62   1.373483 A    
C9    C41   1.366905 A    
C6    C38   1.374609 A    
C60   N44   1.443060 S    
C49   C61   1.392703 A    
C51   C63   1.392678 A    
C28   C34   1.377735 A    
C52   H20   1.085756 S    
N34   O4    1.300899 A    
C83   C88   1.476370 S    
C21   N37   1.435613 S    
N45   O34   1.301175 A    
N9    N17   1.374035 A    
C6    H6    1.078412 S    
C32   N32   1.340966 A    
C54   C58   1.373490 A    
C32   O24   1.376183 S    
C13   C45   1.366964 A    
N22   Ni3   1.862602 S    
C57   N41   1.444265 S    
C78   C86   1.332602 D    
O17   H33   0.989396 S    
C77   C85   1.337117 D    
C24   N40   1.429825 S    
C75   H28   1.087050 S    
C74   C82   1.332641 D    
N13   N21   1.374035 A    
C7    N7    1.332416 A    
N17   Ni2   1.862600 S    
N38   O12   1.300901 A    
C8    N8    1.332951 A    
N9    Ni5   1.867434 S    
C73   H26   1.087051 S    
C44   C65   1.424833 S    
C83   O44   1.384758 S    
C16   H16   1.078766 S    
C24   C48   1.384143 A    
O23   H39   0.989403 S    
C63   C71   1.407400 A    
N40   O16   1.300904 A    
N11   Ni6   1.867455 S    
C3    H3    1.072370 S    
C76   H27   1.085824 S    
C36   C74   1.449516 S    
O22   H38   0.990767 S    
C4    N4    1.332982 A    
C11   N11   1.336106 A    
C77   H30   1.087047 S    
N24   Ni4   1.862575 S    
C31   O23   1.372828 S    
C23   N39   1.435618 S    
C1    N1    1.332407 A    
C12   H12   1.078764 S    
C14   C46   1.376958 A    
N44   O31   1.301627 A    
C5    N5    1.332453 A    
C13   H13   1.079159 S    
O44   H44   0.990028 S    
N43   O30   1.301319 A    
C54   C69   1.396781 A    
O18   H34   0.990767 S    
C53   C57   1.392713 A    
N2    Ni2   1.861956 S    
C14   H14   1.078767 S    
C26   O18   1.376181 S    
N1    Ni1   1.861953 S    
N48   O39   1.301930 A    
C58   C66   1.403403 A    
C21   C45   1.366695 A    
C80   C88   1.332597 D    
C9    H9    1.079102 S    
N39   O14   1.300113 A    
C26   N26   1.340982 A    
