data_mof_unit_57047.cif
_audit_creation_date              2013-03-05T15:45:39-0500
_audit_creation_method            fapswitch 2.2
_symmetry_space_group_name_H-M    P1
_symmetry_Int_Tables_number       1
_space_group_crystal_system       triclinic
_cell_length_a                    15.060894
_cell_length_b                    11.051525
_cell_length_c                    9.947361
_cell_angle_alpha                 111.426483
_cell_angle_beta                  98.299375
_cell_angle_gamma                 92.9205
_cell_volume                      1515.43393643

loop_
_atom_site_label
_atom_site_type_symbol
_atom_site_description
_atom_site_fract_x
_atom_site_fract_y
_atom_site_fract_z
_atom_type_partial_charge
O1    O     O_R   0.508410 0.332340 0.577400 -0.546815
O2    O     O_R   0.491590 0.667660 0.422600 -0.535021
O3    O     O_R   0.481780 0.295500 0.332650 -0.531656
O4    O     O_R   0.518220 0.704500 0.667350 -0.527279
C1    C     C_R   0.490834 0.254194 0.440113 0.835641
C2    C     C_R   0.508805 0.745789 0.559983 0.837321
O5    O     O_R   0.383570 0.518390 0.622380 -0.550590
O6    O     O_R   0.616430 0.481610 0.377620 -0.555528
O7    O     O_R   0.356940 0.481550 0.377630 -0.515042
O8    O     O_R   0.643060 0.518450 0.622370 -0.521768
C3    C     C_R   0.329397 0.501266 0.501046 0.908427
C4    C     C_R   0.670541 0.498291 0.498920 0.913572
Cu1   Cu    Cu3+1 0.515770 0.521810 0.644910 1.218945
Cu2   Cu    Cu3+1 0.484230 0.478190 0.355090 1.223269
C5    C     C_R   0.825401 0.599057 0.601298 0.615717
C6    C     C_R   0.174330 0.400739 0.397394 0.620552
C7    C     C_R   0.766762 0.494987 0.497795 -0.262255
C8    C     C_R   0.233115 0.503682 0.502619 -0.260058
C9    C     C_R   0.798839 0.389321 0.395596 0.250860
C10   C     C_R   0.201144 0.606240 0.608988 0.245680
C11   C     C_R   0.893116 0.387100 0.398456 -0.098025
C12   C     C_R   0.106940 0.608867 0.605564 -0.099065
C13   C     C_R   0.952950 0.496712 0.500965 -0.047180
C14   C     C_R   0.046994 0.500341 0.501463 -0.046571
C15   C     C_R   0.918750 0.602536 0.603713 -0.132385
C16   C     C_R   0.081157 0.395415 0.397534 -0.132974
C17   C     C_R   0.929523 0.279371 0.302638 0.234567
C18   C     C_R   0.070860 0.715972 0.702778 0.234043
C19   C     C_R   0.022010 0.285784 0.298906 0.253702
C20   C     C_R   0.978136 0.711089 0.704078 0.254619
C21   C     C_2   0.472819 0.114448 0.406419 0.087224
C22   C     C_2   0.525872 0.885631 0.594076 0.093762
C23   C     C_2   0.514619 0.064483 0.500432 0.481472
C24   C     C_2   0.483938 0.935235 0.499961 0.468613
N1    N     N_2   0.460520 0.445420 0.137370 -0.123564
N2    N     N_2   0.539480 0.554580 0.862630 -0.128203
C25   C     C_2   0.515564 0.498846 0.077373 0.387413
C26   C     C_2   0.496240 0.481322 0.916976 0.385454
F1    F     F_    0.789208 0.699274 0.695228 -0.552544
F2    F     F_    0.210256 0.302858 0.299883 -0.550250
N3    N     N_R   0.734596 0.286558 0.289174 0.163549
O9    O     O_R   0.718248 0.278034 0.153806 -0.197695
O10   O     O_R   0.683905 0.213211 0.331296 -0.291583
N4    N     N_R   0.265332 0.704220 0.721895 0.166179
O11   O     O_R   0.317439 0.782764 0.688675 -0.284542
O12   O     O_R   0.281209 0.701222 0.852684 -0.197994
N5    N     N_R   0.874769 0.158633 0.213721 0.183795
O13   O     O_R   0.848379 0.080462 0.274854 -0.198693
O14   O     O_R   0.865469 0.116379 0.071468 -0.157241
N6    N     N_R   0.126394 0.834892 0.795573 0.183144
O15   O     O_R   0.135489 0.872758 0.937500 -0.157965
O16   O     O_R   0.153909 0.915964 0.738775 -0.197635
N7    N     N_R   0.055382 0.176128 0.197363 0.221239
O17   O     O_R   0.067817 0.176999 0.070965 -0.161087
O18   O     O_R   0.063252 0.070052 0.224119 -0.181165
N8    N     N_R   0.945019 0.820472 0.806445 0.221638
O19   O     O_R   0.929784 0.816963 0.930518 -0.165379
O20   O     O_R   0.939820 0.928446 0.782889 -0.178805
F3    F     F_    0.410943 0.862009 0.400009 -0.581193
F4    F     F_    0.587670 0.137277 0.600702 -0.580874
N9    N     N_R   0.593236 0.961920 0.718940 0.174100
O21   O     O_R   0.669417 0.916415 0.742669 -0.173399
O22   O     O_R   0.571365 0.060721 0.823624 -0.161420
N10   N     N_R   0.404465 0.039010 0.282582 0.169537
O23   O     O_R   0.330515 0.088448 0.255785 -0.179113
O24   O     O_R   0.423540 0.934879 0.181560 -0.151804
N11   N     N_R   0.440207 0.364762 0.818663 0.119318
O25   O     O_R   0.462229 0.252113 0.816914 -0.260692
O26   O     O_R   0.357634 0.371965 0.764792 -0.277023
N12   N     N_R   0.604558 0.555990 0.156189 0.123422
O27   O     O_R   0.674296 0.509511 0.100168 -0.268244
O28   O     O_R   0.615839 0.670345 0.262178 -0.280699
N13   N     N_R   0.579481 0.678718 0.956633 0.253907
O29   O     O_R   0.651871 0.727510 0.929028 -0.152911
O30   O     O_R   0.534030 0.757090 0.046641 -0.233428
N14   N     N_R   0.369575 0.420748 0.073940 0.249963
O31   O     O_R   0.323327 0.314607 0.064822 -0.151412
O32   O     O_R   0.326541 0.515190 0.057844 -0.241881

loop_
_geom_bond_atom_site_label_1
_geom_bond_atom_site_label_2
_geom_bond_distance
_ccdc_geom_bond_type
C2    C22   1.456351 S    
C3    C8    1.453932 S    
C17   C19   1.397663 A    
N3    O10   1.301126 A    
N13   O29   1.299820 A    
N5    O14   1.301296 A    
N7    O17   1.301032 A    
O5    C3    1.300510 A    
O1    C1    1.300597 A    
C9    C11   1.417717 A    
C14   C16   1.420093 A    
C22   N9    1.437647 S    
C5    C15   1.400980 A    
N8    O19   1.301237 A    
N3    O9    1.300754 A    
O4    Cu1   1.946361 S    
N9    O22   1.300021 A    
C18   N6    1.434437 S    
C4    C7    1.453053 S    
N6    O16   1.301278 A    
C13   C14   1.414156 A    
C21   C23   1.348537 D    
N12   O27   1.300908 A    
C11   C17   1.419468 A    
C12   C18   1.418614 A    
Cu1   Cu2   2.708381 S    
N13   O30   1.300446 A    
O2    C2    1.301210 A    
C10   N4    1.435208 S    
N4    O12   1.301303 A    
N6    O15   1.301440 A    
N7    O18   1.300843 A    
C6    C16   1.401733 A    
N1    N14   1.391153 S    
N11   O25   1.299270 A    
N14   O31   1.300051 A    
Cu1   N2    2.034602 S    
O4    C2    1.299199 A    
Cu2   N1    2.034602 S    
C20   N8    1.433768 S    
N11   O26   1.299589 A    
C22   C24   1.347379 D    
O7    Cu2   1.962700 S    
C25   C26   1.517358 S    
N5    O13   1.301041 A    
O6    C4    1.300905 A    
C23   C24   1.476842 S    
O7    C3    1.299041 A    
C5    F1    1.359892 S    
O3    Cu2   1.946362 S    
O8    C4    1.298138 A    
C6    F2    1.359533 S    
C10   C12   1.416312 A    
C23   F4    1.363542 S    
C11   C13   1.428387 A    
C24   F3    1.363080 S    
C12   C14   1.427692 A    
O1    Cu1   1.943013 S    
N4    O11   1.301373 A    
C17   N5    1.434521 S    
C15   C20   1.411998 A    
C5    C7    1.389836 A    
O6    Cu2   1.968060 S    
N1    C25   1.320027 D    
C21   N10   1.438205 S    
N14   O32   1.302371 A    
O3    C1    1.300181 A    
O8    Cu1   1.962699 S    
N10   O23   1.301038 A    
N2    C26   1.318900 D    
C19   N7    1.433806 S    
C18   C20   1.396904 A    
C7    C9    1.400885 A    
N8    O20   1.301322 A    
C8    C10   1.400912 A    
C13   C15   1.420469 A    
N9    O21   1.300927 A    
O2    Cu2   1.943013 S    
N2    N13   1.391171 S    
O5    Cu1   1.968060 S    
C26   N11   1.434751 S    
C16   C19   1.411830 A    
C6    C8    1.390520 A    
N12   O28   1.300202 A    
C25   N12   1.434793 S    
C9    N3    1.435469 S    
N10   O24   1.299561 A    
C1    C21   1.457400 S    
