data_mof_unit_14610.cif
_audit_creation_date              2012-10-26T21:24:45-0400
_audit_creation_method            fapswitch 2.2
_symmetry_space_group_name_H-M    P1
_symmetry_Int_Tables_number       1
_space_group_crystal_system       triclinic
_cell_length_a                    9.570547
_cell_length_b                    10.895278
_cell_length_c                    15.466052
_cell_angle_alpha                 89.312805
_cell_angle_beta                  73.737801
_cell_angle_gamma                 91.147358
_cell_volume                      1547.6090006

loop_
_atom_site_label
_atom_site_type_symbol
_atom_type_description
_atom_site_fract_x
_atom_site_fract_y
_atom_site_fract_z
_atom_type_partial_charge
Br1   Br    Br    0.704974 0.125373 0.462773 -0.438394
Br2   Br    Br    0.323832 0.147837 0.355314 -0.464253
Br3   Br    Br    0.581054 0.331210 0.654341 -0.447384
Br4   Br    Br    0.503802 0.731448 0.805632 -0.510050
C1    C     C_R   0.998722 0.262491 0.498713 0.598168
C2    C     C_R   0.241006 0.598504 0.049062 0.019579
C3    C     C_R   0.337077 0.550941 0.095272 0.027023
C4    C     C_R   0.917804 0.500412 0.672292 0.562984
C5    C     C_R   0.092187 0.607942 0.093333 -0.135106
C6    C     C_R   0.037465 0.570647 0.183188 -0.125430
C7    C     C_R   0.278062 0.508891 0.184621 -0.111087
C8    C     C_R   0.108017 0.066843 0.520130 -0.009835
C9    C     C_R   0.992625 0.129109 0.502171 0.044498
C10   C     C_R   0.871143 0.059196 0.492688 0.162330
C11   C     C_R   0.873978 0.931581 0.496336 -0.098232
C12   C     C_R   0.684163 0.544313 0.910100 0.050920
C13   C     C_R   0.997321 0.870750 0.505199 -0.011860
C14   C     C_R   0.110273 0.940376 0.522085 -0.017983
C15   C     C_3   0.270375 0.939636 0.478490 -0.221556
C16   C     C_R   0.000696 0.737601 0.500491 0.547661
C17   C     C_3   0.268833 0.078793 0.477432 0.063257
C18   C     C_R   0.607704 0.543133 0.426844 0.145110
C19   C     C_R   0.541321 0.437268 0.564806 0.289864
C20   C     C_R   0.392973 0.440410 0.565547 0.042899
C21   C     C_R   0.460917 0.541712 0.426401 0.164398
C22   C     C_3   0.476240 0.666054 0.384116 -0.269353
C23   C     C_R   0.784944 0.516905 0.959101 0.046991
C24   C     C_3   0.634426 0.668165 0.385012 -0.270750
C25   C     C_R   0.082645 0.502890 0.327731 0.552396
C26   C     C_R   0.873778 0.506452 0.770999 0.008016
C27   C     C_R   0.130902 0.522925 0.229697 0.011470
C28   C     C_R   0.930448 0.493708 0.913706 -0.127110
C29   C     C_R   0.975418 0.491541 0.820034 -0.120652
C30   C     C_R   0.728678 0.529001 0.816585 -0.072969
C31   C     C_R   0.538670 0.574120 0.956787 0.044520
C32   C     C_R   0.488420 0.546483 0.050769 0.016216
C33   C     C_R   0.591886 0.519315 0.097736 -0.116909
C34   C     C_R   0.738164 0.508411 0.052625 -0.122170
C35   C     C_R   0.442132 0.632791 0.914774 0.141050
C36   C     C_R   0.295091 0.641405 0.960549 -0.090289
Cu1   Cu    Cu3+1 0.140670 0.499980 0.500000 0.988716
Cu2   Cu    Cu3+1 0.859330 0.500020 0.500000 1.060149
H1    H     H_    0.813676 0.487083 0.091024 0.117745
H2    H     H_    0.711696 0.668407 0.316463 0.126248
H3    H     H_    0.658105 0.737587 0.431001 0.156827
H4    H     H_    0.923469 0.582986 0.216916 0.119921
H5    H     H_    0.008790 0.474776 0.950597 0.122357
H6    H     H_    0.088371 0.473753 0.786306 0.145119
H7    H     H_    0.564021 0.510068 0.170067 0.111671
H8    H     H_    0.410377 0.732191 0.430627 0.149171
H9    H     H_    0.223004 0.685555 0.927379 0.151711
H10   H     H_    0.649517 0.528476 0.778947 0.198954
H11   H     H_    0.018812 0.647424 0.059080 0.115893
H12   H     H_    0.781651 0.880478 0.487077 0.158261
H13   H     H_    0.330868 0.901950 0.524214 0.143699
H14   H     H_    0.296295 0.900129 0.410080 0.169810
H15   H     H_    0.327021 0.121016 0.523020 0.179278
H16   H     H_    0.310790 0.393130 0.618656 0.139220
H17   H     H_    0.461691 0.665003 0.315288 0.133447
H18   H     H_    0.344581 0.464878 0.221115 0.144717
N1    N     N_R   0.648210 0.500930 0.499430 -0.219780
N2    N     N_R   0.352300 0.500890 0.499430 -0.254165
O1    O     O_R   0.118810 0.319640 0.500000 -0.488178
O2    O     O_R   0.881230 0.319680 0.499990 -0.426053
O3    O     O_R   0.055580 0.499970 0.629840 -0.521388
O4    O     O_R   0.818000 0.500010 0.629830 -0.459400
O5    O     O_R   0.118770 0.680320 0.500010 -0.506874
O6    O     O_R   0.881190 0.680360 0.500000 -0.516014
O7    O     O_R   0.182000 0.499990 0.370170 -0.496987
O8    O     O_R   0.944420 0.500030 0.370160 -0.502052

loop_
_geom_bond_atom_site_label_1
_geom_bond_atom_site_label_2
_ccdc_geom_bond_type
C15   H14   S    
C6    H4    S    
Cu2   O6    S    
C19   C20   A    
Cu1   Cu2   S    
C4    O4    A    
C33   C34   A    
C12   C23   A    
C36   H9    S    
C33   H7    S    
C3    C32   A    
C16   O5    A    
C30   H10   S    
C31   C32   A    
Br4   C35   S    
Cu2   O8    S    
C25   C27   S    
C4    C26   S    
C28   C29   A    
Br2   C17   S    
C17   H15   S    
C13   C14   A    
C21   C22   S    
C7    C27   A    
C34   H1    S    
Cu1   O5    S    
C18   C24   S    
C9    C10   A    
C18   N1    A    
C3    C7    A    
Cu2   N1    S    
C2    C3    A    
Cu1   N2    S    
C2    C5    A    
C1    C9    S    
Cu1   O7    S    
C32   C33   A    
C15   C17   S    
C16   O6    A    
C14   C15   S    
C25   O7    A    
C21   N2    A    
C22   H8    S    
C12   C31   A    
C31   C35   A    
C28   H5    S    
C2    C36   A    
C24   H3    S    
C4    O3    A    
C5    H11   S    
Cu1   O1    S    
C23   C34   A    
C15   H13   S    
C7    H18   S    
C11   H12   S    
Cu2   O2    S    
C19   N1    A    
C13   C16   S    
C8    C9    A    
C1    O1    A    
C20   H16   S    
C25   O8    A    
C5    C6    A    
C8    C14   A    
C35   C36   A    
Cu2   O4    S    
C29   H6    S    
C26   C30   A    
C10   C11   A    
C22   H17   S    
Cu1   O3    S    
Br1   C10   S    
C26   C29   A    
C12   C30   A    
C23   C28   A    
C11   C13   A    
C20   N2    A    
C22   C24   S    
C8    C17   S    
C24   H2    S    
Br3   C19   S    
C1    O2    A    
C18   C21   A    
C6    C27   A    
