data_mof_unit_11253.cif
_audit_creation_date              2012-12-10T19:46:53-0500
_audit_creation_method            fapswitch 2.2
_symmetry_space_group_name_H-M    P1
_symmetry_Int_Tables_number       1
_space_group_crystal_system       triclinic
_cell_length_a                    10.931403
_cell_length_b                    10.983017
_cell_length_c                    13.13573
_cell_angle_alpha                 92.291909
_cell_angle_beta                  92.175258
_cell_angle_gamma                 88.368042
_cell_volume                      1574.10164108

loop_
_atom_site_label
_atom_site_type_symbol
_atom_type_description
_atom_site_fract_x
_atom_site_fract_y
_atom_site_fract_z
_atom_type_partial_charge
C1    C     C_R   0.499187 0.259343 0.497946 0.839077
C2    C     C_R   0.500686 0.740620 0.502046 0.839962
C3    C     C_R   0.873125 0.495911 0.503480 -0.077275
C4    C     C_R   0.126954 0.502072 0.496181 -0.079781
C5    C     C_R   0.945044 0.489759 0.594416 0.062700
C6    C     C_R   0.055195 0.507780 0.405143 0.064778
C7    C     C_R   0.406929 0.199396 0.155995 -0.127279
C8    C     C_R   0.597253 0.802095 0.843564 -0.152473
C9    C     C_R   0.405879 0.166468 0.257474 -0.090839
C10   C     C_R   0.596714 0.834933 0.742001 -0.102737
C11   C     C_R   0.506244 0.103165 0.301116 0.098426
C12   C     C_R   0.494894 0.896254 0.698803 0.099462
C13   C     C_R   0.606046 0.069976 0.241240 -0.183612
C14   C     C_R   0.394744 0.926742 0.758925 -0.188414
C15   C     C_R   0.606633 0.097704 0.137945 -0.080871
C16   C     C_R   0.395477 0.899020 0.862307 -0.062898
C17   C     C_R   0.506658 0.166427 0.095086 -0.087170
C18   C     C_R   0.497671 0.833251 0.905266 -0.006964
C19   C     C_R   0.502611 0.928581 0.410442 -0.182180
C20   C     C_R   0.496549 0.071272 0.589558 -0.177802
C21   C     C_R   0.501589 0.873038 0.504485 -0.104651
C22   C     C_R   0.497886 0.126869 0.495487 -0.108706
C23   C     C_R   0.259372 0.502858 0.498266 0.845010
C24   C     C_R   0.740644 0.496363 0.501665 0.844709
C25   C     C_R   0.498664 0.945311 0.595644 0.014609
C26   C     C_R   0.500969 0.054506 0.404320 0.016288
C27   C     C_1   0.499708 0.500235 0.173610 0.143866
C28   C     C_1   0.499675 0.500429 0.826397 0.199509
C29   C     C_1   0.499357 0.500541 0.050705 -0.045621
C30   C     C_1   0.499282 0.500957 0.949320 -0.002858
C31   C     C_R   0.147700 0.682921 0.183443 0.038112
C32   C     C_R   0.864028 0.315921 0.819652 0.050245
C33   C     C_R   0.127592 0.650148 0.283009 -0.207960
C34   C     C_R   0.875954 0.348453 0.718741 -0.198317
C35   C     C_R   0.105162 0.529014 0.304559 0.031397
C36   C     C_R   0.896072 0.469568 0.695527 0.028683
C37   C     C_R   0.109179 0.437024 0.225469 0.011078
C38   C     C_R   0.896286 0.561948 0.774363 0.007346
C39   C     C_R   0.134986 0.470638 0.126465 -0.234701
C40   C     C_R   0.878862 0.528666 0.874939 -0.218755
C41   C     C_R   0.152237 0.592356 0.105358 -0.153282
C42   C     C_R   0.865652 0.406865 0.897646 -0.172461
C43   C     C_R   0.929030 0.504518 0.409989 -0.187344
C44   C     C_R   0.071138 0.492968 0.589493 -0.187091
Cu1   Cu    Cu3+1 0.499990 0.499990 0.592680 1.007450
Cu2   Cu    Cu3+1 0.500010 0.500010 0.407320 0.995154
H1    H     H_    0.504165 0.873370 0.340077 0.179041
H2    H     H_    0.494889 0.126419 0.659944 0.194195
N1    N     N_1   0.500030 0.500030 0.268070 -0.138531
N2    N     N_1   0.499970 0.499970 0.731930 -0.138939
O1    O     O_R   0.499980 0.319630 0.578260 -0.571590
O2    O     O_R   0.500020 0.680370 0.421740 -0.579856
O3    O     O_R   0.500000 0.319650 0.421740 -0.583591
O4    O     O_R   0.500000 0.680350 0.578260 -0.583326
O5    O     O_R   0.319630 0.500000 0.578260 -0.586248
O6    O     O_R   0.680370 0.500000 0.421740 -0.589279
O7    O     O_R   0.319650 0.500020 0.421740 -0.573519
O8    O     O_R   0.680350 0.499980 0.578260 -0.574110
H3    H     H_    0.168407 0.615879 0.027774 0.187822
H4    H     H_    0.857431 0.383812 0.976435 0.171175
H5    H     H_    0.680865 0.016146 0.274539 0.178130
H6    H     H_    0.318476 0.978772 0.725804 0.180751
C45   C     C_2   0.707986 0.044247 0.076974 0.910842
O9    O     O_2   0.691427 0.019016 0.986176 -0.558100
O10   O     O_R   0.821479 0.017033 0.124744 -0.744774
H7    H     H_    0.882009 0.977545 0.076089 0.380178
C46   C     C_2   0.292814 0.950226 0.922687 0.976777
O11   O     O_2   0.310323 0.984617 0.011484 -0.547510
O12   O     O_R   0.176981 0.966934 0.875593 -0.750484
H8    H     H_    0.115725 0.007634 0.922961 0.378781
C47   C     C_2   0.155406 0.812744 0.160722 0.928537
O13   O     O_2   0.120799 0.847562 0.077022 -0.569446
O14   O     O_R   0.199358 0.896144 0.235665 -0.755120
H9    H     H_    0.201602 0.982042 0.210513 0.353543
C48   C     C_2   0.857391 0.186077 0.843253 0.911511
O15   O     O_2   0.893223 0.151728 0.926854 -0.583305
O16   O     O_R   0.811447 0.102337 0.769446 -0.747404
H10   H     H_    0.808238 0.016931 0.795438 0.355353
H11   H     H_    0.120190 0.720408 0.343044 0.171878
H12   H     H_    0.879933 0.277962 0.658640 0.171868
C49   C     C_2   0.083956 0.306955 0.242378 0.789779
O17   O     O_2   0.084769 0.268705 0.328558 -0.597926
O18   O     O_R   0.060253 0.227114 0.158729 -0.742164
H13   H     H_    0.043360 0.141535 0.179576 0.365519
C50   C     C_2   0.918746 0.692043 0.755401 0.794610
O19   O     O_2   0.912015 0.729497 0.668890 -0.600786
O20   O     O_R   0.946682 0.772799 0.837483 -0.738778
H14   H     H_    0.961335 0.858193 0.815109 0.365247
H15   H     H_    0.139188 0.403013 0.064299 0.199553
H16   H     H_    0.878864 0.596570 0.937046 0.202060
H17   H     H_    0.874208 0.511134 0.339705 0.156958
H18   H     H_    0.126048 0.486457 0.659754 0.161233
C51   C     C_2   0.503649 0.206538 0.988151 0.888211
O21   O     O_2   0.407449 0.206538 0.937820 -0.558293
O22   O     O_R   0.607734 0.249944 0.944738 -0.727712
H19   H     H_    0.676567 0.265767 0.996866 0.284541
C52   C     C_2   0.504216 0.794060 0.012449 0.843866
O23   O     O_2   0.410984 0.773031 0.056341 -0.595571
O24   O     O_R   0.618348 0.775535 0.062063 -0.760609
H20   H     H_    0.611299 0.749547 0.134762 0.327364
H21   H     H_    0.329195 0.250615 0.124640 0.167403
H22   H     H_    0.676531 0.752619 0.874240 0.182132
H23   H     H_    0.326514 0.189410 0.301926 0.158128
H24   H     H_    0.676109 0.813669 0.697159 0.164161

loop_
_geom_bond_atom_site_label_1
_geom_bond_atom_site_label_2
_ccdc_geom_bond_type
O20   H14   S    
C45   O10   S    
C51   O21   D    
C27   C29   S    
O14   H9    S    
O22   H19   S    
C32   C48   S    
C52   O23   D    
C39   C41   A    
C50   O19   D    
Cu2   N1    S    
C3    C43   A    
C35   C37   A    
C19   H1    S    
C20   C25   A    
Cu1   O1    S    
C14   H6    S    
C5    C36   S    
Cu2   O2    S    
C6    C35   S    
C15   C17   A    
C19   C26   A    
C1    O3    A    
C34   H12   S    
C28   N2    T    
O18   H13   S    
C7    C17   A    
C31   C33   A    
C18   C52   S    
C44   H18   S    
O16   H10   S    
C40   C42   A    
C1    C22   S    
C51   O22   S    
C37   C49   S    
C3    C24   S    
C10   C12   A    
C49   O18   S    
C49   O17   D    
C50   O20   S    
Cu1   O8    S    
C38   C50   S    
C46   O11   D    
C41   H3    S    
C4    C6    A    
C2    O4    A    
C42   H4    S    
C47   O14   S    
C4    C23   S    
C33   H11   S    
C4    C44   A    
C11   C26   S    
Cu1   Cu2   S    
C8    C18   A    
C46   O12   S    
C32   C34   A    
C48   O15   D    
C29   C30   T    
C48   O16   S    
O24   H20   S    
C9    H23   S    
C2    C21   S    
C16   C46   S    
C9    C11   A    
C20   H2    S    
C2    O2    A    
C8    C10   A    
C5    C44   A    
C12   C14   A    
Cu1   O4    S    
C6    C43   A    
C13   C15   A    
Cu2   O7    S    
C22   C26   A    
C14   C16   A    
C17   C51   S    
C36   C38   A    
C23   O7    A    
C21   C25   A    
C52   O24   S    
C31   C41   A    
C19   C21   A    
C16   C18   A    
C20   C22   A    
C3    C5    A    
C23   O5    A    
C24   O6    A    
C1    O1    A    
C15   C45   S    
C12   C25   S    
C10   H24   S    
C47   O13   D    
C37   C39   A    
C38   C40   A    
C11   C13   A    
Cu1   N2    S    
Cu2   O3    S    
C28   C30   S    
C33   C35   A    
C34   C36   A    
O12   H8    S    
C43   H17   S    
C45   O9    D    
C7    C9    A    
C13   H5    S    
Cu1   O5    S    
C24   O8    A    
O10   H7    S    
C7    H21   S    
Cu2   O6    S    
C32   C42   A    
C40   H16   S    
C8    H22   S    
C39   H15   S    
C27   N1    T    
C31   C47   S    
