data_mof_unit_40734.cif
_audit_creation_date              2013-03-05T16:15:17-0500
_audit_creation_method            fapswitch 2.2
_symmetry_space_group_name_H-M    P1
_symmetry_Int_Tables_number       1
_space_group_crystal_system       triclinic
_cell_length_a                    27.807998
_cell_length_b                    10.617583
_cell_length_c                    9.404523
_cell_angle_alpha                 90.409331
_cell_angle_beta                  89.948814
_cell_angle_gamma                 89.955668
_cell_volume                      2776.64765129

loop_
_atom_site_label
_atom_site_type_symbol
_atom_site_description
_atom_site_fract_x
_atom_site_fract_y
_atom_site_fract_z
_atom_type_partial_charge
O1    O     O_R   0.500020 0.316850 0.620870 -0.581634
O2    O     O_R   0.499980 0.683150 0.379130 -0.581604
O3    O     O_R   0.500000 0.316860 0.379090 -0.587830
O4    O     O_R   0.500000 0.683140 0.620910 -0.587798
C1    C     C_R   0.500012 0.259358 0.499473 0.788317
C2    C     C_R   0.499988 0.740642 0.500527 0.788457
O5    O     O_R   0.430270 0.500020 0.620880 -0.587573
O6    O     O_R   0.569730 0.499980 0.379120 -0.587652
O7    O     O_R   0.430250 0.500030 0.379090 -0.583404
O8    O     O_R   0.569750 0.499970 0.620910 -0.583515
C3    C     C_R   0.407484 0.499960 0.500155 0.804524
C4    C     C_R   0.592517 0.499984 0.499845 0.804559
Cu1   Cu    Cu3+1 0.500010 0.499990 0.643150 0.933447
Cu2   Cu    Cu3+1 0.499990 0.500010 0.356850 0.933468
C5    C     C_R   0.178102 0.388134 0.490188 0.521261
C6    C     C_R   0.821875 0.612651 0.498754 0.520906
O9    O     O_2   0.203049 0.279271 0.481125 -0.536113
O10   O     O_2   0.796899 0.721680 0.496995 -0.536370
N1    N     N_R   0.202112 0.500050 0.500685 -0.472288
N2    N     N_R   0.797893 0.500372 0.499435 -0.472346
C7    C     C_R   0.178085 0.612198 0.508640 0.521075
C8    C     C_R   0.821947 0.388159 0.502689 0.521443
C9    C     C_R   0.278740 0.504868 0.374684 -0.121415
C10   C     C_R   0.721255 0.500978 0.625540 -0.121017
C11   C     C_R   0.328742 0.504758 0.373230 -0.222844
C12   C     C_R   0.671253 0.500825 0.626964 -0.223110
C13   C     C_R   0.329338 0.494586 0.630829 -0.202405
C14   C     C_R   0.670678 0.499330 0.369018 -0.202492
C15   C     C_R   0.278707 0.494348 0.633954 0.184506
C16   C     C_R   0.721309 0.499347 0.365918 0.184387
C17   C     C_R   0.253660 0.499784 0.503510 0.313396
C18   C     C_R   0.746345 0.500281 0.496564 0.313352
C19   C     C_R   0.101967 0.500320 0.499067 -0.043796
C20   C     C_R   0.898037 0.500434 0.501099 -0.043877
C21   C     C_R   0.127630 0.386126 0.489574 -0.018695
C22   C     C_R   0.872346 0.614801 0.499312 -0.018407
C23   C     C_R   0.102535 0.272695 0.479432 -0.147537
C24   C     C_R   0.897412 0.728535 0.496909 -0.147480
C25   C     C_R   0.127612 0.614441 0.508222 -0.018403
C26   C     C_R   0.872420 0.386057 0.503209 -0.018641
C27   C     C_R   0.354483 0.499772 0.501183 -0.086366
C28   C     C_R   0.645520 0.500041 0.498828 -0.086681
H1    H     H_    0.349598 0.490574 0.728646 0.166014
H2    H     H_    0.650428 0.498726 0.271044 0.166409
H3    H     H_    0.121432 0.183710 0.470200 0.187026
H4    H     H_    0.878491 0.817738 0.493911 0.186759
C29   C     C_R   0.974473 0.383996 0.499215 0.043671
C30   C     C_R   0.025543 0.616759 0.505921 0.043716
C31   C     C_R   0.974415 0.616877 0.501744 0.043757
C32   C     C_R   0.025578 0.384066 0.493483 0.043605
C33   C     C_R   0.949195 0.500439 0.500723 0.065708
C34   C     C_R   0.050809 0.500387 0.499454 0.065778
C35   C     C_R   0.947483 0.271033 0.504481 -0.205316
C36   C     C_R   0.052576 0.729412 0.517168 -0.205338
C37   C     C_R   0.897560 0.272343 0.506059 -0.147387
C38   C     C_R   0.102501 0.727982 0.517937 -0.147631
O11   O     O_2   0.797045 0.279120 0.504687 -0.536015
O12   O     O_2   0.203016 0.720991 0.517442 -0.536575
C39   C     C_R   0.052613 0.271400 0.480960 -0.205569
C40   C     C_R   0.947337 0.729859 0.497751 -0.205112
H5    H     H_    0.652804 0.501382 0.728450 0.158113
H6    H     H_    0.347186 0.508830 0.271881 0.157560
H7    H     H_    0.740765 0.501646 0.725106 0.138857
H8    H     H_    0.259226 0.508989 0.275253 0.139191
H9    H     H_    0.878699 0.183145 0.509555 0.186749
H10   H     H_    0.121387 0.816935 0.526663 0.186879
H11   H     H_    0.963692 0.179131 0.509694 0.134569
H12   H     H_    0.036420 0.821099 0.527868 0.134922
H13   H     H_    0.036440 0.179829 0.469869 0.135086
H14   H     H_    0.963456 0.821816 0.492940 0.134482
C41   C     C_3   0.539548 0.042570 0.566679 -0.161767
C42   C     C_3   0.460451 0.957431 0.433321 -0.161559
C43   C     C_3   0.539470 0.957236 0.432736 -0.163731
C44   C     C_3   0.460528 0.042766 0.567264 -0.163527
H15   H     H_    0.571751 0.918991 0.377863 0.134840
H16   H     H_    0.428248 0.081013 0.622137 0.134574
H17   H     H_    0.571894 0.080650 0.621066 0.135836
H18   H     H_    0.428105 0.919350 0.378934 0.135651
C45   C     C_3   0.499993 0.877585 0.501452 0.016953
C46   C     C_3   0.500006 0.122415 0.498548 0.016983
C47   C     C_3   0.500070 0.960631 0.635513 -0.140023
C48   C     C_3   0.499928 0.039370 0.364487 -0.140060
H19   H     H_    0.500132 0.925838 0.746556 0.129531
H20   H     H_    0.499867 0.074163 0.253444 0.129534
C49   C     C_3   0.534639 0.568607 0.051151 -0.037059
C50   C     C_3   0.465361 0.431393 0.948848 -0.036200
C51   C     C_3   0.494634 0.612937 0.950459 -0.035961
C52   C     C_3   0.505367 0.387062 0.049541 -0.035924
H21   H     H_    0.490027 0.708171 0.904480 0.112541
H22   H     H_    0.509974 0.291829 0.095521 0.112464
H23   H     H_    0.563761 0.626280 0.099282 0.111721
H24   H     H_    0.436237 0.373721 0.900718 0.111093
N3    N     N_3   0.500040 0.499970 0.858290 -0.153751
N4    N     N_3   0.499960 0.500030 0.141710 -0.153737
C53   C     C_3   0.540049 0.455654 0.949119 -0.039128
C54   C     C_3   0.459952 0.544346 0.050880 -0.038041
H25   H     H_    0.573742 0.418091 0.901605 0.112736
H26   H     H_    0.426261 0.581922 0.098393 0.111883
C55   C     C_3   0.250155 0.488333 0.772017 -0.372176
C56   C     C_3   0.279790 0.481342 0.908752 -0.866671
H27   H     H_    0.302551 0.395320 0.908648 0.252944
H28   H     H_    0.302573 0.566609 0.921074 0.250745
H29   H     H_    0.255137 0.476711 0.001498 0.250516
H30   H     H_    0.226762 0.573010 0.779587 0.221054
H31   H     H_    0.226438 0.404193 0.768056 0.220043
C57   C     C_3   0.749878 0.498288 0.227670 -0.371721
C58   C     C_3   0.720261 0.496588 0.090629 -0.867401
H32   H     H_    0.697576 0.410631 0.085025 0.252804
H33   H     H_    0.697407 0.582191 0.083913 0.251254
H34   H     H_    0.744936 0.495647 0.997756 0.249948
H35   H     H_    0.773281 0.583031 0.225501 0.221064
H36   H     H_    0.773583 0.413979 0.226313 0.220014

loop_
_geom_bond_atom_site_label_1
_geom_bond_atom_site_label_2
_geom_bond_distance
_ccdc_geom_bond_type
C13   C15   1.408210 A    
C43   H15   1.110229 S    
N1    C17   1.433720 S    
C8    O11   1.349728 S    
C49   H23   1.110472 S    
C57   H36   1.111270 S    
C19   C34   1.422597 A    
C5    N1    1.366450 A    
C20   C33   1.422594 A    
C19   C25   1.408588 A    
C31   C40   1.416593 A    
C44   H16   1.110232 S    
O1    C1    1.290775 A    
C32   C39   1.416513 A    
N1    C7    1.366493 A    
C12   H5    1.083146 S    
C10   C12   1.390505 A    
C42   C45   1.531639 S    
C50   C52   1.537323 S    
C36   H12   1.075878 S    
C57   C58   1.530099 S    
O4    Cu1   1.957311 S    
C4    C28   1.473947 S    
C37   H9    1.083652 S    
C55   C56   1.530173 S    
C14   C16   1.408217 A    
C31   C33   1.421806 A    
C54   H26   1.110277 S    
C32   C34   1.421693 A    
C58   H32   1.110831 S    
O6    C4    1.300712 A    
C29   C35   1.416508 A    
C35   C37   1.388380 A    
C55   H30   1.111142 S    
C52   C53   1.536792 S    
N3    C53   1.481718 S    
C44   C46   1.531649 S    
Cu1   Cu2   2.692516 S    
C16   C57   1.523028 S    
C58   H33   1.110843 S    
O2    C2    1.290779 A    
C35   H11   1.075991 S    
C5    C21   1.403723 A    
C41   C46   1.531637 S    
C47   H19   1.110208 S    
O5    C3    1.300688 A    
C29   C32   1.422083 A    
C52   N4    1.482317 S    
C57   H35   1.111168 S    
C49   C51   1.537313 S    
C55   H31   1.111268 S    
C36   C38   1.388403 A    
C15   C55   1.523092 S    
C42   C44   1.546414 S    
C11   C27   1.401998 A    
C45   C47   1.533357 S    
C29   C33   1.421707 A    
C14   H2    1.080261 S    
C56   H29   1.110292 S    
Cu1   N3    2.023292 S    
C9    C17   1.398800 A    
C30   C36   1.416577 A    
O7    Cu2   1.950390 S    
C10   C18   1.398732 A    
C50   N3    1.481204 S    
C49   N4    1.481200 S    
C13   C27   1.406431 A    
C25   C38   1.395099 A    
C7    C25   1.403724 A    
C40   H14   1.075879 S    
C6    N2    1.366487 A    
C26   C37   1.395124 A    
C8    C26   1.403713 A    
C51   C54   1.536787 S    
C56   H28   1.110836 S    
C43   C45   1.531650 S    
C50   C54   1.537759 S    
C1    C46   1.453965 S    
N4    C54   1.481714 S    
O7    C3    1.302239 A    
C23   C39   1.388381 A    
O3    Cu2   1.957310 S    
O8    C4    1.302244 A    
C39   H13   1.075983 S    
C24   C40   1.388409 A    
C46   C48   1.533355 S    
C9    H8    1.082694 S    
C52   H22   1.109939 S    
C10   H7    1.082593 S    
C48   H20   1.110209 S    
C51   H21   1.109940 S    
C58   H34   1.110206 S    
C20   C26   1.408654 A    
O4    C2    1.290105 A    
O1    Cu1   1.954273 S    
C44   C47   1.545745 S    
C23   H3    1.083653 S    
C43   C48   1.545742 S    
C41   H17   1.110217 S    
C12   C28   1.402035 A    
C41   C43   1.546412 S    
N2    C18   1.433726 S    
C5    O9    1.349729 S    
C30   C31   1.422328 A    
O6    Cu2   1.950792 S    
C21   C23   1.395115 A    
N2    C8    1.366460 A    
O3    C1    1.290105 A    
O8    Cu1   1.950390 S    
C53   H25   1.110296 S    
C22   C24   1.395098 A    
C7    O12   1.349731 S    
C15   C17   1.412757 A    
C50   H24   1.110483 S    
C6    C22   1.403731 A    
C16   C18   1.412711 A    
C49   C53   1.537756 S    
C2    C45   1.453971 S    
C38   H10   1.083652 S    
C51   N3    1.482312 S    
C14   C28   1.406468 A    
C56   H27   1.110818 S    
C19   C21   1.408660 A    
C3    C27   1.473889 S    
C20   C22   1.408604 A    
C11   H6    1.083119 S    
C9    C11   1.390516 A    
O2    Cu2   1.954272 S    
C24   H4    1.083660 S    
C13   H1    1.080256 S    
O5    Cu1   1.950792 S    
C6    O10   1.349734 S    
C42   H18   1.110217 S    
C30   C34   1.421813 A    
Cu2   N4    2.023292 S    
C42   C48   1.545749 S    
C41   C47   1.545747 S    
