data_mof_unit_44121.cif
_audit_creation_date              2013-03-05T16:48:45-0500
_audit_creation_method            fapswitch 2.2
_symmetry_space_group_name_H-M    P1
_symmetry_Int_Tables_number       1
_space_group_crystal_system       triclinic
_cell_length_a                    27.733284
_cell_length_b                    8.958838
_cell_length_c                    8.08539
_cell_angle_alpha                 89.892881
_cell_angle_beta                  90.074142
_cell_angle_gamma                 91.361424
_cell_volume                      2008.30765731

loop_
_atom_site_label
_atom_site_type_symbol
_atom_site_description
_atom_site_fract_x
_atom_site_fract_y
_atom_site_fract_z
_atom_type_partial_charge
O1    O     O_R   0.500000 0.285350 0.636850 -0.615527
O2    O     O_R   0.500000 0.714650 0.363150 -0.619649
O3    O     O_R   0.500000 0.714650 0.636850 -0.616150
O4    O     O_R   0.500000 0.285350 0.363150 -0.616555
C1    C     C_R   0.499890 0.217858 0.500101 0.936246
C2    C     C_R   0.500078 0.782139 0.499898 0.927792
O5    O     O_R   0.428760 0.500000 0.636860 -0.600052
O6    O     O_R   0.571240 0.500000 0.363140 -0.601478
O7    O     O_R   0.571240 0.500000 0.636860 -0.602470
O8    O     O_R   0.428760 0.500000 0.363140 -0.605220
C3    C     C_R   0.405715 0.497148 0.499931 0.896366
C4    C     C_R   0.594520 0.502344 0.500161 0.879518
Zn1   Zn    Zn3+2 0.500000 0.500000 0.682780 1.010253
Zn2   Zn    Zn3+2 0.500000 0.500000 0.317220 1.007631
C5    C     C_R   0.175041 0.333713 0.463934 0.525964
C6    C     C_R   0.827437 0.639111 0.464297 0.515285
C7    C     C_R   0.180181 0.585286 0.562550 0.506106
C8    C     C_R   0.820800 0.378651 0.528202 0.501829
O9    O     O_2   0.198319 0.210193 0.417229 -0.531029
O10   O     O_2   0.805250 0.769805 0.440229 -0.545221
O11   O     O_2   0.208679 0.700594 0.612652 -0.575396
O12   O     O_2   0.791809 0.257646 0.552006 -0.575102
N1    N     N_R   0.201189 0.457558 0.510188 -0.349765
N2    N     N_R   0.800378 0.513392 0.497889 -0.343709
C9    C     C_R   0.275785 0.536362 0.373899 -0.140159
C10   C     C_R   0.723969 0.482699 0.645380 -0.138131
C11   C     C_R   0.278853 0.387992 0.624261 -0.155523
C12   C     C_R   0.723801 0.559054 0.358426 -0.144184
C13   C     C_R   0.326027 0.551597 0.372489 0.039244
C14   C     C_R   0.673680 0.473138 0.646290 0.046149
C15   C     C_R   0.329051 0.400523 0.625065 0.031708
C16   C     C_R   0.673401 0.556995 0.357015 0.042711
C17   C     C_R   0.252473 0.456567 0.500091 0.280605
C18   C     C_R   0.748915 0.521613 0.501417 0.269954
C19   C     C_R   0.101890 0.468796 0.513828 -0.120481
C20   C     C_R   0.899760 0.496024 0.498114 -0.113946
C21   C     C_R   0.124404 0.335299 0.466038 -0.024589
C22   C     C_R   0.877984 0.633213 0.460520 -0.041513
C23   C     C_R   0.129702 0.596354 0.561920 -0.050124
C24   C     C_R   0.871268 0.366152 0.531240 -0.055262
C25   C     C_R   0.095487 0.210313 0.417844 0.151165
C26   C     C_R   0.907505 0.759586 0.421284 0.160225
C27   C     C_R   0.105728 0.729439 0.605177 0.110181
C28   C     C_R   0.894596 0.229958 0.566707 0.118390
C29   C     C_R   0.352957 0.484052 0.499762 -0.059391
C30   C     C_R   0.647770 0.510309 0.500902 -0.082670
H1    H     H_    0.260237 0.327043 0.721905 0.149129
H2    H     H_    0.743792 0.589141 0.247761 0.145878
H3    H     H_    0.254409 0.590262 0.279853 0.141275
H4    H     H_    0.744159 0.454044 0.755325 0.143614
C31   C     C_R   0.972677 0.349391 0.511584 0.016581
C32   C     C_R   0.028683 0.613722 0.528100 0.020124
C33   C     C_R   0.978821 0.621388 0.496909 0.031856
C34   C     C_R   0.023004 0.343603 0.489762 0.041672
C35   C     C_R   0.950413 0.488862 0.502279 0.075829
C36   C     C_R   0.051197 0.475256 0.511365 0.079850
C37   C     C_R   0.944382 0.221614 0.547547 -0.213873
C38   C     C_R   0.056225 0.738623 0.579277 -0.221686
C39   C     C_R   0.957119 0.755319 0.451784 -0.259672
C40   C     C_R   0.045545 0.212869 0.439328 -0.283988
H5    H     H_    0.961009 0.115747 0.572309 0.153903
H6    H     H_    0.039148 0.842709 0.608741 0.155245
H7    H     H_    0.979067 0.854348 0.427403 0.127091
H8    H     H_    0.024406 0.114787 0.404409 0.132224
C41   C     C_1   0.499938 0.065112 0.500143 -0.186947
C42   C     C_1   0.500004 0.934883 0.499855 -0.188627
N3    N     N_1   0.500000 0.500000 0.073640 -0.023698
N4    N     N_1   0.500000 0.500000 0.926360 -0.023495
N5    N     N_3   0.355639 0.326443 0.751907 -0.427047
H9    H     H_    0.346849 0.212394 0.746698 0.193373
H10   H     H_    0.344273 0.366522 0.866471 0.203478
N6    N     N_3   0.648382 0.603471 0.210410 -0.412646
H11   H     H_    0.672523 0.622733 0.113008 0.183592
H12   H     H_    0.632944 0.706147 0.236434 0.197222
N7    N     N_3   0.349650 0.639065 0.245699 -0.422142
H13   H     H_    0.363712 0.735902 0.301532 0.188595
H14   H     H_    0.324775 0.673677 0.157062 0.191757
N8    N     N_3   0.649132 0.421258 0.792915 -0.412229
H15   H     H_    0.635666 0.313514 0.768557 0.199468
H16   H     H_    0.673235 0.411616 0.891725 0.184273
N9    N     N_3   0.115933 0.083705 0.338451 -0.383712
H17   H     H_    0.103946 0.082672 0.215798 0.185993
H18   H     H_    0.101848 0.986969 0.393929 0.184093
N10   N     N_3   0.887711 0.888751 0.343160 -0.400861
H19   H     H_    0.914374 0.971427 0.324089 0.171746
H20   H     H_    0.875793 0.856259 0.225589 0.202680
N11   N     N_3   0.129811 0.856967 0.677456 -0.449207
H21   H     H_    0.155012 0.902066 0.594334 0.262613
H22   H     H_    0.146974 0.824150 0.786346 0.230681
N12   N     N_3   0.869702 0.099937 0.630004 -0.428327
H23   H     H_    0.845221 0.059337 0.542023 0.289621
H24   H     H_    0.851412 0.128696 0.737901 0.220682

loop_
_geom_bond_atom_site_label_1
_geom_bond_atom_site_label_2
_geom_bond_distance
_ccdc_geom_bond_type
C38   H6    1.082916 S    
N11   H21   1.044117 S    
N6    H12   1.045653 S    
O3    C2    1.260615 A    
N9    H17   1.045519 S    
C33   C39   1.402551 A    
C16   N6    1.438633 S    
C34   C40   1.402164 A    
C11   C17   1.392051 A    
C5    O9    1.349096 S    
C7    N1    1.364634 A    
O1    C1    1.261155 A    
C19   C21   1.416817 A    
N10   H20   1.045598 S    
C22   C26   1.417041 A    
C10   H4    1.083661 S    
N8    H16   1.045792 S    
C7    C23   1.405811 A    
N5    H10   1.045787 S    
C8    C24   1.406958 A    
C5    C21   1.404848 A    
C20   C24   1.416169 A    
O7    Zn1   2.010772 S    
C27   C38   1.392833 A    
C10   C18   1.394332 A    
N1    C17   1.424962 S    
Zn2   N3    1.969439 S    
C31   C37   1.402634 A    
C24   C28   1.423109 A    
O3    Zn1   1.957862 S    
C6    O10   1.349243 S    
C5    N1    1.363577 A    
C12   C18   1.393491 A    
C6    N2    1.365529 A    
C21   C25   1.416670 A    
O2    C2    1.261150 A    
N9    H18   1.042974 S    
O5    C3    1.277625 A    
C9    H3    1.083466 S    
C33   C35   1.409844 A    
C9    C13   1.396867 A    
C34   C36   1.410514 A    
C11   C15   1.394024 A    
N3    N4    1.190815 T    
C12   C16   1.397481 A    
C26   N10   1.437343 S    
N10   H19   1.045476 S    
C1    C41   1.368462 S    
O8    Zn2   2.010775 S    
N8    H15   1.045643 S    
N6    H11   1.045760 S    
C23   C27   1.423283 A    
N2    C18   1.431207 S    
C13   C29   1.414258 A    
C19   C23   1.418104 A    
N7    H13   1.045672 S    
C15   N5    1.433416 S    
N12   H24   1.045440 S    
C2    C42   1.368460 S    
C28   C37   1.393382 A    
O6    C4    1.281496 A    
C25   N9    1.433312 S    
N7    H14   1.045811 S    
C32   C38   1.402512 A    
C4    C30   1.476831 S    
C10   C14   1.395311 A    
N11   H22   1.045339 S    
C8    N2    1.367121 A    
C3    C29   1.465058 S    
O1    Zn1   1.959226 S    
C28   N12   1.433835 S    
C32   C33   1.408601 A    
C11   H1    1.083529 S    
C12   H2    1.083471 S    
O6    Zn2   2.009828 S    
C19   C36   1.408575 A    
C8    O12   1.347916 S    
C16   C30   1.421223 A    
C14   C30   1.420149 A    
C25   C40   1.396873 A    
O4    C1    1.260615 A    
C26   C39   1.398956 A    
C37   H5    1.082634 S    
C13   N7    1.438244 S    
C39   H7    1.081872 S    
C40   H8    1.082378 S    
C31   C34   1.409258 A    
C27   N11   1.434627 S    
C20   C22   1.414587 A    
C20   C35   1.408123 A    
N12   H23   1.042724 S    
C31   C35   1.408673 A    
O4    Zn2   1.957862 S    
N5    H9    1.045689 S    
O2    Zn2   1.959225 S    
O7    C4    1.280626 A    
C7    O11   1.348269 S    
O8    C3    1.278015 A    
C14   N8    1.438735 S    
O5    Zn1   2.009830 S    
C41   C42   1.166744 T    
C15   C29   1.414669 A    
C9    C17   1.395384 A    
C32   C36   1.408769 A    
C6    C22   1.404474 A    
Zn1   N4    1.969439 S    
