data_mof_unit_16803.cif
_audit_creation_date              2012-12-10T17:33:00-0500
_audit_creation_method            fapswitch 2.2
_symmetry_space_group_name_H-M    P1
_symmetry_Int_Tables_number       1
_space_group_crystal_system       triclinic
_cell_length_a                    12.37698
_cell_length_b                    13.30883
_cell_length_c                    14.224044
_cell_angle_alpha                 93.590272
_cell_angle_beta                  107.513584
_cell_angle_gamma                 116.835619
_cell_volume                      1938.79555299

loop_
_atom_site_label
_atom_site_type_symbol
_atom_type_description
_atom_site_fract_x
_atom_site_fract_y
_atom_site_fract_z
_atom_type_partial_charge
C1    C     C_R   0.648123 0.712878 0.504436 0.780720
C2    C     C_R   0.870616 0.534924 0.926055 0.090725
C3    C     C_R   0.809761 0.532992 0.996480 0.169051
C4    C     C_R   0.992967 0.538235 0.958152 0.063357
C5    C     C_R   0.044412 0.524296 0.057124 0.065182
C6    C     C_R   0.980985 0.522984 0.125360 -0.224031
C7    C     C_R   0.866949 0.529120 0.095723 -0.234883
C8    C     C_R   0.066992 0.557925 0.895502 -0.225193
C9    C     C_R   0.185224 0.559262 0.927303 -0.230205
C10   C     C_R   0.232535 0.538253 0.021371 0.166507
C11   C     C_R   0.160565 0.516772 0.085861 0.088990
C12   C     C_R   0.618544 0.517227 0.686910 0.795025
C13   C     C_R   0.352928 0.541093 0.052769 -0.207554
C14   C     C_R   0.402877 0.523121 0.147790 -0.208743
C15   C     C_R   0.207733 0.488614 0.177179 -0.248275
C16   C     C_R   0.191881 0.961156 0.437923 -0.203562
C17   C     C_R   0.256544 0.163761 0.478730 -0.043349
C18   C     C_R   0.700372 0.917400 0.534334 -0.193406
C19   C     C_R   0.781972 0.033819 0.543580 -0.148443
C20   C     C_R   0.893334 0.068929 0.520837 -0.178590
C21   C     C_R   0.921758 0.986719 0.482183 0.077228
C22   C     C_R   0.830668 0.867248 0.462515 0.084180
C23   C     C_R   0.347202 0.285762 0.488620 0.812188
C24   C     C_R   0.040367 0.018636 0.466793 0.071882
C25   C     C_R   0.067357 0.931646 0.436360 0.171688
C26   C     C_R   0.968939 0.816735 0.402975 -0.241045
C27   C     C_R   0.849366 0.786185 0.409992 -0.205534
C28   C     C_R   0.134257 0.134192 0.482136 -0.254820
C29   C     C_R   0.287826 0.076946 0.463869 -0.200386
C30   C     C_R   0.725557 0.833119 0.497458 -0.102415
C31   C     C_R   0.254484 0.687046 0.661802 -0.314168
C32   C     C_R   0.660521 0.343607 0.360807 0.174832
C33   C     C_R   0.741604 0.309432 0.335952 -0.285959
C34   C     C_R   0.384005 0.486502 0.313710 0.804228
C35   C     C_R   0.873685 0.367186 0.390098 -0.227272
C36   C     C_R   0.929818 0.462710 0.470755 0.000302
C37   C     C_R   0.843971 0.494791 0.497248 0.265303
C38   C     C_R   0.068569 0.527301 0.525440 -0.029639
C39   C     C_R   0.119749 0.622524 0.606649 0.176197
C40   C     C_R   0.036385 0.652970 0.632194 -0.297470
C41   C     C_R   0.902192 0.590864 0.578990 -0.191865
C42   C     C_R   0.159828 0.502111 0.502684 0.008900
C43   C     C_R   0.338416 0.657652 0.636063 0.059967
C44   C     C_R   0.685055 0.527240 0.794476 -0.050448
C45   C     C_R   0.329379 0.494822 0.209659 -0.036794
C46   C     C_R   0.691273 0.533736 0.966495 -0.202336
C47   C     C_R   0.629751 0.531848 0.866171 -0.193988
C48   C     C_R   0.804511 0.529217 0.824803 -0.262135
Cu1   Cu    Cu3+1 0.416420 0.526630 0.522910 0.931520
Cu2   Cu    Cu3+1 0.583580 0.473370 0.477090 0.927109
H1    H     H_    0.822050 0.528818 0.150559 0.139564
H2    H     H_    0.410298 0.560886 0.005152 0.129055
H3    H     H_    0.385229 0.098357 0.470842 0.145127
H4    H     H_    0.983922 0.750391 0.370471 0.147039
H5    H     H_    0.215171 0.894763 0.419984 0.137680
H6    H     H_    0.113135 0.202723 0.494622 0.150013
H7    H     H_    0.619143 0.893793 0.558984 0.155938
H8    H     H_    0.955799 0.161118 0.536455 0.129296
H9    H     H_    0.761968 0.097896 0.573075 0.143518
H10   H     H_    0.773139 0.698237 0.373413 0.177740
H11   H     H_    0.442239 0.707500 0.678742 0.123485
H12   H     H_    0.151703 0.461758 0.224992 0.140639
H13   H     H_    0.075463 0.726214 0.694400 0.154335
H14   H     H_    0.294777 0.760007 0.724545 0.139962
H15   H     H_    0.129781 0.431746 0.441744 0.118013
H16   H     H_    0.929195 0.335412 0.365680 0.139183
H17   H     H_    0.701775 0.237662 0.272096 0.156214
H18   H     H_    0.847919 0.621951 0.604698 0.207606
H19   H     H_    0.500124 0.534624 0.173795 0.137129
H20   H     H_    0.239982 0.576890 0.877733 0.146987
H21   H     H_    0.645197 0.533925 0.020335 0.124080
H22   H     H_    0.537362 0.530638 0.844218 0.150366
H23   H     H_    0.841827 0.521758 0.767055 0.154825
H24   H     H_    0.019737 0.521730 0.203766 0.145725
H25   H     H_    0.039139 0.577833 0.822859 0.152008
N1    N     N_R   0.290690 0.566960 0.557640 -0.176351
N2    N     N_R   0.709100 0.433710 0.442970 -0.221635
O1    O     O_R   0.545970 0.684450 0.528810 -0.581358
O2    O     O_R   0.687130 0.639470 0.490120 -0.611176
O3    O     O_R   0.519670 0.535100 0.660030 -0.582496
O4    O     O_R   0.660830 0.490120 0.621340 -0.600221
O5    O     O_R   0.312870 0.360530 0.509880 -0.591923
O6    O     O_R   0.454030 0.315550 0.471190 -0.576014
O7    O     O_R   0.339170 0.509880 0.378660 -0.587655
O8    O     O_R   0.480330 0.464900 0.339970 -0.584452
C49   C     C_R   0.523545 0.279721 0.290713 0.173573
C50   C     C_R   0.440549 0.169464 0.299311 -0.143998
C51   C     C_R   0.314416 0.102076 0.226813 -0.141248
C52   C     C_R   0.273189 0.141819 0.141885 -0.121839
C53   C     C_R   0.359687 0.246856 0.127864 -0.142070
C54   C     C_R   0.485637 0.314006 0.200742 -0.134325
H26   H     H_    0.476217 0.134634 0.360164 0.113511
H27   H     H_    0.249924 0.017973 0.235188 0.142141
H28   H     H_    0.175929 0.089477 0.085337 0.131987
H29   H     H_    0.329922 0.275354 0.059917 0.142590
H30   H     H_    0.554376 0.392279 0.187155 0.104859

loop_
_geom_bond_atom_site_label_1
_geom_bond_atom_site_label_2
_ccdc_geom_bond_type
C50   C51   A    
C23   O5    A    
C17   C29   A    
C35   C36   A    
C4    C8    A    
Cu2   O2    S    
C28   H6    S    
C53   H29   S    
C33   H17   S    
C26   C27   A    
C17   C23   S    
C40   H13   S    
C31   C43   A    
Cu1   O7    S    
C36   C37   A    
C5    C11   A    
C3    C7    A    
C27   H10   S    
C38   C39   A    
C16   C25   A    
Cu1   O1    S    
C18   C19   A    
C52   H28   S    
Cu2   O8    S    
C32   N2    A    
C46   C47   A    
C11   C15   A    
C19   C20   A    
C8    C9    A    
C42   H15   S    
C18   C30   A    
C41   H18   S    
C9    C10   A    
C44   C47   A    
C54   H30   S    
C13   C14   A    
C1    O1    A    
C34   O7    A    
C26   H4    S    
Cu2   O6    S    
C6    H24   S    
C14   C45   A    
C24   C25   A    
C39   C40   A    
C49   C50   A    
C35   H16   S    
C19   H9    S    
C16   C29   A    
C37   N2    A    
C8    H25   S    
C34   O8    A    
Cu1   O5    S    
C2    C4    A    
C13   H2    S    
C18   H7    S    
C32   C49   S    
C20   C21   A    
Cu1   N1    S    
C34   C45   S    
C9    H20   S    
C46   H21   S    
C23   O6    A    
C40   C41   A    
C22   C27   A    
C1    O2    A    
C14   H19   S    
C15   C45   A    
C20   H8    S    
Cu2   N2    S    
C50   H26   S    
C43   H11   S    
C43   N1    A    
C51   H27   S    
C22   C30   A    
C17   C28   A    
C31   H14   S    
C24   C28   A    
C48   H23   S    
C4    C5    A    
C10   C13   A    
C38   C42   A    
C6    C7    A    
C3    C46   A    
C42   N1    A    
Cu1   O3    S    
C49   C54   A    
C2    C48   A    
C32   C33   A    
C36   C38   A    
C2    C3    A    
C25   C26   A    
C16   H5    S    
C7    H1    S    
C12   C44   S    
C53   C54   A    
C5    C6    A    
C29   H3    S    
C12   O3    A    
C1    C30   S    
C33   C35   A    
C15   H12   S    
C31   C39   A    
C12   O4    A    
C37   C41   A    
C47   H22   S    
C10   C11   A    
C51   C52   A    
Cu1   Cu2   S    
C21   C24   A    
C52   C53   A    
C21   C22   A    
C44   C48   A    
Cu2   O4    S    
