data_mof_unit_12306.cif
_audit_creation_date              2012-12-10T17:35:37-0500
_audit_creation_method            fapswitch 2.2
_symmetry_space_group_name_H-M    P1
_symmetry_Int_Tables_number       1
_space_group_crystal_system       triclinic
_cell_length_a                    10.782447
_cell_length_b                    12.411073
_cell_length_c                    13.236445
_cell_angle_alpha                 117.031835
_cell_angle_beta                  75.752433
_cell_angle_gamma                 101.158412
_cell_volume                      1522.42547923

loop_
_atom_site_label
_atom_site_type_symbol
_atom_type_description
_atom_site_fract_x
_atom_site_fract_y
_atom_site_fract_z
_atom_type_partial_charge
C1    C     C_R   0.509607 0.855253 0.286837 0.829986
C2    C     C_3   0.122130 0.005261 0.503864 -0.016438
C3    C     C_3   0.037297 0.020177 0.623222 -0.206989
C4    C     C_3   0.076253 0.881859 0.409850 -0.495189
C5    C     C_R   0.336420 0.278836 0.028541 -0.158101
C6    C     C_R   0.459300 0.229681 0.836467 -0.137800
C7    C     C_R   0.575423 0.816526 0.081361 -0.167621
C8    C     C_R   0.588582 0.739476 0.964567 -0.159214
C9    C     C_R   0.545818 0.616831 0.928371 -0.092908
C10   C     C_R   0.486762 0.568771 0.009220 0.104217
C11   C     C_R   0.454033 0.651565 0.126468 0.084223
C12   C     C_R   0.739825 0.998677 0.497959 0.829099
C13   C     C_R   0.454357 0.442055 0.977337 -0.037742
C14   C     C_R   0.371372 0.402874 0.058282 0.091230
C15   C     C_R   0.323496 0.487870 0.168044 -0.179038
C16   C     C_R   0.363745 0.610336 0.201699 -0.190930
C17   C     C_R   0.504712 0.352524 0.869162 0.542787
C18   C     C_R   0.379152 0.192833 0.917909 -0.241702
C19   C     C_R   0.509932 0.773846 0.163766 -0.103090
C20   C     C_R   0.703665 0.336861 0.319298 0.547856
C21   C     C_R   0.328736 0.760312 0.651863 0.165617
C22   C     C_R   0.301584 0.669368 0.690059 -0.266500
C23   C     C_R   0.482959 0.145234 0.713722 0.848680
C24   C     C_R   0.370522 0.568824 0.635089 -0.141247
C25   C     C_R   0.466045 0.554304 0.537539 -0.044703
C26   C     C_R   0.496401 0.651934 0.502647 0.119041
C27   C     C_R   0.534128 0.447027 0.475460 -0.103822
C28   C     C_R   0.634508 0.439592 0.381540 -0.095115
C29   C     C_R   0.666182 0.534908 0.350604 -0.182149
C30   C     C_R   0.601144 0.638047 0.408726 0.640562
C31   C     C_R   0.506224 0.344878 0.501193 0.059187
C32   C     C_R   0.671852 0.240744 0.349636 -0.013402
C33   C     C_R   0.260288 0.001936 0.501986 0.762021
C34   C     C_3   0.960758 0.098811 0.462528 -0.505908
C35   C     C_3   0.101994 0.107826 0.472325 -0.167331
C36   C     C_3   0.894405 0.029493 0.623776 -0.212515
C37   C     C_3   0.929988 0.873627 0.413638 0.549016
C38   C     C_3   0.878160 0.999948 0.499106 -0.060722
Cu1   Cu    Cu3+1 0.529690 0.098270 0.475420 0.976282
Cu2   Cu    Cu3+1 0.470310 0.901730 0.524580 1.003598
H1    H     H_    0.920393 0.188285 0.515563 0.229538
H2    H     H_    0.096877 0.804859 0.422711 0.219658
H3    H     H_    0.833333 0.960244 0.650451 0.180945
H4    H     H_    0.038792 0.935846 0.632643 0.178444
H5    H     H_    0.347045 0.098132 0.895589 0.194030
H6    H     H_    0.255909 0.459436 0.228953 0.157200
H7    H     H_    0.273425 0.248538 0.090147 0.157998
H8    H     H_    0.616749 0.909885 0.107087 0.164487
H9    H     H_    0.554764 0.562993 0.836570 0.200181
H10   H     H_    0.634805 0.774434 0.901572 0.157579
H11   H     H_    0.955605 0.075838 0.371905 0.168172
H12   H     H_    0.319082 0.672020 0.286050 0.163521
H13   H     H_    0.723831 0.160695 0.302120 0.147472
H14   H     H_    0.744541 0.530804 0.279838 0.243314
H15   H     H_    0.430261 0.340373 0.569530 0.148671
H16   H     H_    0.348347 0.504922 0.672482 0.164352
H17   H     H_    0.227042 0.676952 0.764278 0.164105
H18   H     H_    0.162714 0.094952 0.387086 0.144893
H19   H     H_    0.133037 0.871775 0.323818 0.122809
N1    N     N_R   0.574690 0.246280 0.438200 -0.225069
N2    N     N_R   0.426100 0.754320 0.561190 -0.218998
O1    O     O_R   0.537340 0.972510 0.318130 -0.600750
O2    O     O_R   0.487200 0.806530 0.359650 -0.525887
O3    O     O_R   0.707380 0.082980 0.479220 -0.592107
O4    O     O_R   0.657240 0.917000 0.520740 -0.488264
O5    O     O_R   0.512800 0.193470 0.640350 -0.524954
O6    O     O_R   0.462660 0.027490 0.681870 -0.604263
O7    O     O_R   0.342760 0.083000 0.479260 -0.597070
O8    O     O_R   0.292620 0.917020 0.520780 -0.600307
F1    F     F_    0.604408 0.381278 0.797328 -0.666509
F2    F     F_    0.800947 0.329241 0.229429 -0.665910
C39   C     C_1   0.252874 0.861544 0.714351 0.281259
N3    N     N_1   0.189764 0.941588 0.766964 -0.324499
F3    F     F_    0.651580 0.721243 0.369021 -0.625387
C40   C     C_1   0.139434 0.231658 0.555840 0.309626
N4    N     N_1   0.166803 0.328855 0.621814 -0.302306
C41   C     C_1   0.846147 0.147825 0.709338 0.244557
N5    N     N_1   0.808850 0.240099 0.776226 -0.173705
C42   C     C_1   0.090305 0.120463 0.722256 0.294278
N6    N     N_1   0.131559 0.198689 0.799486 -0.243237
F4    F     F_    0.869368 0.786474 0.452264 -0.650172
C43   C     C_1   0.904916 0.832588 0.296036 0.283594
N7    N     N_1   0.885107 0.800541 0.204108 -0.264512

loop_
_geom_bond_atom_site_label_1
_geom_bond_atom_site_label_2
_ccdc_geom_bond_type
C2    C35   S    
Cu1   O7    S    
C3    C42   S    
C1    O1    A    
C22   H17   S    
C7    C8    A    
C41   N5    T    
Cu1   O3    S    
C5    H7    S    
C11   C19   A    
C34   H11   S    
C29   C30   A    
Cu2   O2    S    
C35   H18   S    
C23   O5    A    
C28   C29   A    
C26   N2    A    
C36   C41   S    
C12   O3    A    
C29   H14   S    
Cu1   N1    S    
C15   C16   A    
C34   C35   S    
C23   O6    A    
Cu1   O1    S    
C8    C9    A    
Cu2   O6    S    
C20   F2    S    
C9    C10   A    
C21   N2    A    
C33   O8    A    
C17   F1    S    
C13   C14   A    
C37   F4    S    
C34   H1    S    
C1    O2    A    
C6    C18   A    
C3    H4    S    
C1    C19   S    
Cu2   O8    S    
C21   C39   S    
C27   C31   A    
C9    H9    S    
C24   C25   A    
Cu1   Cu2   S    
C5    C18   A    
C20   C28   A    
C25   C26   A    
Cu2   N2    S    
C31   N1    A    
C2    C4    S    
C40   N4    T    
C37   C38   S    
C11   C16   A    
C35   C40   S    
C5    C14   A    
C2    C33   S    
C26   C30   A    
C7    C19   A    
Cu2   O4    S    
Cu1   O5    S    
C22   C24   A    
C37   C43   S    
C25   C27   A    
C32   N1    A    
C18   H5    S    
C8    H10   S    
C32   H13   S    
C20   C32   A    
C6    C17   A    
C34   C38   S    
C16   H12   S    
C39   N3    T    
C10   C13   A    
C24   H16   S    
C12   O4    A    
C13   C17   A    
C7    H8    S    
C36   C38   S    
C2    C3    S    
C4    H2    S    
C3    C36   S    
C30   F3    S    
C6    C23   S    
C4    H19   S    
C12   C38   S    
C10   C11   A    
C42   N6    T    
C4    C37   S    
C43   N7    T    
C27   C28   A    
C14   C15   A    
C36   H3    S    
C15   H6    S    
C31   H15   S    
C21   C22   A    
C33   O7    A    
