data_mof_unit_39975.cif
_audit_creation_date              2012-12-11T14:13:24-0500
_audit_creation_method            fapswitch 2.2
_symmetry_space_group_name_H-M    P1
_symmetry_Int_Tables_number       1
_space_group_crystal_system       triclinic
_cell_length_a                    11.456413
_cell_length_b                    18.651915
_cell_length_c                    10.155951
_cell_angle_alpha                 90.000021
_cell_angle_beta                  110.293661
_cell_angle_gamma                 89.999569
_cell_volume                      2035.45670246

loop_
_atom_site_label
_atom_site_type_symbol
_atom_type_description
_atom_site_fract_x
_atom_site_fract_y
_atom_site_fract_z
_atom_type_partial_charge
C1    C     C_R   0.077192 0.644982 0.141908 0.579269
C2    C     C_2   0.589072 0.077980 0.083544 -0.070148
C3    C     C_2   0.646547 0.439391 0.986640 -0.141385
C4    C     C_2   0.410921 0.577977 0.916461 -0.070141
C5    C     C_2   0.461787 0.973423 0.048717 -0.129284
C6    C     C_2   0.473600 0.051782 0.046151 -0.139645
C7    C     C_2   0.538198 0.473419 0.951308 -0.129258
C8    C     C_2   0.526390 0.551777 0.953852 -0.139629
C9    C     C_2   0.005158 0.921053 0.111054 -0.093664
C10   C     C_2   0.979221 0.074252 0.882302 -0.094665
C11   C     C_2   0.994865 0.421046 0.888958 -0.093667
C12   C     C_R   0.927624 0.353227 0.859927 0.526259
C13   C     C_2   0.020786 0.574250 0.117699 -0.094665
C14   C     C_2   0.005791 0.959563 0.000192 -0.148854
C15   C     C_2   0.963402 0.033264 0.982942 -0.129017
C16   C     C_2   0.994225 0.459559 0.999814 -0.148860
C17   C     C_2   0.036619 0.533259 0.017068 -0.129018
C18   C     C_R   0.467354 0.646799 0.439813 0.587194
C19   C     C_R   0.564942 0.360645 0.633557 0.535936
C20   C     C_R   0.532649 0.146800 0.560187 0.587166
C21   C     C_R   0.435064 0.860646 0.366452 0.535902
C22   C     C_R   0.379696 0.647231 0.960453 0.587138
C23   C     C_R   0.922810 0.144983 0.858093 0.579268
C24   C     C_R   0.651355 0.360736 0.986828 0.541899
C25   C     C_R   0.620302 0.147232 0.039550 0.587140
C26   C     C_R   0.348631 0.860740 0.013199 0.541839
C27   C     C_R   0.541760 0.438362 0.614704 -0.007388
C28   C     C_R   0.489327 0.577192 0.508877 0.020439
C29   C     C_R   0.458263 0.938359 0.385332 -0.007377
C30   C     C_R   0.510701 0.077188 0.491150 0.020434
C31   C     C_R   0.319484 0.442956 0.648071 0.209766
C32   C     C_R   0.577379 0.529026 0.340827 0.241901
C33   C     C_R   0.680529 0.942944 0.351930 0.209760
C34   C     C_R   0.072385 0.853230 0.140077 0.526258
C35   C     C_R   0.422657 0.029041 0.659218 0.241921
C36   C     C_R   0.211697 0.483671 0.625938 -0.032374
C37   C     C_R   0.683661 0.499416 0.325287 -0.028710
C38   C     C_R   0.788305 0.983656 0.374012 -0.032317
C39   C     C_R   0.316355 0.999460 0.674758 -0.028688
C40   C     C_R   0.211613 0.556455 0.606703 0.199631
C41   C     C_R   0.770652 0.466475 0.441212 0.252671
C42   C     C_R   0.788416 0.056434 0.393307 0.199650
C43   C     C_R   0.229365 0.966511 0.558840 0.252689
C44   C     C_R   0.318112 0.588865 0.602399 -0.080815
C45   C     C_R   0.426388 0.473504 0.617867 0.023924
C46   C     C_R   0.738083 0.454956 0.560517 -0.061118
C47   C     C_R   0.681938 0.088850 0.397659 -0.080800
C48   C     C_R   0.261951 0.954954 0.439552 -0.061122
C49   C     C_R   0.414516 0.547993 0.581811 -0.063312
C50   C     C_R   0.622563 0.477630 0.563163 -0.092676
C51   C     C_R   0.585526 0.047983 0.418235 -0.063302
C52   C     C_R   0.377472 0.977624 0.436895 -0.092656
C53   C     C_R   0.570066 0.532515 0.475067 0.028220
C54   C     C_R   0.573643 0.973494 0.382171 0.023924
C55   C     C_R   0.429973 0.032514 0.524978 0.028218
C56   C     C_2   0.353438 0.939391 0.013387 -0.141382
Cl1   Cl    Cl    0.082781 0.607986 0.604992 -0.551772
Cl2   Cl    Cl    0.907199 0.430116 0.428452 -0.570010
Cl3   Cl    Cl    0.917250 0.107957 0.394999 -0.551767
Cl4   Cl    Cl    0.092792 0.930186 0.571600 -0.570002
Cl5   Cl    Cl    0.299011 0.362197 0.731177 -0.553999
Cl6   Cl    Cl    0.434229 0.526293 0.203182 -0.618433
Cl7   Cl    Cl    0.701015 0.862177 0.268861 -0.553962
Cl8   Cl    Cl    0.565812 0.026284 0.796858 -0.618407
Cr1   Cr    Cr6+3 0.187610 0.750000 0.979860 1.111620
Cr2   Cr    Cr6+3 0.812390 0.250000 0.020140 1.111615
Cr3   Cr    Cr6+3 0.245810 0.750000 0.341640 1.108440
Cr4   Cr    Cr6+3 0.754190 0.250000 0.658360 1.108450
Cr5   Cr    Cr6+3 0.485760 0.750000 0.219910 1.135765
Cr6   Cr    Cr6+3 0.514240 0.250000 0.780090 1.135754
H1    H     H_    0.131040 0.460404 0.641635 0.214213
H2    H     H_    0.545607 0.942118 0.069420 0.223685
H3    H     H_    0.607395 0.585631 0.000965 0.150270
H4    H     H_    0.454379 0.442116 0.930619 0.223704
H5    H     H_    0.667211 0.041821 0.125033 0.135835
H6    H     H_    0.267059 0.969542 0.982357 0.089247
H7    H     H_    0.332773 0.541816 0.874976 0.135840
H8    H     H_    0.732928 0.469541 0.017664 0.089238
H9    H     H_    0.916781 0.053738 0.052114 0.195176
H10   H     H_    0.045608 0.938295 0.925388 0.182695
H11   H     H_    0.083251 0.553731 0.947905 0.195160
H12   H     H_    0.697244 0.500560 0.226115 0.144908
H13   H     H_    0.954394 0.438295 0.074609 0.182680
H14   H     H_    0.020989 0.052743 0.809443 0.148817
H15   H     H_    0.970099 0.943726 0.188572 0.141733
H16   H     H_    0.979009 0.552744 0.190550 0.148777
H17   H     H_    0.029937 0.443716 0.811446 0.141755
H18   H     H_    0.868942 0.960394 0.358244 0.214172
H19   H     H_    0.302752 0.000632 0.773930 0.144874
H20   H     H_    0.322472 0.646360 0.614421 0.178248
H21   H     H_    0.801550 0.433220 0.651944 0.154942
H22   H     H_    0.677591 0.146343 0.385633 0.178259
H23   H     H_    0.198485 0.933195 0.348136 0.154983
H24   H     H_    0.392598 0.085636 0.999034 0.150257
O1    O     O_R   0.267710 0.668200 0.902110 -0.473412
O2    O     O_R   0.883280 0.330790 0.732340 -0.494644
O3    O     O_R   0.883280 0.169210 0.732340 -0.455992
O4    O     O_R   0.116720 0.830790 0.267660 -0.494682
O5    O     O_R   0.366710 0.675440 0.427590 -0.507485
O6    O     O_R   0.633290 0.324560 0.572410 -0.482262
O7    O     O_R   0.633290 0.175440 0.572410 -0.507499
O8    O     O_R   0.366710 0.824560 0.427590 -0.482283
O9    O     O_R   0.534870 0.669390 0.371760 -0.467748
O10   O     O_R   0.465130 0.330610 0.628240 -0.434778
O11   O     O_R   0.465130 0.169390 0.628240 -0.467774
O12   O     O_R   0.732290 0.331800 0.097890 -0.456266
O13   O     O_R   0.534870 0.830610 0.371760 -0.434784
O14   O     O_R   0.453080 0.674480 0.075160 -0.457739
O15   O     O_R   0.546920 0.325520 0.924840 -0.471243
O16   O     O_R   0.546920 0.174480 0.924840 -0.457753
O17   O     O_R   0.453080 0.825520 0.075160 -0.471225
O18   O     O_3   0.306390 0.750000 0.180470 -0.335700
O19   O     O_3   0.693610 0.250000 0.819530 -0.335692
O20   O     O_R   0.732290 0.168200 0.097890 -0.473411
O21   O     O_R   0.267710 0.831800 0.902110 -0.456222
O22   O     O_R   0.099480 0.674460 0.038850 -0.486740
O23   O     O_R   0.900520 0.325540 0.961150 -0.518593
O24   O     O_R   0.900520 0.174460 0.961150 -0.486739
O25   O     O_R   0.099480 0.825540 0.038850 -0.518593
O26   O     O_R   0.116720 0.669210 0.267660 -0.455979

loop_
_geom_bond_atom_site_label_1
_geom_bond_atom_site_label_2
_ccdc_geom_bond_type
C44   C49   A    
C30   C51   A    
C56   H6    S    
Cr2   O19   S    
C22   O1    A    
C31   Cl5   S    
C5    C56   D    
C4    C8    D    
C23   O24   A    
Cr5   O13   S    
C7    C8    S    
C20   C30   S    
Cr4   O2    S    
C41   Cl2   S    
C38   C42   A    
C5    H2    S    
C3    C7    D    
C10   C15   D    
C5    C6    S    
Cr5   O18   S    
Cr6   O10   S    
C29   C54   A    
C33   C54   A    
C47   H22   S    
C26   O21   A    
Cr6   O16   S    
Cr3   O4    S    
C9    H15   S    
Cr4   O3    S    
C15   H9    S    
C11   H17   S    
C16   C17   S    
C6    H24   S    
Cr2   O23   S    
C13   H16   S    
C41   C46   A    
C35   Cl8   S    
C1    O22   A    
C14   H10   S    
C19   C27   S    
Cr3   O26   S    
C27   C50   A    
Cr3   O5    S    
Cr4   O19   S    
C18   O9    A    
C27   C45   A    
Cr1   O21   S    
C3    C24   S    
C2    C6    D    
Cr2   O12   S    
Cr5   O14   S    
C7    H4    S    
Cr5   O9    S    
Cr6   O19   S    
C50   C53   A    
C48   H23   S    
Cr1   O1    S    
C35   C55   A    
C11   C12   S    
C36   C40   A    
C18   C28   S    
Cr4   O7    S    
C36   H1    S    
C47   C51   A    
C46   H21   S    
C21   C29   S    
C16   H13   S    
C38   H18   S    
C1    O26   A    
C35   C39   A    
C9    C14   D    
Cr4   O6    S    
Cr1   O18   S    
Cr6   O15   S    
C4    C22   S    
C19   O10   A    
C45   C49   A    
C33   Cl7   S    
Cr1   O25   S    
C32   C37   A    
C21   O13   A    
C43   Cl4   S    
C21   O8    A    
C25   O16   A    
C23   O3    A    
C31   C45   A    
C9    C34   S    
Cr1   O22   S    
C37   H12   S    
C24   O12   A    
C18   O5    A    
C32   C53   A    
C44   H20   S    
C20   O11   A    
C43   C48   A    
C34   O25   A    
C40   Cl1   S    
Cr2   O20   S    
C31   C36   A    
C24   O15   A    
Cr6   O11   S    
C26   C56   S    
C42   Cl3   S    
C39   C43   A    
C28   C53   A    
C52   C55   A    
C20   O7    A    
C10   C23   S    
C30   C55   A    
C46   C50   A    
C33   C38   A    
C13   C17   D    
C51   C54   A    
C32   Cl6   S    
C4    H7    S    
C25   O20   A    
C19   O6    A    
Cr5   O17   S    
C22   O14   A    
C10   H14   S    
C8    H3    S    
C34   O4    A    
C28   C49   A    
C2    C25   S    
C17   H11   S    
C42   C47   A    
C37   C41   A    
C11   C16   D    
C12   O23   A    
Cr3   O18   S    
C40   C44   A    
C1    C13   S    
Cr2   O24   S    
C14   C15   S    
C12   O2    A    
C48   C52   A    
C3    H8    S    
C26   O17   A    
C39   H19   S    
C2    H5    S    
Cr3   O8    S    
C29   C52   A    
