data_mof_unit_65161.cif
_audit_creation_date              2013-03-05T16:37:43-0500
_audit_creation_method            fapswitch 2.2
_symmetry_space_group_name_H-M    P1
_symmetry_Int_Tables_number       1
_space_group_crystal_system       triclinic
_cell_length_a                    19.296341
_cell_length_b                    18.685637
_cell_length_c                    10.695594
_cell_angle_alpha                 91.49812
_cell_angle_beta                  93.137378
_cell_angle_gamma                 89.976525
_cell_volume                      3849.35231417

loop_
_atom_site_label
_atom_site_type_symbol
_atom_site_description
_atom_site_fract_x
_atom_site_fract_y
_atom_site_fract_z
_atom_type_partial_charge
O1    O     O_R   0.398180 0.560840 0.500010 -0.585691
O2    O     O_R   0.398180 0.439160 0.500010 -0.590721
C1    C     C_R   0.365866 0.500054 0.501064 0.935837
O3    O     O_R   0.499990 0.560810 0.314820 -0.600203
O4    O     O_R   0.499990 0.439190 0.314820 -0.590449
C2    C     C_R   0.499562 0.498959 0.258105 0.875194
Zn1   Zn    Zn3+2 0.500000 0.581210 0.500040 1.040261
Zn2   Zn    Zn3+2 0.500000 0.418790 0.500040 1.024668
O5    O     O_R   0.601820 0.560790 0.500050 -0.608958
O6    O     O_R   0.601820 0.439210 0.500050 -0.610064
O7    O     O_R   0.500010 0.560810 0.685230 -0.591967
O8    O     O_R   0.500010 0.439190 0.685230 -0.618187
C3    C     C_R   0.634058 0.499925 0.496128 0.891328
C4    C     C_R   0.501198 0.500580 0.742945 0.869919
C5    C     C_3   0.430551 0.526414 0.066467 -0.323863
C6    C     C_3   0.511274 0.420302 0.069460 -0.381005
H1    H     H_    0.424122 0.583364 0.095347 0.263106
H2    H     H_    0.558771 0.395558 0.113640 0.194071
H3    H     H_    0.386285 0.496088 0.101732 0.192424
H4    H     H_    0.466252 0.385905 0.089047 0.237523
C7    C     C_3   0.428445 0.520038 0.922714 -0.445328
C8    C     C_3   0.518227 0.423338 0.928104 -0.401674
H5    H     H_    0.390827 0.477486 0.889871 0.189280
H6    H     H_    0.481873 0.383115 0.882288 0.216208
H7    H     H_    0.408860 0.570571 0.881204 0.213938
H8    H     H_    0.571579 0.407161 0.905352 0.225298
H9    H     H_    0.564893 0.595395 0.137129 0.221245
H10   H     H_    0.611490 0.515385 0.113439 0.171592
C9    C     C_3   0.562318 0.543164 0.084987 -0.435112
C10   C     C_3   0.500591 0.497157 0.122533 0.063173
C11   C     C_3   0.501835 0.500616 0.880595 0.042639
C12   C     C_3   0.556982 0.554609 0.943056 0.305109
C13   C     C_R   0.744825 0.434670 0.475393 -0.150834
C14   C     C_R   0.744670 0.564600 0.476192 -0.141616
H11   H     H_    0.718124 0.383835 0.475545 0.184485
H12   H     H_    0.717859 0.615368 0.476083 0.188229
C15   C     C_R   0.816295 0.434648 0.468160 -0.137761
C16   C     C_R   0.816103 0.564593 0.469517 -0.138938
H13   H     H_    0.843808 0.384098 0.466450 0.159892
H14   H     H_    0.843412 0.615134 0.466648 0.163301
C17   C     C_R   0.852102 0.499667 0.467932 0.098745
C18   C     C_R   0.708816 0.499719 0.483438 -0.043370
C19   C     C_R   0.963627 0.542121 0.564874 -0.143494
C20   C     C_R   0.963069 0.456805 0.388944 -0.156853
H15   H     H_    0.936311 0.574811 0.631306 0.157644
H16   H     H_    0.935283 0.424199 0.317523 0.152094
C21   C     C_R   0.035445 0.541259 0.572819 -0.059547
C22   C     C_R   0.035020 0.456359 0.396352 -0.050951
H17   H     H_    0.063426 0.573749 0.644198 0.152274
H18   H     H_    0.062747 0.423573 0.330663 0.156266
C23   C     C_R   0.070965 0.498598 0.488300 0.187845
C24   C     C_R   0.927357 0.499929 0.472946 0.084538
C25   C     C_R   0.183187 0.436733 0.528450 0.292484
C26   C     C_R   0.181594 0.562698 0.467309 0.285389
C27   C     C_R   0.255328 0.437829 0.530139 -0.187154
C28   C     C_R   0.253709 0.562703 0.474214 -0.201425
H19   H     H_    0.284045 0.390350 0.556835 0.224063
H20   H     H_    0.280855 0.611195 0.453318 0.239936
C29   C     C_R   0.290557 0.500227 0.502167 -0.176092
C30   C     C_R   0.146202 0.499282 0.494782 -0.180390
C31   C     C_R   0.538147 0.728267 0.590000 0.278236
C32   C     C_R   0.554486 0.273483 0.555376 0.242515
C33   C     C_R   0.529721 0.802390 0.603847 -0.225877
C34   C     C_R   0.556264 0.198547 0.549617 -0.235058
H21   H     H_    0.552824 0.828774 0.686712 0.202774
H22   H     H_    0.603951 0.172317 0.579069 0.198662
C35   C     C_R   0.498955 0.841959 0.506346 0.044439
C36   C     C_R   0.496972 0.158564 0.512020 0.056918
C37   C     C_R   0.467375 0.802118 0.405442 -0.280298
C38   C     C_R   0.439610 0.197500 0.463838 -0.289793
H23   H     H_    0.444026 0.828769 0.325205 0.191523
H24   H     H_    0.392099 0.170432 0.432604 0.192746
C39   C     C_R   0.465264 0.726509 0.406005 0.418573
C40   C     C_R   0.443134 0.272449 0.451439 0.401668
N1    N     N_R   0.499980 0.689440 0.500020 -0.178625
N2    N     N_R   0.499980 0.310560 0.500020 -0.169220
C41   C     C_R   0.449341 0.961752 0.439889 -0.175076
C42   C     C_R   0.450431 0.036617 0.437408 -0.178517
H25   H     H_    0.408681 0.934506 0.383866 0.168897
H26   H     H_    0.413905 0.061829 0.372387 0.167156
C43   C     C_R   0.496200 0.077409 0.518126 0.067304
C44   C     C_R   0.500553 0.923280 0.509018 0.069430
C45   C     C_R   0.542189 0.038756 0.599911 0.126853
C46   C     C_R   0.551480 0.964309 0.580604 0.128336
N3    N     N_R   0.148581 0.372419 0.562724 0.212250
O9    O     O_R   0.175706 0.310102 0.538793 -0.313156
O10   O     O_R   0.094742 0.375805 0.630789 -0.364234
N4    N     N_R   0.145378 0.626664 0.429281 0.216608
O11   O     O_R   0.171946 0.689286 0.458555 -0.342647
O12   O     O_R   0.090975 0.622821 0.351912 -0.355652
I1    I     I_    0.634764 0.692854 0.665554 -0.219783
I2    I     I_    0.633082 0.320981 0.675893 -0.306988
N5    N     N_R   0.431563 0.689929 0.300459 0.212602
O13   O     O_R   0.378954 0.648514 0.316167 -0.394118
O14   O     O_R   0.441351 0.712024 0.188421 -0.394314
N6    N     N_R   0.385920 0.307493 0.387966 0.214717
O15   O     O_R   0.396861 0.346874 0.292739 -0.386730
O16   O     O_R   0.322852 0.286353 0.404103 -0.368495
I3    I     I_    0.582499 0.083246 0.775996 -0.244595
I4    I     I_    0.653647 0.924477 0.627181 -0.220764
I5    I     I_    0.527401 0.666343 0.921299 -0.225327
I6    I     I_    0.659252 0.537884 0.873202 -0.291291

loop_
_geom_bond_atom_site_label_1
_geom_bond_atom_site_label_2
_geom_bond_distance
_ccdc_geom_bond_type
C26   N4    1.440851 S    
C33   H21   1.077679 S    
N5    O13   1.297607 A    
C27   C29   1.397206 A    
H9    C9    1.111107 S    
C25   C27   1.391343 A    
C14   C18   1.402112 A    
C39   N5    1.429723 S    
C4    C11   1.471612 S    
C21   H17   1.083455 S    
C26   C30   1.413408 A    
C41   C42   1.400039 A    
C31   N1    1.371613 A    
C5    H3    1.113473 S    
C7    C11   1.549527 S    
C40   N2    1.378128 A    
C13   C18   1.402857 A    
C34   C36   1.401244 A    
H10   C9    1.112915 S    
C9    C12   1.536432 S    
O4    C2    1.284605 A    
O7    C4    1.297285 A    
C42   H26   1.079601 S    
C19   C24   1.400962 A    
C6    C10   1.548229 S    
Zn2   N2    2.022339 S    
C5    H1    1.109104 S    
C37   H23   1.080431 S    
O5    C3    1.296912 A    
C32   C34   1.400460 A    
C22   C23   1.398707 A    
C45   C46   1.413770 A    
C32   I2    2.115803 S    
C38   C40   1.412197 A    
C37   C39   1.413580 A    
C17   C24   1.450208 S    
C14   H12   1.080348 S    
C6    H4    1.113181 S    
C20   C24   1.400305 A    
C22   H18   1.083311 S    
N5    O14   1.301078 A    
O1    Zn1   2.001419 S    
C25   N3    1.440487 S    
C39   N1    1.379114 A    
C32   N2    1.374570 A    
O3    Zn1   2.007559 S    
C3    C18   1.456305 S    
C43   C45   1.421924 A    
C25   C30   1.413591 A    
C20   H16   1.083193 S    
C33   C35   1.399568 A    
C41   H25   1.080145 S    
C26   C28   1.389468 A    
C38   H24   1.079785 S    
C8    C11   1.569630 S    
N3    O10   1.301382 A    
C46   I4    2.144633 S    
C40   N6    1.431487 S    
C16   C17   1.397911 A    
O3    C2    1.290937 A    
Zn1   N1    2.022350 S    
N3    O9    1.301514 A    
C13   C15   1.385493 A    
N6    O16   1.301460 A    
C35   C37   1.405946 A    
C34   H22   1.078053 S    
Zn1   O7    2.026815 S    
C9    C10   1.546048 S    
C11   C12   1.576189 S    
Zn2   O8    2.007243 S    
N6    O15   1.298573 A    
C31   C33   1.399426 A    
C19   H15   1.083438 S    
Zn2   O6    2.001606 S    
C2    C10   1.450751 S    
N4    O12   1.301474 A    
C44   C46   1.423826 A    
C27   H19   1.082225 S    
C12   I6    2.167713 S    
C36   C43   1.519652 S    
C5    C10   1.553337 S    
Zn1   O5    2.001300 S    
C7    H7    1.111218 S    
C6    C8    1.527642 S    
C14   C16   1.384142 A    
O2    Zn2   2.001116 S    
O8    C4    1.287977 A    
O6    C3    1.296813 A    
O4    Zn2   2.027131 S    
C21   C23   1.397167 A    
C28   C29   1.397170 A    
C7    H5    1.113755 S    
O2    C1    1.297353 A    
C15   H13   1.083570 S    
C16   H14   1.083593 S    
C42   C43   1.410318 A    
C41   C44   1.409688 A    
C13   H11   1.080893 S    
C28   H20   1.081277 S    
C8    H6    1.113856 S    
C15   C17   1.398028 A    
C20   C22   1.386356 A    
C5    C7    1.537333 S    
N4    O11   1.301473 A    
C35   C44   1.519346 S    
C6    H2    1.113878 S    
C8    H8    1.110759 S    
C36   C38   1.405912 A    
C12   I5    2.179187 S    
C45   I3    2.145075 S    
C23   C30   1.449698 S    
O1    C1    1.296547 A    
C19   C21   1.383887 A    
C31   I1    2.104466 S    
C1    C29   1.453887 S    
