data_mof_unit_45885.cif
_audit_creation_date              2012-12-10T18:44:29-0500
_audit_creation_method            fapswitch 2.2
_symmetry_space_group_name_H-M    P1
_symmetry_Int_Tables_number       1
_space_group_crystal_system       triclinic
_cell_length_a                    12.8289
_cell_length_b                    10.650186
_cell_length_c                    9.946065
_cell_angle_alpha                 89.871187
_cell_angle_beta                  96.339526
_cell_angle_gamma                 87.537155
_cell_volume                      1349.34167743

loop_
_atom_site_label
_atom_site_type_symbol
_atom_type_description
_atom_site_fract_x
_atom_site_fract_y
_atom_site_fract_z
_atom_type_partial_charge
C1    C     C_R   0.503868 0.260580 0.500590 0.911974
C2    C     C_R   0.701850 0.487922 0.526537 0.932961
C3    C     C_R   0.815403 0.468430 0.544653 -0.181873
C4    C     C_R   0.184594 0.531551 0.455337 -0.181750
C5    C     C_R   0.020276 0.507423 0.317627 -0.086117
C6    C     C_R   0.979723 0.492552 0.682358 -0.086090
C7    C     C_R   0.127330 0.529038 0.326544 0.121390
C8    C     C_R   0.872670 0.470930 0.673444 0.121190
C9    C     C_R   0.131527 0.550521 0.569122 0.124179
C10   C     C_R   0.868466 0.449465 0.430863 0.124289
C11   C     C_R   0.027756 0.512852 0.563886 -0.038665
C12   C     C_R   0.496101 0.739418 0.499406 0.911566
C13   C     C_R   0.972239 0.487129 0.436098 -0.038703
C14   C     C_R   0.595332 0.057556 0.540020 0.107042
C15   C     C_R   0.404614 0.942435 0.459984 0.107398
C16   C     C_R   0.593367 0.927592 0.539740 -0.083613
C17   C     C_R   0.406565 0.072406 0.460303 -0.083811
C18   C     C_2   0.958726 0.515899 0.185170 1.042420
C19   C     C_2   0.041274 0.484072 0.814812 1.042422
C20   C     C_2   0.691272 0.850094 0.577288 0.941953
C21   C     C_2   0.308633 0.149886 0.422856 0.941540
C22   C     C_R   0.497786 0.871948 0.500028 -0.183921
C23   C     C_R   0.502163 0.128051 0.499966 -0.183931
C24   C     C_R   0.557018 0.583376 0.079480 -0.024280
C25   C     C_R   0.442983 0.416623 0.920520 -0.024298
C26   C     C_R   0.556819 0.583500 0.936318 -0.021511
C27   C     C_R   0.443183 0.416498 0.063682 -0.021495
C28   C     C_R   0.298149 0.512073 0.473461 0.933218
H1    H     H_    0.603076 0.650188 0.139340 0.163470
H2    H     H_    0.396926 0.349809 0.860660 0.163362
H3    H     H_    0.602725 0.650422 0.889215 0.181330
H4    H     H_    0.397278 0.349574 0.110785 0.181299
H5    H     H_    0.845830 0.610817 0.062699 0.368629
H6    H     H_    0.154139 0.389120 0.937295 0.368613
H7    H     H_    0.834058 0.792282 0.528882 0.357953
H8    H     H_    0.165571 0.206940 0.470904 0.358071
I1    I     I_    0.802882 0.321410 0.279119 -0.167382
I2    I     I_    0.197097 0.678594 0.720854 -0.167245
I3    I     I_    0.806040 0.413354 0.852307 -0.163946
I4    I     I_    0.193966 0.586570 0.147669 -0.163954
I5    I     I_    0.738302 0.145083 0.605909 -0.185006
I6    I     I_    0.261690 0.854863 0.393952 -0.184989
N1    N     N_R   0.499970 0.499970 0.857200 -0.092621
N2    N     N_R   0.500030 0.500030 0.142800 -0.092636
O1    O     O_R   0.499990 0.316750 0.614620 -0.613703
O2    O     O_R   0.882681 0.613289 0.157920 -0.757830
O3    O     O_2   0.026741 0.564608 0.898506 -0.557556
O4    O     O_R   0.117316 0.386677 0.842057 -0.757975
O5    O     O_2   0.700996 0.786680 0.680865 -0.608820
O6    O     O_R   0.771901 0.849699 0.493568 -0.742518
O7    O     O_2   0.299104 0.213945 0.319727 -0.609151
O8    O     O_R   0.227737 0.149499 0.506149 -0.742180
O9    O     O_R   0.500010 0.683250 0.385380 -0.613563
O10   O     O_R   0.499990 0.316780 0.385290 -0.589569
O11   O     O_R   0.500010 0.683220 0.614710 -0.589842
O12   O     O_R   0.346360 0.499970 0.595710 -0.603353
O13   O     O_R   0.653640 0.500030 0.404290 -0.603223
O14   O     O_R   0.346360 0.499990 0.366380 -0.582338
O15   O     O_R   0.653640 0.500010 0.633620 -0.582588
O16   O     O_2   0.973256 0.435358 0.101483 -0.557605
Zn1   Zn    Zn3+2 0.500000 0.499980 0.653120 1.031612
Zn2   Zn    Zn3+2 0.500000 0.500020 0.346880 1.031772

loop_
_geom_bond_atom_site_label_1
_geom_bond_atom_site_label_2
_ccdc_geom_bond_type
C14   C23   A    
O14   Zn2   S    
C20   O6    S    
C1    O10   A    
C4    C9    A    
C20   O5    D    
C6    C19   S    
C8    I3    S    
C28   O14   A    
C25   C27   A    
C11   C13   A    
O9    Zn2   S    
C5    C13   A    
C12   O9    A    
H8    O8    S    
C16   C20   S    
C25   N1    A    
H7    O6    S    
C2    C3    S    
C28   O12   A    
C2    O13   A    
C26   H3    S    
C15   C22   A    
C3    C10   A    
H5    O2    S    
C9    C11   A    
C1    O1    A    
C17   C23   A    
C2    O15   A    
C14   I5    S    
O11   Zn1   S    
C18   O16   D    
C9    I2    S    
C4    C28   S    
C24   C26   A    
C26   N1    A    
C1    C23   S    
C19   O3    D    
C10   I1    S    
C24   N2    A    
C12   C22   S    
C14   C16   A    
O15   Zn1   S    
C12   O11   A    
H6    O4    S    
O13   Zn2   S    
C18   O2    S    
C21   O7    D    
N1    Zn1   S    
C4    C7    A    
C5    C7    A    
C3    C8    A    
O1    Zn1   S    
C6    C11   A    
C15   C17   A    
O12   Zn1   S    
C25   H2    S    
C6    C8    A    
C5    C18   S    
C19   O4    S    
N2    Zn2   S    
C27   H4    S    
C24   H1    S    
C7    I4    S    
O10   Zn2   S    
C27   N2    A    
C21   O8    S    
C17   C21   S    
C15   I6    S    
C16   C22   A    
C10   C13   A    
