data_mof_unit_52959.cif
_audit_creation_date              2012-12-10T16:39:39-0500
_audit_creation_method            fapswitch 2.2
_symmetry_space_group_name_H-M    P1
_symmetry_Int_Tables_number       1
_space_group_crystal_system       triclinic
_cell_length_a                    16.835694
_cell_length_b                    16.860402
_cell_length_c                    16.79442
_cell_angle_alpha                 66.612662
_cell_angle_beta                  65.942891
_cell_angle_gamma                 66.668508
_cell_volume                      3836.26926564

loop_
_atom_site_label
_atom_site_type_symbol
_atom_type_description
_atom_site_fract_x
_atom_site_fract_y
_atom_site_fract_z
_atom_type_partial_charge
C1    C     C_R   0.330434 0.937534 0.460117 0.007580
C2    C     C_R   0.323724 0.461517 0.949632 -0.001695
C3    C     C_R   0.540133 0.419896 0.987445 0.034310
C4    C     C_R   0.014854 0.451866 0.587395 0.041358
C5    C     C_R   0.949589 0.550806 0.435211 0.022576
C6    C     C_2   0.329654 0.917820 0.840532 1.058370
C7    C     C_2   0.737057 0.968641 0.187020 0.996182
C8    C     C_2   0.761984 0.759900 0.454268 1.010060
C9    C     C_2   0.029117 0.170274 0.699257 0.995239
C10   C     C_2   0.820967 0.299944 0.970107 1.003412
C11   C     C_2   0.166821 0.701305 0.032411 0.980431
C12   C     C_2   0.208149 0.931683 0.743120 0.930185
C13   C     C_R   0.984747 0.686539 0.577549 0.009616
C14   C     C_2   0.801301 0.053334 0.257710 1.007263
C15   C     C_2   0.717325 0.198599 0.963874 0.893967
C16   C     C_2   0.246519 0.774781 0.102586 1.057467
C17   C     C_2   0.950883 0.744080 0.255138 1.027247
C18   C     C_2   0.088712 0.253353 0.779621 1.045122
C19   C     C_2   0.536670 0.851589 0.803267 1.018832
C20   C     C_2   0.604881 0.849666 0.263399 0.897731
C21   C     C_2   0.859544 0.822170 0.531535 0.987568
C22   C     C_2   0.866359 0.251471 0.618908 0.949008
C23   C     C_2   0.791924 0.518079 0.870077 0.909721
C24   C     C_R   0.949643 0.324071 0.459639 -0.006415
C25   C     C_2   0.248661 0.619084 0.866865 1.009835
C26   C     C_2   0.279169 0.823266 0.603368 0.961018
C27   C     C_2   0.724706 0.162357 0.391712 0.938931
C28   C     C_2   0.496623 0.225036 0.108588 0.928906
C29   C     C_2   0.396940 0.719067 0.175303 0.921439
C30   C     C_2   0.843712 0.607116 0.251207 0.972269
C31   C     C_2   0.174665 0.401353 0.712403 0.928079
C32   C     C_R   0.463651 0.965491 0.458679 -0.010004
C33   C     C_R   0.553543 0.999641 0.545642 -0.004799
C34   C     C_R   0.964765 0.458133 0.466027 -0.011586
C35   C     C_R   0.997674 0.545931 0.556910 0.000564
C36   C     C_R   0.451449 0.462215 0.982343 -0.012090
C37   C     C_R   0.541602 0.551090 0.012277 -0.002166
C38   C     C_R   0.967175 0.178625 0.436096 0.939514
C39   C     C_R   0.673979 0.050473 0.540642 0.017379
C40   C     C_R   0.018729 0.823819 0.570143 0.935544
C41   C     C_R   0.178960 0.437716 0.963674 0.949061
C42   C     C_R   0.823100 0.568527 0.022055 0.908495
C43   C     C_R   0.436610 0.965177 0.178738 0.921914
C44   C     C_R   0.568806 0.022079 0.822958 0.954782
C45   C     C_R   0.561787 0.820975 0.037818 0.993471
C46   C     C_R   0.433099 0.178409 0.973550 0.890157
C47   C     C_R   0.037803 0.562098 0.820525 0.988892
C48   C     C_R   0.963157 0.437477 0.179848 0.910960
C49   C     C_R   0.820681 0.038317 0.561682 1.015142
C50   C     C_R   0.934967 0.460286 0.333108 -0.032340
C51   C     C_R   0.179465 0.962980 0.437439 0.943796
C52   C     C_R   0.416536 0.952893 0.413849 0.053967
C53   C     C_R   0.598552 0.015626 0.590358 0.060843
C54   C     C_R   0.951539 0.413921 0.418532 0.065101
C55   C     C_R   0.012299 0.591460 0.601900 0.076158
C56   C     C_R   0.406990 0.416071 0.967801 0.068695
C57   C     C_R   0.588012 0.595362 0.025945 0.088795
C58   C     C_R   0.278609 0.941010 0.408035 -0.111857
C59   C     C_R   0.722237 0.056221 0.591105 -0.022996
C60   C     C_R   0.942278 0.407485 0.279514 -0.132225
C61   C     C_R   0.052595 0.542559 0.672587 0.010928
C62   C     C_R   0.056521 0.592661 0.721890 -0.048274
C63   C     C_R   0.399079 0.275287 0.964143 -0.106293
C64   C     C_R   0.592327 0.723246 0.055624 -0.075813
C65   C     C_R   0.607120 0.022466 0.728700 -0.089635
C66   C     C_R   0.406707 0.946182 0.276349 -0.086194
C67   C     C_R   0.728288 0.605150 0.026190 -0.096798
C68   C     C_R   0.276548 0.409052 0.945503 -0.068220
C69   C     C_R   0.017838 0.730053 0.610173 -0.119857
C70   C     C_R   0.948552 0.275849 0.406938 -0.063168
C71   C     C_R   0.509420 0.938711 0.733561 -0.192001
C72   C     C_R   0.444105 0.322842 0.977636 0.025747
C73   C     C_R   0.553850 0.935451 0.289354 0.010727
C74   C     C_R   0.923983 0.732962 0.524089 -0.126289
C75   C     C_R   0.944874 0.288005 0.553534 -0.059798
C76   C     C_R   0.729634 0.492533 0.963732 -0.144215
C77   C     C_R   0.289589 0.556106 0.941882 -0.087645
C78   C     C_R   0.305970 0.909203 0.556300 -0.082795
C79   C     C_R   0.697702 0.076618 0.443909 -0.033872
C80   C     C_R   0.519141 0.279220 0.011744 -0.119238
C81   C     C_R   0.443787 0.695659 0.087105 -0.071764
C82   C     C_R   0.906462 0.556436 0.308822 -0.100278
C83   C     C_R   0.540399 0.673205 0.056071 0.011458
C84   C     C_R   0.086233 0.446997 0.690802 -0.047860
C85   C     C_R   0.319329 0.940700 0.318931 -0.244538
C86   C     C_R   0.681377 0.054861 0.680443 -0.272715
C87   C     C_R   0.944307 0.318095 0.319175 -0.288623
C88   C     C_R   0.052548 0.682317 0.682583 -0.217224
C89   C     C_R   0.318190 0.320354 0.944329 -0.290676
C90   C     C_R   0.682655 0.684351 0.049909 -0.221628
C91   C     C_R   0.668451 0.038198 0.401661 0.002734
C92   C     C_R   0.344390 0.934284 0.601407 -0.070148
C93   C     C_R   0.052581 0.401556 0.660173 0.000272
C94   C     C_R   0.570201 0.993080 0.685797 0.048085
C95   C     C_R   0.917248 0.601127 0.358882 -0.019938
C96   C     C_R   0.398420 0.663480 0.054987 0.027236
C97   C     C_R   0.579169 0.329230 0.989026 -0.022523
C98   C     C_R   0.594529 0.971570 0.322171 0.008309
C99   C     C_R   0.447105 0.947847 0.691271 -0.104976
C100  C     C_R   0.319079 0.591172 0.986729 -0.016339
C101  C     C_R   0.682077 0.432676 0.978361 -0.015662
C102  C     C_R   0.988445 0.319814 0.586950 -0.036082
C103  C     C_R   0.916966 0.688045 0.472665 -0.004399
C104  C     C_R   0.714657 0.028342 0.311997 -0.072499
C105  C     C_R   0.458639 0.948539 0.324218 0.001340
C106  C     C_R   0.306679 0.929248 0.695853 -0.071190
C107  C     C_R   0.056161 0.308134 0.698448 -0.091851
C108  C     C_R   0.893406 0.695542 0.339265 -0.154735
C109  C     C_R   0.304316 0.699546 0.060769 -0.160051
C110  C     C_R   0.672979 0.290038 0.978384 -0.085561
C111  C     C_R   0.680540 0.990027 0.274720 -0.112036
C112  C     C_R   0.361428 0.930981 0.741218 -0.232787
C113  C     C_R   0.265387 0.665323 0.023930 -0.061433
C114  C     C_R   0.724816 0.342501 0.972687 -0.193319
C115  C     C_R   0.023032 0.267884 0.662269 -0.089173
C116  C     C_R   0.682914 0.562784 0.006751 0.033784
C117  C     C_R   0.862170 0.729031 0.414228 -0.218302
C118  C     C_R   0.548793 0.983758 0.409953 0.069636
C119  C     C_R   0.473830 0.971598 0.595999 0.093675
C120  C     C_R   0.991298 0.409267 0.546050 0.022196
C121  C     C_R   0.958836 0.595282 0.485619 0.040349
C122  C     C_R   0.406378 0.548064 0.995668 0.022519
C123  C     C_R   0.588187 0.467820 0.992473 0.051365
C124  C     C_R   0.590282 0.007585 0.452077 0.031977
C125  C     C_R   0.425608 0.960058 0.551638 0.039303
C126  C     C_R   0.448722 0.588719 0.019893 0.065750
H1    H     H_    0.280311 0.942234 0.280191 0.209311
H2    H     H_    0.002833 0.065868 0.809006 0.341496
H3    H     H_    0.858548 0.280148 0.847524 0.339019
H4    H     H_    0.058182 0.809884 0.022558 0.348848
H5    H     H_    0.104608 0.919285 0.859130 0.346275
H6    H     H_    0.875999 0.114542 0.136475 0.382427
H7    H     H_    0.816078 0.081593 0.979407 0.364216
H8    H     H_    0.164451 0.701378 0.202684 0.316474
H9    H     H_    0.000824 0.851769 0.189825 0.393876
H10   H     H_    0.168234 0.138238 0.839595 0.363718
H11   H     H_    0.485630 0.777971 0.774566 0.322953
H12   H     H_    0.713337 0.070289 0.714985 0.201623
H13   H     H_    0.693466 0.784950 0.169908 0.365452
H14   H     H_    0.888207 0.877732 0.396589 0.354699
H15   H     H_    0.788002 0.216525 0.748099 0.372648
H16   H     H_    0.902822 0.417112 0.890921 0.358205
H17   H     H_    0.191535 0.746452 0.802858 0.363007
H18   H     H_    0.385519 0.758518 0.655461 0.317808
H19   H     H_    0.773115 0.256784 0.386995 0.354343
H20   H     H_    0.592290 0.115637 0.083238 0.368360
H21   H     H_    0.306701 0.695008 0.300030 0.367208
H22   H     H_    0.765742 0.520961 0.317348 0.316822
H23   H     H_    0.948123 0.278989 0.279069 0.206245
H24   H     H_    0.263123 0.398425 0.766924 0.353400
H25   H     H_    0.068207 0.716986 0.714270 0.211413
H26   H     H_    0.282796 0.283365 0.936866 0.200596
H27   H     H_    0.719838 0.719926 0.056653 0.197277
H28   H     H_    0.329628 0.041727 0.828420 0.309457
H29   H     H_    0.859208 0.909246 0.112635 0.353551
H30   H     H_    0.737488 0.798542 0.334662 0.308417
O1    O     O_R   0.982940 0.138950 0.510160 -0.604829
O2    O     O_R   0.982940 0.510160 0.138950 -0.583578
O3    O     O_R   0.861050 0.017060 0.489840 -0.571508
O4    O     O_R   0.138950 0.982940 0.510160 -0.548617
O5    O     O_R   0.867700 0.025880 0.612340 -0.634968
O6    O     O_R   0.132300 0.974120 0.387660 -0.631998
O7    O     O_R   0.025880 0.612340 0.867700 -0.639817
O8    O     O_R   0.974120 0.387660 0.132300 -0.610066
O9    O     O_R   0.612340 0.867700 0.025880 -0.610003
O10   O     O_R   0.387660 0.132300 0.974120 -0.619499
O11   O     O_R   0.387660 0.974120 0.132300 -0.602436
O12   O     O_R   0.017060 0.861050 0.489840 -0.642617
O13   O     O_R   0.612340 0.025880 0.867700 -0.605542
O14   O     O_R   0.132300 0.387660 0.974120 -0.611513
O15   O     O_R   0.867700 0.612340 0.025880 -0.601425
O16   O     O_R   0.974120 0.132300 0.387660 -0.619387
O17   O     O_R   0.025880 0.867700 0.612340 -0.589225
O18   O     O_2   0.316815 0.845907 0.891470 -0.511987
O19   O     O_R   0.317526 0.984738 0.876927 -0.743284
O20   O     O_2   0.705555 0.995181 0.124464 -0.589659
O21   O     O_R   0.827658 0.919152 0.175213 -0.796959
O22   O     O_2   0.728444 0.752557 0.535600 -0.544786
O23   O     O_R   0.138950 0.510160 0.982940 -0.607296
O24   O     O_R   0.704115 0.793096 0.401232 -0.767720
O25   O     O_2   0.057835 0.124478 0.647116 -0.584408
O26   O     O_R   0.998948 0.131630 0.792947 -0.732489
O27   O     O_2   0.845342 0.294556 0.031755 -0.551722
O28   O     O_R   0.884609 0.266089 0.897917 -0.706455
O29   O     O_2   0.123068 0.650056 0.050513 -0.584591
O30   O     O_R   0.124413 0.793684 0.017783 -0.729200
O31   O     O_2   0.157403 0.951559 0.698706 -0.604081
O32   O     O_R   0.171428 0.915254 0.837256 -0.719433
O33   O     O_2   0.860185 0.032607 0.292874 -0.612656
O34   O     O_R   0.861050 0.489840 0.017060 -0.639114
O35   O     O_R   0.814574 0.102294 0.166237 -0.715861
O36   O     O_2   0.691291 0.175647 0.920361 -0.634324
O37   O     O_R   0.789277 0.139264 0.998151 -0.711859
O38   O     O_2   0.265858 0.845899 0.071556 -0.513348
O39   O     O_R   0.171312 0.764466 0.178975 -0.755666
O40   O     O_2   0.993362 0.712158 0.191075 -0.589901
O41   O     O_R   0.960792 0.824350 0.250924 -0.767798
O42   O     O_2   0.061088 0.282538 0.845013 -0.594616
O43   O     O_R   0.152234 0.169071 0.780440 -0.776567
O44   O     O_2   0.589572 0.842911 0.840545 -0.588862
O45   O     O_R   0.510160 0.982940 0.138950 -0.596966
O46   O     O_R   0.511169 0.775162 0.820946 -0.741994
O47   O     O_2   0.590100 0.779354 0.318442 -0.556878
O48   O     O_R   0.665077 0.847982 0.177063 -0.748588
O49   O     O_2   0.819150 0.835357 0.606221 -0.579425
O50   O     O_R   0.841841 0.890383 0.454760 -0.760891
O51   O     O_2   0.817548 0.238045 0.590824 -0.619988
O52   O     O_R   0.843281 0.239676 0.711968 -0.822334
O53   O     O_2   0.765168 0.589120 0.816610 -0.519534
O54   O     O_R   0.878634 0.463439 0.839803 -0.766838
O55   O     O_2   0.241557 0.589524 0.815019 -0.593724
O56   O     O_R   0.489840 0.017060 0.861050 -0.624586
O57   O     O_R   0.223683 0.712208 0.851308 -0.775252
O58   O     O_2   0.215583 0.814628 0.593418 -0.571405
O59   O     O_R   0.329292 0.749204 0.656368 -0.745514
O60   O     O_2   0.708705 0.206573 0.319263 -0.596662
O61   O     O_R   0.760605 0.197238 0.428138 -0.803628
O62   O     O_2   0.432040 0.258331 0.164958 -0.565502
O63   O     O_R   0.547900 0.137530 0.137090 -0.741526
O64   O     O_2   0.417090 0.771727 0.191806 -0.630151
O65   O     O_R   0.333185 0.675050 0.242675 -0.798776
O66   O     O_2   0.852860 0.677285 0.192778 -0.561220
O67   O     O_R   0.489840 0.861050 0.017060 -0.576170
O68   O     O_R   0.773124 0.575570 0.263106 -0.776247
O69   O     O_2   0.228153 0.337881 0.682810 -0.615902
O70   O     O_R   0.200698 0.434212 0.759607 -0.794861
O71   O     O_R   0.510160 0.138950 0.982940 -0.620854
O72   O     O_R   0.017060 0.489840 0.861050 -0.602475
Zn1   Zn    Zn3+2 0.004880 0.004880 0.583590 1.127343
Zn2   Zn    Zn3+2 0.995120 0.995120 0.416410 1.105520
Zn3   Zn    Zn3+2 0.004880 0.583590 0.004880 1.118217
Zn4   Zn    Zn3+2 0.995120 0.416410 0.995120 1.104373
Zn5   Zn    Zn3+2 0.583590 0.004880 0.004880 1.111214
Zn6   Zn    Zn3+2 0.416410 0.995120 0.995120 1.125995

loop_
_geom_bond_atom_site_label_1
_geom_bond_atom_site_label_2
_ccdc_geom_bond_type
O10   Zn6   S    
O11   Zn6   S    
C15   O36   D    
C38   C70   S    
O9    Zn5   S    
H24   O70   S    
C80   C97   A    
C11   O30   S    
C10   O28   S    
C19   C71   S    
C64   C90   A    
C91   C104  A    
C92   C125  A    
C66   C85   A    
C24   C70   A    
C65   C86   A    
C30   O66   D    
C71   C94   A    
C106  C112  A    
C29   O65   S    
C39   C53   A    
C45   O9    A    
C19   O44   D    
C101  C123  A    
O13   Zn5   S    
H28   O19   S    
C77   C100  A    
C25   C77   S    
C27   C79   S    
H13   O48   S    
C40   O17   A    
C6    O19   S    
C102  C115  A    
C10   O27   D    
C12   O32   S    
C5    C121  A    
C51   O4    A    
C7    O21   S    
C51   O6    A    
C21   O49   D    
C25   O55   D    
C8    O24   S    
C44   O13   A    
C32   C52   A    
H10   O43   S    
C9    O26   S    
C81   C83   A    
C37   C123  A    
C14   O33   D    
C14   C104  S    
C29   O64   D    
C47   O72   A    
C56   C72   A    
O14   Zn4   S    
C43   O45   A    
C75   C102  A    
C46   O71   A    
C57   C83   A    
C122  C126  A    
C17   O41   S    
C82   C95   A    
C57   C116  A    
C23   C76   S    
C49   O5    A    
C10   C114  S    
C109  C113  A    
H17   O57   S    
C47   O7    A    
H5    O32   S    
C4    C35   A    
C5    C34   A    
C34   C120  A    
C101  C114  A    
C15   C110  S    
C44   C65   S    
C103  C117  A    
C6    C112  S    
C22   C75   S    
C47   C62   S    
C11   C113  S    
C70   C87   A    
C5    C95   A    
C60   C87   A    
C3    C123  A    
C16   C109  S    
C48   C60   S    
C41   C68   S    
C89   H26   S    
C33   C53   A    
C73   C98   A    
O71   Zn5   S    
O15   Zn3   S    
C22   O51   D    
C40   O12   A    
C40   C69   S    
C1    C78   A    
C48   O2    A    
C9    C115  S    
O3    Zn2   S    
C35   C121  A    
H2    O26   S    
C8    C117  S    
C20   O48   S    
C100  C122  A    
C95   C108  A    
C17   C108  S    
C81   C96   A    
O16   Zn2   S    
C30   O68   S    
C6    O18   D    
C78   C92   A    
O1    Zn1   S    
C12   O31   D    
C62   C88   A    
C21   C74   S    
C19   O46   S    
C31   C84   S    
C26   O59   S    
C44   O56   A    
C39   C79   A    
C21   O50   S    
C30   C82   S    
C36   C122  A    
C67   C116  A    
C64   C83   A    
C29   C81   S    
C18   O42   D    
C36   C56   A    
O67   Zn6   S    
C74   C103  A    
H18   O59   S    
O12   Zn2   S    
C42   O34   A    
C73   C105  A    
C3    C97   A    
C39   C59   A    
C7    O20   D    
C63   C89   A    
H7    O37   S    
C68   C89   A    
C96   C126  A    
C51   C58   S    
C118  C124  A    
C22   O52   S    
C90   H27   S    
H6    O35   S    
C107  C115  A    
C35   C55   A    
O6    Zn2   S    
C69   C88   A    
O17   Zn1   S    
O5    Zn1   S    
C14   O35   S    
C119  C125  A    
C92   C106  A    
H8    O39   S    
H3    O28   S    
C52   C105  A    
C27   O61   S    
C28   O63   S    
C91   C124  A    
C31   O69   D    
C87   H23   S    
C42   C67   S    
C88   H25   S    
C85   H1    S    
H20   O63   S    
C66   C105  A    
O23   Zn3   S    
C103  C121  A    
C58   C85   A    
O72   Zn4   S    
C102  C120  A    
C50   C82   A    
C37   C126  A    
C41   O14   A    
C76   C101  A    
C110  C114  A    
C65   C94   A    
C28   O62   D    
C98   C111  A    
C46   O10   A    
C53   C94   A    
C11   O29   D    
C79   C91   A    
C108  C117  A    
C41   O23   A    
C4    C120  A    
C100  C113  A    
C20   O47   D    
C32   C118  A    
H21   O65   S    
C61   C84   A    
H14   O50   S    
O2    Zn3   S    
H9    O41   S    
C104  C111  A    
O56   Zn6   S    
H4    O30   S    
C24   C75   A    
C38   O16   A    
C48   O8    A    
C23   O54   S    
C43   O11   A    
C23   O53   D    
C96   C109  A    
C45   C64   S    
C2    C68   A    
C49   C59   S    
O8    Zn4   S    
C46   C63   S    
C26   O58   D    
C50   C60   A    
C38   O1    A    
C25   O57   S    
H22   O68   S    
H15   O52   S    
C50   C54   A    
C2    C77   A    
C2    C56   A    
C1    C58   A    
C93   C107  A    
C12   C106  S    
C97   C110  A    
H30   O24   S    
C34   C54   A    
C27   O60   D    
C13   C69   A    
C3    C36   A    
C43   C66   S    
C59   C86   A    
C99   C112  A    
C55   C61   A    
C98   C118  A    
C76   C116  A    
C32   C125  A    
C7    C111  S    
C20   C73   S    
O34   Zn4   S    
C84   C93   A    
C67   C90   A    
C71   C99   A    
C61   C62   A    
C28   C80   S    
C1    C52   A    
C37   C57   A    
C18   C107  S    
C16   O38   D    
C42   O15   A    
C86   H12   S    
O7    Zn3   S    
C99   C119  A    
C4    C93   A    
C15   O37   S    
C8    O22   D    
C45   O67   A    
H19   O61   S    
C63   C72   A    
C33   C119  A    
C72   C80   A    
H11   O46   S    
C31   O70   S    
C18   O43   S    
C16   O39   S    
C33   C124  A    
H16   O54   S    
O4    Zn1   S    
C49   O3    A    
C17   O40   D    
C24   C54   A    
C9    O25   D    
H29   O21   S    
O45   Zn5   S    
C26   C78   S    
C13   C74   A    
C13   C55   A    
