data_mof_unit_35941.cif
_audit_creation_date              2012-12-11T15:43:05-0500
_audit_creation_method            fapswitch 2.2
_symmetry_space_group_name_H-M    P1
_symmetry_Int_Tables_number       1
_space_group_crystal_system       triclinic
_cell_length_a                    19.136555
_cell_length_b                    11.003479
_cell_length_c                    18.683011
_cell_angle_alpha                 90.009136
_cell_angle_beta                  89.631526
_cell_angle_gamma                 89.615686
_cell_volume                      3933.88705357

loop_
_atom_site_label
_atom_site_type_symbol
_atom_type_description
_atom_site_fract_x
_atom_site_fract_y
_atom_site_fract_z
_atom_type_partial_charge
C1    C     C_R   0.713535 0.331519 0.137797 0.545362
C2    C     C_R   0.037175 0.999042 0.017931 -0.069112
C3    C     C_R   0.748476 0.412054 0.577711 0.022785
C4    C     C_R   0.728541 0.376812 0.353312 0.557123
C5    C     C_R   0.288856 0.332366 0.640335 0.562165
C6    C     C_R   0.212880 0.836591 0.360159 0.561968
C7    C     C_R   0.788787 0.832692 0.640371 0.560007
C8    C     C_R   0.533596 0.156490 0.354311 0.555255
C9    C     C_R   0.468645 0.157125 0.647331 0.564282
C10   C     C_R   0.033068 0.656463 0.354002 0.547134
C11   C     C_R   0.968505 0.657325 0.647242 0.564917
C12   C     C_R   0.742669 0.969302 0.353218 0.544585
C13   C     C_R   0.570482 0.467422 0.946657 -0.088645
C14   C     C_R   0.257705 0.968204 0.647174 0.550898
C15   C     C_R   0.243009 0.468128 0.352915 0.538212
C16   C     C_R   0.758455 0.469387 0.646484 0.551414
C17   C     C_R   0.490742 0.157967 0.929790 0.000652
C18   C     C_R   0.495267 0.182690 0.079055 -0.013381
C19   C     C_R   0.989288 0.656998 0.930697 -0.001990
C20   C     C_R   0.992999 0.680725 0.080241 -0.011814
C21   C     C_R   0.518685 0.266345 0.959166 -0.026898
C22   C     C_R   0.513713 0.284573 0.034934 -0.038260
C23   C     C_R   0.014556 0.766707 0.960814 -0.035409
C24   C     C_R   0.556283 0.491936 0.017860 -0.056710
C25   C     C_R   0.008336 0.784552 0.036511 -0.034947
C26   C     C_R   0.462882 0.083702 0.049371 0.069461
C27   C     C_R   0.467959 0.063455 0.976332 0.089752
C28   C     C_R   0.962701 0.579347 0.050191 0.068176
C29   C     C_R   0.967032 0.561037 0.976743 0.084044
C30   C     C_2   0.626881 0.942652 0.905105 0.611204
C31   C     C_2   0.373028 0.643389 0.027582 0.615102
C32   C     C_2   0.130298 0.458761 0.909100 0.613264
C33   C     C_2   0.857636 0.145293 0.008432 0.597984
C34   C     C_R   0.778197 0.838247 0.938878 -0.015621
C35   C     C_R   0.236632 0.877783 0.067443 0.035794
C36   C     C_R   0.278400 0.337473 0.939060 0.003743
C37   C     C_R   0.734648 0.360555 0.065216 0.032173
C38   C     C_R   0.713765 0.818670 0.972732 -0.035800
C39   C     C_R   0.282266 0.810501 0.022720 0.014626
C40   C     C_R   0.213596 0.320499 0.972561 -0.026437
C41   C     C_R   0.288380 0.328825 0.861282 0.557142
C42   C     C_R   0.737680 0.272216 0.010150 -0.022485
C43   C     C_R   0.703817 0.840579 0.044562 -0.032952
C44   C     C_R   0.284763 0.836876 0.951443 0.015237
C45   C     C_R   0.203710 0.341222 0.044586 -0.021633
C46   C     C_R   0.737483 0.307041 0.939204 -0.005011
C47   C     C_R   0.825269 0.881371 0.056981 -0.135313
C48   C     C_R   0.214960 0.014495 0.970042 -0.150771
C49   C     C_R   0.325562 0.379512 0.057448 -0.123488
C50   C     C_R   0.748156 0.515252 0.975641 -0.139207
C51   C     C_R   0.835623 0.856058 0.983810 -0.143415
C52   C     C_R   0.215748 0.838800 0.137655 0.556248
C53   C     C_R   0.209221 0.987843 0.041568 -0.125005
C54   C     C_R   0.335902 0.353832 0.984230 -0.128768
C55   C     C_R   0.738446 0.483391 0.046422 -0.107366
C56   C     C_3   0.638936 0.837690 0.954872 -0.043225
C57   C     C_3   0.298966 0.678816 0.006928 -0.101519
C58   C     C_3   0.139198 0.347548 0.954739 -0.051453
C59   C     C_3   0.780469 0.159149 0.989946 -0.103386
C60   C     C_3   0.627745 0.866934 0.034596 -0.226650
C61   C     C_3   0.296167 0.711037 0.926923 -0.223870
C62   C     C_3   0.127989 0.371010 0.034939 -0.230692
C63   C     C_R   0.788291 0.829050 0.861255 0.552539
C64   C     C_3   0.775366 0.199652 0.911839 -0.212978
C65   C     C_R   0.757409 0.889626 0.085830 0.003618
C66   C     C_R   0.248527 0.933274 0.923343 0.042703
C67   C     C_R   0.257533 0.389606 0.085823 0.012801
C68   C     C_R   0.747790 0.427321 0.922013 0.049413
C69   C     C_R   0.531230 0.158773 0.147251 0.571066
C70   C     C_R   0.465864 0.153597 0.855233 0.576131
C71   C     C_R   0.030525 0.658504 0.147730 0.572994
C72   C     C_R   0.965236 0.653347 0.855666 0.583861
C73   C     C_R   0.502396 0.168894 0.578383 0.025035
C74   C     C_R   0.552288 0.356774 0.916278 0.093559
C75   C     C_R   0.516233 0.160857 0.429380 0.024788
C76   C     C_R   0.001276 0.670111 0.577894 0.025898
C77   C     C_R   0.014725 0.660389 0.428847 0.022428
C78   C     C_R   0.535299 0.069880 0.545588 0.029331
C79   C     C_R   0.541641 0.066569 0.472476 0.038699
C80   C     C_R   0.036523 0.573188 0.545614 0.028274
C81   C     C_R   0.042577 0.569015 0.472488 0.035777
C82   C     C_R   0.492103 0.267075 0.462097 -0.167469
C83   C     C_R   0.486586 0.271610 0.536506 -0.169599
C84   C     C_R   0.987040 0.764493 0.460865 -0.170594
C85   C     C_R   0.526928 0.404201 0.062335 0.136301
C86   C     C_R   0.982303 0.770668 0.535344 -0.168512
C87   C     C_3   0.522628 0.935725 0.549808 -0.267817
C88   C     C_3   0.527718 0.933393 0.469008 -0.267954
C89   C     C_3   0.027342 0.438319 0.550903 -0.268533
C90   C     C_3   0.031464 0.434984 0.470083 -0.267411
C91   C     C_R   0.780550 0.850370 0.563704 0.015757
C92   C     C_R   0.225106 0.862460 0.434868 0.015976
C93   C     C_R   0.281059 0.347950 0.563214 0.013695
C94   C     C_R   0.739187 0.401345 0.428353 0.017621
C95   C     C_R   0.829670 0.919008 0.526620 0.006879
C96   C     C_R   0.044153 0.861016 0.918011 0.092388
C97   C     C_R   0.167868 0.883472 0.479583 0.016599
C98   C     C_R   0.331758 0.411544 0.525238 0.010439
C99   C     C_R   0.679540 0.410216 0.471679 0.039670
C100  C     C_R   0.821297 0.944690 0.455402 0.024954
C101  C     C_R   0.176116 0.899678 0.552343 0.037861
C102  C     C_R   0.324237 0.434653 0.453332 0.027457
C103  C     C_R   0.683246 0.412193 0.544867 0.028258
C104  C     C_R   0.718129 0.820934 0.451687 -0.161178
C105  C     C_R   0.300593 0.868035 0.538192 -0.171631
C106  C     C_R   0.218268 0.318439 0.451190 -0.158189
C107  C     C_R   0.016055 0.906119 0.063777 0.109986
C108  C     C_R   0.807998 0.382711 0.535807 -0.168742
C109  C     C_R   0.727368 0.793753 0.524449 -0.158719
C110  C     C_R   0.291728 0.851341 0.465029 -0.173306
C111  C     C_R   0.226885 0.293195 0.524373 -0.159657
C112  C     C_R   0.803464 0.378648 0.461230 -0.179888
C113  C     C_3   0.857560 0.042680 0.542970 -0.267540
C114  C     C_3   0.113889 0.981890 0.475011 -0.268991
C115  C     C_3   0.361917 0.534133 0.539961 -0.268197
C116  C     C_3   0.619453 0.497177 0.469884 -0.267649
C117  C     C_R   0.742360 0.965227 0.148981 0.533320
C118  C     C_R   0.052596 0.976209 0.946785 -0.081266
C119  C     C_R   0.257974 0.969347 0.851272 0.560430
C120  C     C_R   0.242484 0.464938 0.149136 0.532776
C121  C     C_R   0.757671 0.467317 0.850499 0.552328
C122  C     C_3   0.849504 0.070355 0.464438 -0.264077
C123  C     C_3   0.117206 0.990044 0.555611 -0.263652
C124  C     C_3   0.356517 0.557322 0.460782 -0.268896
C125  C     C_3   0.620287 0.493409 0.550995 -0.268039
C126  C     C_R   0.761855 0.905938 0.418598 0.025281
C127  C     C_R   0.243583 0.903234 0.581417 0.027870
C128  C     C_R   0.263094 0.401051 0.417335 0.026516
Cr1   Cr    Cr6+3 0.772010 0.169670 0.250090 1.050376
Cr2   Cr    Cr6+3 0.383290 0.010760 0.749160 1.054400
Cr3   Cr    Cr6+3 0.116710 0.510760 0.250840 1.039592
Cr4   Cr    Cr6+3 0.883290 0.510760 0.749160 1.052276
Cr5   Cr    Cr6+3 0.227990 0.169670 0.749910 1.050403
Cr6   Cr    Cr6+3 0.272010 0.669670 0.250090 1.040405
Cr7   Cr    Cr6+3 0.727990 0.669670 0.749910 1.055016
Cr8   Cr    Cr6+3 0.615000 0.323260 0.249260 1.053206
Cr9   Cr    Cr6+3 0.385000 0.323260 0.750740 1.046501
Cr10  Cr    Cr6+3 0.115000 0.823260 0.249260 1.051159
Cr11  Cr    Cr6+3 0.885000 0.823260 0.750740 1.046630
Cr12  Cr    Cr6+3 0.616710 0.010760 0.250840 1.043878
H1    H     H_    0.475250 0.343953 0.430286 0.125942
H2    H     H_    0.477257 0.912397 0.442621 0.140654
H3    H     H_    0.072689 0.393185 0.576960 0.150809
H4    H     H_    0.981215 0.410279 0.444461 0.137451
H5    H     H_    0.674296 0.783651 0.423180 0.114072
H6    H     H_    0.353098 0.866048 0.559049 0.129820
H7    H     H_    0.173997 0.281741 0.423061 0.117188
H8    H     H_    0.859008 0.374315 0.559708 0.133502
H9    H     H_    0.690292 0.736646 0.551060 0.125605
H10   H     H_    0.337414 0.834152 0.431932 0.135536
H11   H     H_    0.188455 0.239613 0.551565 0.123608
H12   H     H_    0.464051 0.351167 0.560864 0.135124
H13   H     H_    0.849927 0.360129 0.429549 0.126146
H14   H     H_    0.912940 0.041787 0.560313 0.128369
H15   H     H_    0.063049 0.952328 0.454575 0.144932
H16   H     H_    0.416675 0.532697 0.558919 0.128318
H17   H     H_    0.572139 0.458211 0.445899 0.151874
H18   H     H_    0.821698 0.097536 0.577411 0.168061
H19   H     H_    0.134292 0.064584 0.448022 0.144470
H20   H     H_    0.326128 0.593019 0.572103 0.167258
H21   H     H_    0.634405 0.586820 0.447626 0.130182
H22   H     H_    0.809267 0.140895 0.454055 0.167873
H23   H     H_    0.967979 0.839172 0.428494 0.128202
H24   H     H_    0.130618 0.081330 0.574737 0.151910
H25   H     H_    0.318842 0.629901 0.448013 0.163983
H26   H     H_    0.628831 0.582829 0.575683 0.153703
H27   H     H_    0.900175 0.082885 0.436016 0.139126
H28   H     H_    0.070640 0.951836 0.582971 0.147570
H29   H     H_    0.408034 0.563272 0.433181 0.137292
H30   H     H_    0.575269 0.445020 0.574766 0.147392
H31   H     H_    0.071795 0.049407 0.913552 0.146176
H32   H     H_    0.042244 0.091040 0.037676 0.160143
H33   H     H_    0.595233 0.536545 0.914331 0.152791
H34   H     H_    0.958181 0.849522 0.559219 0.136269
H35   H     H_    0.567423 0.581627 0.038418 0.147867
H36   H     H_    0.868940 0.909054 0.088118 0.189345
H37   H     H_    0.190161 0.096018 0.950832 0.128726
H38   H     H_    0.369676 0.404467 0.089332 0.184439
H39   H     H_    0.758166 0.607761 0.962260 0.119115
H40   H     H_    0.887390 0.861988 0.961155 0.175156
H41   H     H_    0.179424 0.050229 0.074867 0.154515
H42   H     H_    0.387935 0.357111 0.961848 0.169446
H43   H     H_    0.736193 0.554390 0.086610 0.158779
H44   H     H_    0.111250 0.266265 0.934673 0.115620
H45   H     H_    0.975629 0.409432 0.571278 0.154063
H46   H     H_    0.750281 0.075789 0.999480 0.149400
H47   H     H_    0.613803 0.751821 0.937704 0.122770
H48   H     H_    0.257528 0.615724 0.024860 0.129400
H49   H     H_    0.614013 0.962960 0.047021 0.195747
H50   H     H_    0.345465 0.701895 0.895670 0.200602
H51   H     H_    0.114953 0.466248 0.049905 0.197831
H52   H     H_    0.824917 0.226074 0.884816 0.191232
H53   H     H_    0.594429 0.799185 0.062386 0.158472
H54   H     H_    0.250601 0.674819 0.898315 0.167458
H55   H     H_    0.093866 0.302131 0.060683 0.148766
H56   H     H_    0.077643 0.385510 0.449361 0.147232
H57   H     H_    0.743191 0.140240 0.877781 0.176977
H58   H     H_    0.626087 0.122319 0.890290 0.345994
H59   H     H_    0.367739 0.713840 0.126886 0.357329
H60   H     H_    0.134838 0.640156 0.901859 0.343886
H61   H     H_    0.849794 0.207250 0.108256 0.360421
H62   H     H_    0.469852 0.910811 0.569256 0.154456
H63   H     H_    0.573167 0.881026 0.448697 0.146028
H64   H     H_    0.566398 0.886571 0.576203 0.150422
I1    I     I_    0.401941 0.974000 0.119458 -0.289270
I2    I     I_    0.457011 0.878109 0.944458 -0.266472
I3    I     I_    0.906402 0.460574 0.120216 -0.291049
I4    I     I_    0.949585 0.377983 0.942537 -0.254206
I5    I     I_    0.590327 0.336103 0.808446 -0.343859
I6    I     I_    0.491830 0.480732 0.162769 -0.267155
I7    I     I_    0.089369 0.840697 0.813136 -0.339622
I8    I     I_    0.983924 0.977977 0.166392 -0.287674
O1    O     O_R   0.787520 0.042810 0.170440 -0.516567
O2    O     O_R   0.454050 0.051210 0.669140 -0.512300
O3    O     O_R   0.045950 0.551210 0.330860 -0.508956
O4    O     O_R   0.954050 0.551210 0.669140 -0.512873
O5    O     O_R   0.681390 0.959480 0.325510 -0.506139
O6    O     O_R   0.318610 0.959480 0.674490 -0.513243
O7    O     O_R   0.181390 0.459480 0.325510 -0.505998
O8    O     O_R   0.818610 0.459480 0.674490 -0.514538
O9    O     O_3   0.667900 0.167900 0.250060 -0.285385
O10   O     O_3   0.332100 0.167900 0.749940 -0.316828
O11   O     O_3   0.167900 0.667900 0.250060 -0.297594
O12   O     O_R   0.212480 0.042810 0.829560 -0.520318
O13   O     O_3   0.832100 0.667900 0.749940 -0.317416
O14   O     O_R   0.765640 0.292100 0.175020 -0.500402
O15   O     O_R   0.234360 0.292100 0.824980 -0.467394
O16   O     O_R   0.265640 0.792100 0.175020 -0.498942
O17   O     O_R   0.734360 0.792100 0.824980 -0.462521
O18   O     O_R   0.670190 0.408840 0.168540 -0.497107
O19   O     O_R   0.329810 0.408840 0.831460 -0.483413
O20   O     O_R   0.170190 0.908840 0.168540 -0.496168
O21   O     O_R   0.829810 0.908840 0.831460 -0.480136
O22   O     O_R   0.556620 0.251410 0.175160 -0.499020
O23   O     O_R   0.287520 0.542810 0.170440 -0.521286
O24   O     O_R   0.443380 0.251410 0.824840 -0.500747
O25   O     O_R   0.056620 0.751410 0.175160 -0.493789
O26   O     O_R   0.943380 0.751410 0.824840 -0.499783
O27   O     O_R   0.545960 0.049620 0.170320 -0.482171
O28   O     O_R   0.454040 0.049620 0.829680 -0.450059
O29   O     O_R   0.045960 0.549620 0.170320 -0.483629
O30   O     O_R   0.954040 0.549620 0.829680 -0.448633
O31   O     O_R   0.681390 0.958010 0.176690 -0.501571
O32   O     O_R   0.318610 0.958010 0.823310 -0.489085
O33   O     O_R   0.181390 0.458010 0.176690 -0.498643
O34   O     O_R   0.712480 0.542810 0.829560 -0.517170
O35   O     O_R   0.818610 0.458010 0.823310 -0.493060
O36   O     O_R   0.787510 0.044390 0.330970 -0.512329
O37   O     O_R   0.212490 0.044390 0.669030 -0.522539
O38   O     O_R   0.287510 0.544390 0.330970 -0.521439
O39   O     O_R   0.712490 0.544390 0.669030 -0.520388
O40   O     O_R   0.765630 0.293570 0.323840 -0.496232
O41   O     O_R   0.234370 0.293570 0.676160 -0.487077
O42   O     O_R   0.265630 0.793570 0.323840 -0.495108
O43   O     O_R   0.734370 0.793570 0.676160 -0.485894
O44   O     O_R   0.670190 0.410420 0.329080 -0.507296
O45   O     O_R   0.556610 0.252880 0.323980 -0.497493
O46   O     O_R   0.329810 0.410420 0.670920 -0.507054
O47   O     O_R   0.170190 0.910420 0.329080 -0.497573
O48   O     O_R   0.829810 0.910420 0.670920 -0.509759
O49   O     O_2   0.608371 0.923616 0.843623 -0.458542
O50   O     O_R   0.635150 0.061151 0.929391 -0.749707
O51   O     O_2   0.409542 0.586162 0.985509 -0.489637
O52   O     O_R   0.402338 0.677793 0.092318 -0.623916
O53   O     O_2   0.109801 0.448603 0.847562 -0.459202
O54   O     O_R   0.144240 0.573183 0.937433 -0.749951
O55   O     O_2   0.896908 0.098293 0.964523 -0.476291
O56   O     O_R   0.443390 0.252880 0.676020 -0.512430
O57   O     O_R   0.885861 0.177543 0.073836 -0.624524
O58   O     O_R   0.056610 0.752880 0.323980 -0.508662
O59   O     O_R   0.943390 0.752880 0.676020 -0.513169
O60   O     O_R   0.545950 0.051210 0.330860 -0.508566

loop_
_geom_bond_atom_site_label_1
_geom_bond_atom_site_label_2
_ccdc_geom_bond_type
C1    O14   A    
C58   C62   S    
C99   C103  A    
C87   C88   S    
C41   O15   A    
C55   H43   S    
Cr5   O37   S    
C115  H16   S    
C35   C53   A    
C45   C62   S    
C44   C66   A    
C18   C26   A    
C32   C58   S    
C113  H14   S    
Cr9   O19   S    
C85   I6    S    
C94   C99   A    
C87   H64   S    
C36   C41   S    
C14   O37   A    
Cr9   O46   S    
C6    O47   A    
C67   C120  S    
C13   H33   S    
Cr2   O28   S    
C34   C51   A    
C101  C123  S    
C29   I4    S    
C70   O28   A    
C33   O55   D    
C100  C126  A    
C71   O25   A    
C31   O51   D    
C28   C29   A    
C105  C110  A    
C84   C86   A    
C49   H38   S    
C102  C128  A    
C11   C76   S    
C120  O23   A    
C104  C109  A    
C80   C81   A    
Cr9   O56   S    
C6    C92   S    
C10   O3    A    
C12   C126  S    
C20   C25   A    
C105  H6    S    
Cr12  O60   S    
C49   C54   A    
C39   C57   S    
C106  C128  A    
C2    C107  A    
C37   C42   A    
Cr5   O12   S    
C11   O59   A    
C23   C96   A    
C6    O42   A    
Cr10  O25   S    
C58   H44   S    
C42   C46   A    
C22   C85   A    
C5    O41   A    
C80   C89   S    
Cr2   O6    S    
C48   C66   A    
C34   C63   S    
C57   H48   S    
Cr3   O33   S    
C91   C109  A    
Cr2   O32   S    
C1    O18   A    
C52   O16   A    
Cr8   O9    S    
C41   O19   A    
C60   H49   S    
C14   C127  S    
Cr8   O22   S    
Cr1   O14   S    
Cr11  O21   S    
Cr4   O8    S    
Cr6   O23   S    
C54   H42   S    
C20   C71   S    
C32   O54   S    
Cr4   O4    S    
C3    C108  A    
C7    O48   A    
C113  H18   S    
C49   C67   A    
C24   C85   A    
C87   H62   S    
C47   H36   S    
C1    C37   S    
C11   O4    A    
C63   O17   A    
C33   O57   S    
C18   C69   S    
H60   O54   S    
Cr1   O40   S    
C17   C70   S    
C33   C59   S    
C96   I7    S    
C34   C38   A    
C64   H57   S    
Cr11  O26   S    
C118  H31   S    
Cr7   O34   S    
C123  H28   S    
C19   C72   S    
C40   C45   A    
C5    O46   A    
C9    C73   S    
C62   H55   S    
C82   H1    S    
C102  C124  S    
C88   H2    S    
C48   H37   S    
C64   H52   S    
C16   O39   A    
C92   C97   A    
C30   O49   D    
C16   O8    A    
C106  C111  A    
C2    C118  A    
C48   C53   A    
C9    O56   A    
Cr10  O20   S    
C15   C128  S    
C40   C58   S    
C113  C122  S    
C74   I5    S    
Cr3   O3    S    
C121  O35   A    
C17   C27   A    
C43   C65   A    
C72   O30   A    
C116  H21   S    
Cr2   O10   S    
Cr3   O7    S    
Cr6   O42   S    
C4    O44   A    
Cr1   O9    S    
Cr3   O29   S    
Cr3   O11   S    
Cr5   O41   S    
C99   C116  S    
H58   O50   S    
C105  C127  A    
C95   C100  A    
C52   O20   A    
C47   C51   A    
C107  I8    S    
C20   C28   A    
C77   C84   A    
Cr6   O11   S    
C98   C102  A    
C30   C56   S    
Cr9   O10   S    
Cr12  O27   S    
C17   C21   A    
C106  H7    S    
C108  C112  A    
C13   C24   A    
C46   C64   S    
C31   O52   S    
C30   O50   S    
Cr6   O16   S    
C68   C121  S    
C109  H9    S    
C69   O22   A    
C46   C68   A    
C53   H41   S    
C63   O21   A    
Cr12  O5    S    
C56   H47   S    
C36   C40   A    
C73   C78   A    
C7    C91   S    
Cr11  O48   S    
Cr5   O10   S    
C26   C27   A    
C90   H56   S    
C32   O53   D    
C75   C82   A    
C70   O24   A    
Cr9   O24   S    
C117  O1    A    
C125  H30   S    
C69   O27   A    
C24   H35   S    
C4    O40   A    
Cr12  O31   S    
C62   H51   S    
C84   H23   S    
C79   C88   S    
C43   C60   S    
C93   C111  A    
C4    C94   S    
C114  C123  S    
C124  H29   S    
Cr4   O30   S    
C121  O34   A    
C10   C77   S    
C82   C83   A    
C89   C90   S    
C116  C125  S    
C10   O58   A    
C61   H50   S    
C44   C61   S    
C72   O26   A    
C45   C67   A    
C26   I1    S    
C76   C80   A    
C120  O33   A    
C81   C90   S    
C15   O7    A    
C51   H40   S    
C19   C29   A    
C78   C87   S    
C117  O31   A    
C12   O5    A    
H59   O52   S    
C19   C23   A    
C83   H12   S    
Cr10  O58   S    
C3    C103  A    
Cr10  O47   S    
C35   C52   S    
C65   C117  S    
C122  H27   S    
Cr7   O13   S    
C75   C79   A    
C7    O43   A    
C8    O45   A    
C21   C22   A    
C89   H45   S    
C104  H5    S    
Cr8   O44   S    
C112  H13   S    
Cr5   O15   S    
Cr7   O39   S    
C59   H46   S    
C110  H10   S    
C111  H11   S    
C42   C59   S    
C5    C93   S    
Cr4   O35   S    
C57   C61   S    
C39   C44   A    
C15   O38   A    
C9    O2    A    
C38   C56   S    
C50   C55   A    
C122  H22   S    
Cr11  O13   S    
C115  H20   S    
C66   C119  S    
C27   I2    S    
Cr7   O43   S    
C60   H53   S    
C31   C57   S    
C114  H15   S    
C18   C22   A    
C50   H39   S    
C96   C118  A    
C71   O29   A    
C38   C43   A    
C59   C64   S    
C89   H3    S    
Cr4   O13   S    
C123  H24   S    
C78   C79   A    
C92   C110  A    
C98   C115  S    
C61   H54   S    
Cr8   O18   S    
Cr10  O11   S    
C95   C113  S    
Cr11  O59   S    
C35   C39   A    
C21   C74   A    
C94   C112  A    
C119  O12   A    
C101  C127  A    
C73   C83   A    
C119  O32   A    
Cr2   O2    S    
C100  C122  S    
C23   C25   A    
C88   H63   S    
Cr1   O1    S    
Cr12  O9    S    
C97   C101  A    
C114  H19   S    
C36   C54   A    
C8    C75   S    
C115  C124  S    
C124  H25   S    
C37   C55   A    
C56   C60   S    
C125  H26   S    
C116  H17   S    
C104  C126  A    
C13   C74   A    
C91   C95   A    
C8    O60   A    
C77   C81   A    
Cr7   O17   S    
C76   C86   A    
Cr8   O45   S    
C28   I3    S    
Cr6   O38   S    
C14   O6    A    
C12   O36   A    
C86   H34   S    
C97   C114  S    
H61   O57   S    
C103  C125  S    
C50   C68   A    
C93   C98   A    
C47   C65   A    
C25   C107  A    
C90   H4    S    
C3    C16   S    
C2    H32   S    
C108  H8    S    
Cr1   O36   S    
