data_mof_unit_35553.cif
_audit_creation_date              2012-12-10T18:23:17-0500
_audit_creation_method            fapswitch 2.2
_symmetry_space_group_name_H-M    P1
_symmetry_Int_Tables_number       1
_space_group_crystal_system       triclinic
_cell_length_a                    27.808024
_cell_length_b                    10.628614
_cell_length_c                    9.407395
_cell_angle_alpha                 90.184903
_cell_angle_beta                  90.215129
_cell_angle_gamma                 90.031045
_cell_volume                      2780.42224746

loop_
_atom_site_label
_atom_site_type_symbol
_atom_type_description
_atom_site_fract_x
_atom_site_fract_y
_atom_site_fract_z
_atom_type_partial_charge
C1    C     C_R   0.499941 0.259495 0.499636 0.868451
C2    C     C_R   0.500062 0.740505 0.500362 0.868661
C3    C     C_R   0.101900 0.502234 0.505482 -0.043498
C4    C     C_R   0.898106 0.498711 0.507403 -0.043432
C5    C     C_R   0.127747 0.388728 0.494538 -0.029491
C6    C     C_R   0.872210 0.612249 0.498325 -0.029447
C7    C     C_R   0.102824 0.274910 0.485613 -0.143493
C8    C     C_R   0.897090 0.726114 0.490492 -0.143433
C9    C     C_R   0.127297 0.616637 0.515045 -0.021521
C10   C     C_R   0.872754 0.384259 0.515927 -0.021579
C11   C     C_R   0.354588 0.501349 0.499155 -0.053697
C12   C     C_R   0.645405 0.498989 0.500465 -0.058551
C13   C     C_R   0.974753 0.383871 0.511030 0.043254
C14   C     C_R   0.025278 0.617071 0.511993 0.043243
C15   C     C_R   0.974214 0.616238 0.505003 0.043147
C16   C     C_R   0.025780 0.384734 0.503004 0.043139
C17   C     C_R   0.949230 0.499617 0.507896 0.068669
C18   C     C_R   0.050780 0.501338 0.506892 0.068677
C19   C     C_R   0.948115 0.270875 0.522971 -0.205064
C20   C     C_R   0.051979 0.730015 0.524784 -0.205135
C21   C     C_R   0.898176 0.271354 0.525306 -0.144744
C22   C     C_R   0.101926 0.729514 0.526217 -0.144802
C23   C     C_R   0.407519 0.500216 0.499759 0.826168
C24   C     C_R   0.592479 0.499848 0.500214 0.826645
C25   C     C_R   0.052908 0.272666 0.489683 -0.203128
C26   C     C_R   0.947023 0.728357 0.493694 -0.203005
C27   C     C_3   0.538953 0.042118 0.565803 0.705230
C28   C     C_3   0.461055 0.957884 0.434188 0.704624
C29   C     C_3   0.539662 0.957916 0.432291 -0.309725
C30   C     C_3   0.460346 0.042083 0.567699 -0.310462
C31   C     C_3   0.500316 0.877183 0.501369 -0.166475
C32   C     C_3   0.499691 0.122817 0.498622 -0.166668
C33   C     C_3   0.500247 0.959825 0.636112 -0.278698
C34   C     C_3   0.499760 0.040176 0.363879 -0.279138
C35   C     C_3   0.512306 0.609040 0.051003 -0.029251
C36   C     C_3   0.487698 0.390961 0.948996 -0.030363
C37   C     C_3   0.470093 0.582364 0.949237 -0.026626
C38   C     C_3   0.529910 0.417639 0.050761 -0.029845
C39   C     C_3   0.542260 0.526635 0.950202 -0.042924
C40   C     C_3   0.457745 0.473363 0.049788 -0.038399
C41   C     C_R   0.178203 0.391816 0.491959 0.575656
C42   C     C_R   0.821746 0.609137 0.496285 0.576198
C43   C     C_R   0.177768 0.615407 0.513511 0.516585
C44   C     C_R   0.822277 0.385463 0.514997 0.517003
C45   C     C_R   0.279119 0.528016 0.624043 -0.158623
C46   C     C_R   0.721027 0.472425 0.626061 -0.157659
C47   C     C_R   0.329196 0.525951 0.624899 -0.209218
C48   C     C_R   0.670942 0.474272 0.626305 -0.186697
C49   C     C_R   0.329037 0.478303 0.372617 -0.260365
C50   C     C_R   0.670804 0.522424 0.374478 -0.283217
C51   C     C_R   0.278664 0.480436 0.370934 0.303709
C52   C     C_R   0.721170 0.520543 0.373427 0.304564
C53   C     C_R   0.253637 0.505162 0.497935 0.338937
C54   C     C_R   0.746352 0.495650 0.500484 0.337888
Cu1   Cu    Cu3+1 0.500010 0.499990 0.643150 0.961066
Cu2   Cu    Cu3+1 0.499990 0.500010 0.356850 0.961807
H1    H     H_    0.348082 0.458682 0.274783 0.149611
H2    H     H_    0.651636 0.542130 0.276559 0.155700
H3    H     H_    0.501072 0.925116 0.747289 0.175478
H4    H     H_    0.498934 0.074886 0.252702 0.175320
H5    H     H_    0.444949 0.651572 0.901402 0.125051
H6    H     H_    0.555047 0.348414 0.098589 0.128153
H7    H     H_    0.522792 0.700862 0.098399 0.130930
H8    H     H_    0.477216 0.299133 0.901606 0.131884
H9    H     H_    0.577862 0.549372 0.903896 0.121872
H10   H     H_    0.422148 0.450562 0.096036 0.119046
H11   H     H_    0.121842 0.186423 0.475218 0.187813
H12   H     H_    0.878023 0.814637 0.481562 0.187722
H13   H     H_    0.652249 0.455769 0.724852 0.164704
H14   H     H_    0.348000 0.544149 0.723894 0.161973
H15   H     H_    0.740319 0.453783 0.723968 0.150649
H16   H     H_    0.259950 0.546509 0.721908 0.150348
H17   H     H_    0.879535 0.182187 0.534141 0.187992
H18   H     H_    0.120614 0.818638 0.535841 0.187978
H19   H     H_    0.964740 0.179923 0.533712 0.135570
H20   H     H_    0.035413 0.820935 0.536917 0.135675
H21   H     H_    0.036683 0.181128 0.478768 0.135614
H22   H     H_    0.963192 0.819951 0.483699 0.135466
H23   H     H_    0.572284 0.921095 0.378730 0.173836
H24   H     H_    0.427723 0.078895 0.621259 0.175033
N1    N     N_R   0.202057 0.504138 0.500616 -0.457083
N2    N     N_R   0.797935 0.496758 0.503658 -0.456919
N3    N     N_3   0.500040 0.499970 0.858290 -0.162343
N4    N     N_3   0.499960 0.500030 0.141710 -0.162542
O1    O     O_R   0.500020 0.316850 0.620870 -0.568096
O2    O     O_R   0.499980 0.683150 0.379130 -0.568177
O3    O     O_R   0.500000 0.316860 0.379090 -0.590352
O4    O     O_R   0.500000 0.683140 0.620910 -0.589982
O5    O     O_R   0.430270 0.500020 0.620880 -0.594238
O6    O     O_R   0.569730 0.499980 0.379120 -0.592013
O7    O     O_R   0.430250 0.500030 0.379090 -0.579032
O8    O     O_R   0.569750 0.499970 0.620910 -0.582201
O9    O     O_2   0.203282 0.283490 0.481799 -0.524314
O10   O     O_2   0.796619 0.717481 0.487759 -0.524370
O11   O     O_2   0.797666 0.276275 0.523544 -0.528423
O12   O     O_2   0.202423 0.724544 0.523158 -0.528953
F1    F     F_    0.579267 0.089463 0.633853 -0.655658
F2    F     F_    0.420739 0.910550 0.366135 -0.654974
N5    N     N_2   0.253292 0.454877 0.242436 -0.418659
H25   H     H_    0.270782 0.392328 0.176375 0.257338
C55   C     C_3   0.237615 0.565926 0.166947 -0.649968
H26   H     H_    0.216696 0.537468 0.071332 0.226228
H27   H     H_    0.269208 0.622106 0.132556 0.228070
H28   H     H_    0.214116 0.624866 0.235018 0.255478
N6    N     N_2   0.746387 0.546504 0.245519 -0.418129
H29   H     H_    0.728852 0.609426 0.180088 0.257083
C56   C     C_3   0.761855 0.435685 0.168767 -0.653996
H30   H     H_    0.782711 0.464421 0.073809 0.227760
H31   H     H_    0.730160 0.379927 0.133213 0.224925
H32   H     H_    0.785353 0.376235 0.236367 0.255175

loop_
_geom_bond_atom_site_label_1
_geom_bond_atom_site_label_2
_ccdc_geom_bond_type
C1    O3    A    
Cu1   Cu2   S    
C55   H26   S    
C27   C29   S    
C56   H31   S    
C14   C18   A    
C11   C47   A    
C42   N2    A    
C48   H13   S    
C12   C48   A    
C49   H1    S    
C27   C33   S    
N6    C56   S    
C26   H22   S    
C3    C9    A    
C35   C37   S    
C37   C40   S    
C44   N2    A    
C38   C39   S    
C9    C22   A    
C36   N3    S    
C21   H17   S    
C8    C26   A    
C20   H20   S    
C3    C18   A    
C53   N1    S    
C11   C23   S    
Cu1   O4    S    
C40   N4    S    
Cu2   O7    S    
C41   O9    S    
C49   C51   A    
C50   C52   A    
C56   H30   S    
C23   O5    A    
C2    O4    A    
C30   H24   S    
Cu2   O6    S    
C28   C34   S    
C33   H3    S    
C40   H10   S    
C45   H16   S    
C34   H4    S    
C39   H9    S    
C24   O8    A    
C52   C54   A    
Cu2   N4    S    
C45   C47   A    
C10   C21   A    
C51   N5    S    
C46   C48   A    
C9    C43   A    
C13   C19   A    
C10   C44   A    
C50   H2    S    
C14   C20   A    
C36   C40   S    
C4    C6    A    
C5    C7    A    
C15   C26   A    
C6    C8    A    
C3    C5    A    
C7    H11   S    
C29   C34   S    
C1    C32   S    
C2    C31   S    
C51   C53   A    
C32   C34   S    
Cu1   O1    S    
C35   C39   S    
C47   H14   S    
Cu1   O8    S    
C11   C49   A    
Cu2   O2    S    
N5    H25   S    
C29   H23   S    
C41   N1    A    
C46   C54   A    
C31   C33   S    
C43   O12   S    
C46   H15   S    
C4    C17   A    
C16   C18   A    
N5    C55   S    
C20   C22   A    
C52   N6    S    
C8    H12   S    
C55   H28   S    
C43   N1    A    
C56   H32   S    
C25   H21   S    
C1    O1    A    
C22   H18   S    
Cu1   N3    S    
C54   N2    S    
C37   H5    S    
C28   F2    S    
C16   C25   A    
C15   C17   A    
C5    C41   A    
C27   F1    S    
C30   C33   S    
C19   C21   A    
C27   C32   S    
C42   O10   S    
C28   C31   S    
Cu2   O3    S    
C24   O6    A    
C12   C50   A    
C35   N4    S    
N6    H29   S    
C12   C24   S    
C7    C25   A    
C13   C17   A    
C19   H19   S    
C38   N4    S    
C28   C30   S    
C29   C31   S    
C44   O11   S    
C30   C32   S    
C36   C38   S    
C2    O2    A    
C23   O7    A    
Cu1   O5    S    
C39   N3    S    
C45   C53   A    
C55   H27   S    
C6    C42   A    
C13   C16   A    
C14   C15   A    
C37   N3    S    
C35   H7    S    
C36   H8    S    
C4    C10   A    
C38   H6    S    
