data_mof_unit_38730.cif
_audit_creation_date              2012-12-11T15:13:48-0500
_audit_creation_method            fapswitch 2.2
_symmetry_space_group_name_H-M    P1
_symmetry_Int_Tables_number       1
_space_group_crystal_system       triclinic
_cell_length_a                    6.945979
_cell_length_b                    13.583558
_cell_length_c                    20.06769
_cell_angle_alpha                 104.335109
_cell_angle_beta                  90.133577
_cell_angle_gamma                 90.317009
_cell_volume                      1834.41452984

loop_
_atom_site_label
_atom_site_type_symbol
_atom_type_description
_atom_site_fract_x
_atom_site_fract_y
_atom_site_fract_z
_atom_type_partial_charge
O1    O     O_R   0.506780 0.600060 0.449950 -0.538521
O2    O     O_R   0.179840 0.597110 0.589410 -0.543826
O3    O     O_R   0.004570 0.399940 0.550050 -0.537851
C1    C     C_R   0.348544 0.618864 0.616929 0.678714
O4    O     O_R   0.177380 0.612160 0.452890 -0.543474
O5    O     O_R   0.002100 0.415100 0.412560 -0.541553
C2    C     C_R   0.345662 0.636955 0.435257 0.725851
O6    O     O_R   0.509250 0.584900 0.587440 -0.540592
O7    O     O_3   0.337570 0.435330 0.486930 -0.372774
V1    V     V_3+5 0.064650 0.512000 0.502430 1.411853
O8    O     O_R   0.672090 0.402890 0.410590 -0.545109
C3    C     C_R   0.840590 0.383717 0.382205 0.690811
O9    O     O_R   0.674540 0.387840 0.547110 -0.542714
C4    C     C_R   0.843317 0.360959 0.563411 0.700406
V2    V     V_3+5 0.564040 0.488000 0.497570 1.408655
O10   O     O_3   0.840990 0.564670 0.513070 -0.370361
C5    C     C_R   0.866893 0.107655 0.606419 -0.168410
H1    H     H_    0.860618 0.157342 0.512926 0.129440
H2    H     H_    0.877837 0.981893 0.688458 0.117521
H3    H     H_    0.873135 0.028185 0.579116 0.123619
C6    C     C_R   0.851772 0.283609 0.602562 -0.038994
C7    C     C_R   0.855133 0.318018 0.933300 -0.170899
C8    C     C_R   0.850090 0.394564 0.898554 -0.126585
C9    C     C_R   0.850757 0.370729 0.826910 -0.158277
C10   C     C_R   0.856733 0.268377 0.787786 0.077310
C11   C     C_R   0.862456 0.190183 0.823880 0.069874
C12   C     C_R   0.857757 0.241040 0.714222 0.074129
C13   C     C_R   0.865581 0.136574 0.678653 0.141335
C14   C     C_R   0.871810 0.061611 0.715255 -0.218845
C15   C     C_R   0.870010 0.087763 0.786634 -0.204142
C16   C     C_R   0.850953 0.313633 0.674441 -0.216398
C17   C     C_R   0.859839 0.180818 0.568617 -0.180865
C18   C     C_R   0.861234 0.216186 0.896791 -0.069658
H4    H     H_    0.844209 0.394110 0.697404 0.090576
H5    H     H_    0.854737 0.338231 0.989000 0.101703
H6    H     H_    0.847051 0.434427 0.803972 0.103347
H7    H     H_    0.845926 0.473270 0.927391 0.125674
H8    H     H_    0.874800 0.026590 0.812422 0.115833
C19   C     C_3   0.676252 0.227805 0.226446 -0.170685
C20   C     C_3   0.780300 0.206786 0.289885 -0.120984
H9    H     H_    0.727684 0.165228 0.327221 0.108477
H10   H     H_    0.528509 0.204223 0.207817 0.116470
C21   C     C_3   0.850634 0.317754 0.310085 -0.048903
C22   C     C_3   0.746964 0.339949 0.247296 -0.145342
C23   C     C_3   0.931372 0.308683 0.204419 0.209609
C24   C     C_3   0.036359 0.288809 0.267567 -0.128137
C25   C     C_3   0.964485 0.177250 0.246642 -0.143480
C26   C     C_3   0.861093 0.198059 0.184038 -0.037869
H11   H     H_    0.657156 0.407474 0.247964 0.154829
H12   H     H_    0.184912 0.313838 0.284515 0.109751
H13   H     H_    0.049288 0.107570 0.239953 0.164477
C27   C     C_3   0.538342 0.725245 0.730401 -0.125958
C28   C     C_3   0.456946 0.834570 0.749618 -0.144440
H14   H     H_    0.539632 0.904847 0.749859 0.109412
H15   H     H_    0.688359 0.704546 0.713926 0.108818
C29   C     C_3   0.356991 0.811307 0.812445 -0.005792
C30   C     C_3   0.438472 0.702857 0.794076 -0.140897
C31   C     C_3   0.255826 0.665680 0.750433 -0.144369
C32   C     C_3   0.174441 0.775016 0.769637 -0.119577
C33   C     C_3   0.274318 0.797392 0.705955 -0.137041
C34   C     C_3   0.355799 0.688895 0.687579 -0.002314
H16   H     H_    0.505900 0.664405 0.830960 0.125225
H17   H     H_    0.173117 0.595437 0.750282 0.099008
H18   H     H_    0.024489 0.795876 0.786129 0.106872
H19   H     H_    0.207065 0.835981 0.669107 0.097928
C35   C     C_R   0.282300 0.889395 0.396482 0.504368
H20   H     H_    0.272056 0.830873 0.486908 0.113954
C36   C     C_R   0.351549 0.715903 0.398142 -0.116969
C37   C     C_R   0.420038 0.685949 0.070114 0.383738
C38   C     C_R   0.489187 0.618389 0.107307 0.038052
C39   C     C_R   0.494385 0.647943 0.179657 0.393387
C40   C     C_R   0.401852 0.739197 0.215978 -0.045660
C41   C     C_R   0.349006 0.810584 0.178008 -0.115632
C42   C     C_R   0.368375 0.763800 0.288791 -0.014587
C43   C     C_R   0.307848 0.863522 0.323707 -0.061316
C44   C     C_R   0.270716 0.934889 0.285203 0.462274
C45   C     C_R   0.285548 0.907388 0.213504 -0.246018
C46   C     C_R   0.379871 0.690124 0.327342 -0.185773
C47   C     C_R   0.303244 0.814172 0.432401 -0.272662
C48   C     C_R   0.366265 0.784849 0.105230 -0.204269
H21   H     H_    0.395146 0.610370 0.303151 0.167855
H22   H     H_    0.246295 0.963289 0.185813 0.120703
O11   O     O_R   0.203580 0.914920 0.912610 -0.543624
O12   O     O_R   0.535710 0.887810 0.047120 -0.531349
O13   O     O_R   0.710730 0.084950 0.087430 -0.542810
C49   C     C_R   0.367831 0.863591 0.066004 0.784327
O14   O     O_R   0.533010 0.902850 0.910600 -0.539934
O15   O     O_R   0.708010 0.100090 0.949930 -0.540804
C50   C     C_R   0.364296 0.881134 0.883099 0.702575
O16   O     O_R   0.206300 0.899780 0.050100 -0.549562
O17   O     O_3   0.375170 0.064580 0.013100 -0.375926
V3    V     V_3+5 0.648200 0.988020 0.997570 1.437702
O18   O     O_R   0.038030 0.112330 0.952840 -0.541004
C51   C     C_R   0.869333 0.138505 0.936037 0.684706
O19   O     O_R   0.040730 0.097300 0.089360 -0.547250
C52   C     C_R   0.871471 0.123396 0.115091 0.685929
V4    V     V_3+5 0.148780 0.012220 0.002360 1.409399
O20   O     O_3   0.871930 0.935430 0.986900 -0.369714
C53   C     C_3   0.017694 0.366025 0.155433 -0.814036
H23   H     H_    0.061102 0.443589 0.184359 0.211264
H24   H     H_    0.146179 0.325182 0.130023 0.209200
H25   H     H_    0.909525 0.371439 0.115806 0.202391
O21   O     O_3   0.200551 0.029575 0.317048 -0.537269
C54   C     C_3   0.354223 0.099558 0.327239 -0.221994
H26   H     H_    0.412122 0.106330 0.277162 0.108008
H27   H     H_    0.469941 0.077844 0.359188 0.138835
H28   H     H_    0.300131 0.175234 0.355060 0.166669
O22   O     O_3   0.214899 0.984600 0.430728 -0.526634
C55   C     C_3   0.337252 0.030007 0.486372 -0.234590
H29   H     H_    0.492683 0.017337 0.473515 0.116934
H30   H     H_    0.300612 0.002843 0.532647 0.133520
H31   H     H_    0.313406 0.113282 0.499557 0.170347
O23   O     O_3   0.431348 0.660440 0.999034 -0.554773
C56   C     C_3   0.247474 0.627976 0.972156 -0.286419
H32   H     H_    0.196722 0.560713 0.989764 0.145049
H33   H     H_    0.256872 0.604887 0.915236 0.160201
H34   H     H_    0.140547 0.690376 0.985860 0.145978
O24   O     O_3   0.599449 0.588499 0.213325 -0.565893
C57   C     C_3   0.781506 0.634384 0.231068 -0.258523
H35   H     H_    0.864984 0.586801 0.258304 0.156752
H36   H     H_    0.864133 0.639071 0.184481 0.140756
H37   H     H_    0.768874 0.711173 0.266650 0.154404
C58   C     C_3   0.568376 0.516010 0.070637 -0.691508
H38   H     H_    0.548012 0.498824 0.014109 0.227987
H39   H     H_    0.724943 0.513455 0.081126 0.201611
H40   H     H_    0.494278 0.455369 0.089335 0.205737

loop_
_geom_bond_atom_site_label_1
_geom_bond_atom_site_label_2
_ccdc_geom_bond_type
C22   H11   S    
C20   C25   S    
O18   C51   A    
O11   V4    S    
O19   C52   A    
C1    O6    A    
C18   C51   S    
C54   H27   S    
V4    O20   S    
V3    O20   S    
C58   H38   S    
C23   C24   S    
C29   C30   S    
C7    H5    S    
C6    C16   A    
C37   O23   S    
C32   H18   S    
C9    H6    S    
C4    C6    S    
C13   C14   A    
O12   C49   A    
C3    C21   S    
C27   C34   S    
C55   H30   S    
O5    C3    A    
O13   C52   A    
C58   H39   S    
V2    O10   S    
C5    H3    S    
O22   C55   S    
C15   H8    S    
O24   C57   S    
C48   C49   S    
C2    C36   S    
O8    V2    S    
C38   C58   S    
C28   C33   S    
C20   C21   S    
C25   C26   S    
C8    C9    A    
C38   C39   A    
O1    V2    S    
O7    V1    S    
O16   V4    S    
C27   H15   S    
C31   C34   S    
C32   C33   S    
O9    C4    A    
C54   H26   S    
O13   V3    S    
C56   H32   S    
C19   H10   S    
C57   H36   S    
C36   C46   A    
O11   C50   A    
C6    C17   A    
O15   C51   A    
C42   C43   A    
C12   C16   A    
O15   V3    S    
C30   H16   S    
H20   C47   S    
C9    C10   A    
C40   C42   A    
C49   O16   A    
C55   H31   S    
O17   V3    S    
O4    C2    A    
C58   H40   S    
C25   H13   S    
C23   C26   S    
C10   C11   A    
C8    H7    S    
C1    C34   S    
O17   V4    S    
C33   C34   S    
O2    C1    A    
C43   C44   A    
C14   C15   A    
C35   C47   A    
C11   C18   A    
C53   H23   S    
C57   H35   S    
C16   H4    S    
C44   C45   A    
O3    C4    A    
C29   C50   S    
C53   H24   S    
C33   H19   S    
C11   C15   A    
O6    V2    S    
O14   C50   A    
C21   C22   S    
C23   C53   S    
H1    C17   S    
O2    V1    S    
O18   V4    S    
C19   C20   S    
C27   C28   S    
O23   C56   S    
C28   C29   S    
C31   H17   S    
C7    C18   A    
C24   C25   S    
C20   H9    S    
C26   C52   S    
C39   O24   S    
O1    C2    A    
C5    C13   A    
C22   C23   S    
C35   O22   S    
C40   C41   A    
O5    V1    S    
C56   H33   S    
O8    C3    A    
O19   V4    S    
C28   H14   S    
C19   C22   S    
C10   C12   A    
C24   H12   S    
C29   C32   S    
O9    V2    S    
C31   C32   S    
O4    V1    S    
O3    V1    S    
V1    O10   S    
C55   H29   S    
C46   H21   S    
C30   C31   S    
C45   H22   S    
C44   O21   S    
C35   C43   A    
C57   H37   S    
C41   C48   A    
O7    V2    S    
C37   C38   A    
C21   C24   S    
C56   H34   S    
C27   C30   S    
C39   C40   A    
C53   H25   S    
C36   C47   A    
C42   C46   A    
O21   C54   S    
C5    C17   A    
C41   C45   A    
C7    C8    A    
C37   C48   A    
O12   V3    S    
O14   V3    S    
C54   H28   S    
C19   C26   S    
C12   C13   A    
H2    C14   S    
