data_mof_unit_56453.cif
_audit_creation_date              2012-12-11T15:41:08-0500
_audit_creation_method            fapswitch 2.2
_symmetry_space_group_name_H-M    P1
_symmetry_Int_Tables_number       1
_space_group_crystal_system       triclinic
_cell_length_a                    19.103889
_cell_length_b                    10.964384
_cell_length_c                    18.717789
_cell_angle_alpha                 90.08217
_cell_angle_beta                  90.485687
_cell_angle_gamma                 89.975753
_cell_volume                      3920.52731105

loop_
_atom_site_label
_atom_site_type_symbol
_atom_type_description
_atom_site_fract_x
_atom_site_fract_y
_atom_site_fract_z
_atom_type_partial_charge
C1    C     C_R   0.709514 0.001058 0.861074 0.565126
C2    C     C_R   0.290558 0.001148 0.138969 0.564938
C3    C     C_R   0.209512 0.501064 0.861073 0.565172
C4    C     C_R   0.790560 0.501152 0.138969 0.564914
C5    C     C_R   0.715070 0.515206 0.029311 0.028920
C6    C     C_R   0.285071 0.514672 0.970751 0.028880
C7    C     C_R   0.215087 0.015266 0.029298 0.028926
C8    C     C_R   0.785128 0.014469 0.970710 0.028907
C9    C     C_R   0.703739 0.490995 0.957341 -0.011893
C10   C     C_R   0.296386 0.490332 0.042679 -0.010968
C11   C     C_R   0.203759 0.991053 0.957328 -0.011865
C12   C     C_R   0.796449 0.990140 0.042638 -0.010943
C13   C     C_R   0.822979 0.421922 0.947116 -0.146885
C14   C     C_R   0.177103 0.421681 0.052804 -0.147021
C15   C     C_R   0.322977 0.921857 0.947127 -0.146920
C16   C     C_R   0.677109 0.921811 0.052826 -0.147028
C17   C     C_R   0.833511 0.442938 0.019755 -0.159974
C18   C     C_R   0.166567 0.442903 0.980211 -0.160027
C19   C     C_R   0.333504 0.942864 0.019767 -0.159979
C20   C     C_R   0.666563 0.943033 0.980233 -0.160048
C21   C     C_3   0.640950 0.481079 0.047248 -0.036749
C22   C     C_3   0.359130 0.480137 0.952717 -0.036933
C23   C     C_3   0.140950 0.981234 0.047223 -0.036746
C24   C     C_3   0.859132 0.979634 0.952643 -0.037011
C25   C     C_3   0.628903 0.456496 0.968141 -0.214039
C26   C     C_3   0.371168 0.455406 0.031773 -0.214001
C27   C     C_3   0.128908 0.956645 0.968116 -0.214062
C28   C     C_3   0.871183 0.954924 0.031698 -0.214040
C29   C     C_R   0.755680 0.434446 0.916710 0.014367
C30   C     C_R   0.244394 0.434023 0.083243 0.015080
C31   C     C_R   0.255688 0.934443 0.916709 0.014378
C32   C     C_R   0.744418 0.934010 0.083236 0.015078
C33   C     C_R   0.499910 0.179807 0.425554 0.004584
C34   C     C_R   0.498815 0.169574 0.574957 0.011572
C35   C     C_R   0.999909 0.679807 0.425556 0.004584
C36   C     C_R   0.998808 0.669576 0.574959 0.011568
C37   C     C_R   0.477987 0.278671 0.467015 0.070074
C38   C     C_R   0.471285 0.272988 0.539758 0.019452
C39   C     C_R   0.977989 0.778674 0.467016 0.070064
C40   C     C_R   0.971283 0.772993 0.539759 0.019446
C41   C     C_R   0.518609 0.067671 0.533666 -0.178202
C42   C     C_R   0.520681 0.073705 0.459450 -0.182757
C43   C     C_R   0.018596 0.567670 0.533670 -0.178204
C44   C     C_R   0.020672 0.573702 0.459454 -0.182750
C45   C     C_R   0.529272 0.177820 0.850351 0.547478
C46   C     C_R   0.470759 0.177695 0.149667 0.547967
C47   C     C_R   0.029277 0.677820 0.850354 0.547515
C48   C     C_R   0.970762 0.677695 0.149670 0.547938
C49   C     C_3   0.501019 0.408832 0.467214 -0.006148
C50   C     C_3   0.475775 0.412347 0.543694 -0.010738
C51   C     C_3   0.001024 0.908833 0.467216 -0.006147
C52   C     C_3   0.975775 0.912351 0.543694 -0.010719
C53   C     C_R   0.776723 0.473641 0.435051 0.043185
C54   C     C_R   0.220275 0.479773 0.563968 0.006877
C55   C     C_R   0.276724 0.973646 0.435053 0.043203
C56   C     C_R   0.720295 0.979722 0.563973 0.006949
C57   C     C_R   0.832908 0.459107 0.482537 0.052778
C58   C     C_R   0.169709 0.416442 0.524659 0.021350
C59   C     C_R   0.332910 0.959114 0.482539 0.052815
C60   C     C_R   0.669726 0.916405 0.524663 0.021325
C61   C     C_R   0.821956 0.441074 0.555027 0.004353
C62   C     C_R   0.177595 0.395001 0.452796 -0.001554
C63   C     C_R   0.321959 0.941084 0.555029 0.004399
C64   C     C_R   0.677594 0.895001 0.452795 -0.001556
C65   C     C_R   0.697502 0.447168 0.533594 -0.129296
C66   C     C_R   0.287346 0.501827 0.454771 -0.137180
C67   C     C_R   0.197506 0.947204 0.533601 -0.129296
C68   C     C_R   0.787355 0.001803 0.454773 -0.137198
C69   C     C_R   0.708703 0.472109 0.461828 -0.156294
C70   C     C_R   0.277006 0.530643 0.527045 -0.151803
C71   C     C_R   0.208705 0.972128 0.461833 -0.156285
C72   C     C_R   0.777023 0.030600 0.527049 -0.151816
C73   C     C_3   0.890328 0.365955 0.481897 -0.042117
C74   C     C_3   0.134932 0.294892 0.536732 -0.035764
C75   C     C_3   0.390332 0.865966 0.481900 -0.042136
C76   C     C_3   0.634947 0.794856 0.536724 -0.035794
C77   C     C_3   0.883048 0.357011 0.562250 -0.234579
C78   C     C_3   0.140460 0.274901 0.457014 -0.213447
C79   C     C_3   0.383053 0.857025 0.562254 -0.234599
C80   C     C_3   0.640436 0.774917 0.456998 -0.213529
C81   C     C_R   0.753811 0.426270 0.580486 0.027694
C82   C     C_R   0.240118 0.426310 0.418534 0.012684
C83   C     C_R   0.253814 0.926287 0.580490 0.027713
C84   C     C_R   0.740119 0.926306 0.418532 0.012680
C85   C     C_R   0.738963 0.366134 0.851889 0.539956
C86   C     C_R   0.261053 0.365970 0.148086 0.541302
C87   C     C_R   0.238963 0.866134 0.851889 0.539959
C88   C     C_R   0.761056 0.865966 0.148085 0.541291
C89   C     C_R   0.709904 0.999965 0.639947 0.571299
C90   C     C_R   0.289633 0.998790 0.360277 0.568416
C91   C     C_R   0.209897 0.499984 0.639949 0.571304
C92   C     C_R   0.789633 0.498790 0.360277 0.568415
C93   C     C_R   0.528605 0.176882 0.645470 0.556489
C94   C     C_R   0.472535 0.177718 0.353814 0.545132
C95   C     C_R   0.028604 0.676882 0.645471 0.556500
C96   C     C_R   0.972535 0.677718 0.353815 0.545128
C97   C     C_R   0.739907 0.364285 0.647353 0.544627
C98   C     C_R   0.259575 0.363711 0.352897 0.543016
C99   C     C_R   0.239908 0.864290 0.647354 0.544614
C100  C     C_R   0.759574 0.863712 0.352895 0.543016
C101  C     C_2   0.497962 0.171153 0.921174 -0.103854
C102  C     C_2   0.502131 0.170864 0.078873 -0.104018
C103  C     C_2   0.997980 0.671147 0.921183 -0.103733
C104  C     C_2   0.002148 0.670867 0.078882 -0.104063
C105  C     C_2   0.497182 0.069245 0.039215 -0.172986
C106  C     C_2   0.502717 0.069365 0.960576 -0.172720
C107  C     C_2   0.997223 0.569242 0.039227 -0.172983
C108  C     C_2   0.002765 0.569366 0.960590 -0.172686
C109  C     C_R   0.778592 0.483656 0.062624 0.010455
C110  C     C_R   0.221508 0.483486 0.937396 0.010646
C111  C     C_R   0.278593 0.983649 0.062624 0.010471
C112  C     C_R   0.721522 0.983458 0.937392 0.010657
Cr1   Cr    Cr6+3 0.769260 0.163750 0.750730 0.992335
Cr2   Cr    Cr6+3 0.230740 0.163750 0.249270 0.994318
Cr3   Cr    Cr6+3 0.269260 0.663750 0.750730 0.992312
Cr4   Cr    Cr6+3 0.730740 0.663750 0.249270 0.994316
Cr5   Cr    Cr6+3 0.612640 0.009910 0.748780 0.990722
Cr6   Cr    Cr6+3 0.387360 0.009910 0.251220 0.998465
Cr7   Cr    Cr6+3 0.112640 0.509910 0.748780 0.990711
Cr8   Cr    Cr6+3 0.887360 0.509910 0.251220 0.998470
Cr9   Cr    Cr6+3 0.614190 0.322400 0.747710 1.012721
Cr10  Cr    Cr6+3 0.385810 0.322400 0.252290 1.009074
Cr11  Cr    Cr6+3 0.114190 0.822400 0.747710 1.012682
Cr12  Cr    Cr6+3 0.885810 0.822400 0.252290 1.009084
H1    H     H_    0.487963 0.982535 0.065122 0.133409
H2    H     H_    0.511825 0.982653 0.934455 0.133577
H3    H     H_    0.988014 0.482527 0.065135 0.133412
H4    H     H_    0.011895 0.482660 0.934471 0.133579
H5    H     H_    0.558497 0.416543 0.461226 0.125595
H6    H     H_    0.422866 0.453978 0.549315 0.135427
H7    H     H_    0.058503 0.916539 0.461232 0.125601
H8    H     H_    0.922867 0.953983 0.549311 0.135419
H9    H     H_    0.644833 0.433275 0.550920 0.183085
H10   H     H_    0.334344 0.529231 0.428353 0.185320
H11   H     H_    0.144836 0.933330 0.550930 0.183062
H12   H     H_    0.834352 0.029207 0.428353 0.185325
H13   H     H_    0.664162 0.483640 0.426494 0.119513
H14   H     H_    0.315705 0.584339 0.555155 0.131584
H15   H     H_    0.164164 0.983666 0.426501 0.119500
H16   H     H_    0.815722 0.084296 0.555160 0.131565
H17   H     H_    0.941566 0.397252 0.464120 0.130867
H18   H     H_    0.079993 0.298551 0.555481 0.124084
H19   H     H_    0.441569 0.897266 0.464121 0.130876
H20   H     H_    0.580022 0.798515 0.555512 0.124205
H21   H     H_    0.870619 0.264163 0.581344 0.161762
H22   H     H_    0.174459 0.197686 0.442092 0.180164
H23   H     H_    0.370626 0.764177 0.581349 0.161757
H24   H     H_    0.674407 0.697681 0.442045 0.180138
H25   H     H_    0.926617 0.400473 0.592401 0.107369
H26   H     H_    0.088895 0.276870 0.429045 0.094760
H27   H     H_    0.426621 0.900491 0.592403 0.107379
H28   H     H_    0.588860 0.776938 0.429055 0.094760
H29   H     H_    0.517553 0.256570 0.055046 0.142074
H30   H     H_    0.482698 0.256926 0.945200 0.141849
H31   H     H_    0.017559 0.756576 0.055053 0.142071
H32   H     H_    0.982699 0.756914 0.945206 0.141828
H33   H     H_    0.865621 0.382324 0.917137 0.137445
H34   H     H_    0.134440 0.382213 0.082717 0.137606
H35   H     H_    0.365613 0.882213 0.917159 0.137419
H36   H     H_    0.634428 0.882464 0.082766 0.137614
H37   H     H_    0.882916 0.417794 0.043390 0.128194
H38   H     H_    0.117110 0.418071 0.956553 0.128456
H39   H     H_    0.382895 0.917661 0.043410 0.128174
H40   H     H_    0.617079 0.918326 0.956594 0.128479
H41   H     H_    0.109571 0.058591 0.068344 0.148140
H42   H     H_    0.890724 0.056646 0.931612 0.148080
H43   H     H_    0.609544 0.558392 0.068381 0.148166
H44   H     H_    0.390638 0.557292 0.931729 0.148045
H45   H     H_    0.618148 0.359272 0.954977 0.164591
H46   H     H_    0.381781 0.358108 0.044743 0.164127
H47   H     H_    0.118117 0.859431 0.954958 0.164607
H48   H     H_    0.881682 0.857597 0.044690 0.164041
H49   H     H_    0.592408 0.522785 0.942746 0.118555
H50   H     H_    0.407773 0.521454 0.057287 0.119249
H51   H     H_    0.092443 0.022972 0.942709 0.118479
H52   H     H_    0.907883 0.020854 0.057172 0.119326
H53   H     H_    0.537437 0.985950 0.558986 0.128911
H54   H     H_    0.536899 0.995318 0.428491 0.119427
H55   H     H_    0.037417 0.485948 0.558991 0.128909
H56   H     H_    0.036889 0.495312 0.428496 0.119424
O1    O     O_R   0.784290 0.290360 0.830540 -0.531116
O2    O     O_R   0.215710 0.290360 0.169460 -0.530680
O3    O     O_R   0.284290 0.790360 0.830540 -0.531142
O4    O     O_R   0.715710 0.790360 0.169460 -0.530664
O5    O     O_R   0.554690 0.080440 0.673480 -0.529653
O6    O     O_R   0.445310 0.080440 0.326520 -0.520383
O7    O     O_R   0.054690 0.580440 0.673480 -0.529659
O8    O     O_R   0.945310 0.580440 0.326520 -0.520382
O9    O     O_R   0.543980 0.282110 0.666770 -0.482617
O10   O     O_R   0.456020 0.282110 0.333230 -0.509761
O11   O     O_R   0.043980 0.782110 0.666770 -0.482610
O12   O     O_R   0.956020 0.782110 0.333230 -0.509756
O13   O     O_R   0.679070 0.374030 0.674430 -0.489289
O14   O     O_R   0.320930 0.374030 0.325570 -0.486362
O15   O     O_R   0.179070 0.874030 0.674430 -0.489308
O16   O     O_R   0.820930 0.874030 0.325570 -0.486367
O17   O     O_3   0.665360 0.165350 0.749070 -0.282364
O18   O     O_3   0.334640 0.165350 0.250930 -0.283688
O19   O     O_3   0.165360 0.665350 0.749070 -0.282373
O20   O     O_3   0.834640 0.665350 0.250930 -0.283698
O21   O     O_R   0.762610 0.041070 0.825230 -0.500614
O22   O     O_R   0.237390 0.041070 0.174770 -0.499969
O23   O     O_R   0.262610 0.541070 0.825230 -0.500616
O24   O     O_R   0.737390 0.541070 0.174770 -0.499966
O25   O     O_R   0.667390 0.924160 0.829970 -0.515027
O26   O     O_R   0.332610 0.924160 0.170030 -0.513399
O27   O     O_R   0.167390 0.424160 0.829970 -0.515037
O28   O     O_R   0.832610 0.424160 0.170030 -0.513378
O29   O     O_R   0.553980 0.081420 0.821780 -0.514016
O30   O     O_R   0.446020 0.081420 0.178220 -0.514547
O31   O     O_R   0.053980 0.581420 0.821780 -0.514029
O32   O     O_R   0.946020 0.581420 0.178220 -0.514544
O33   O     O_R   0.543210 0.283170 0.826740 -0.516888
O34   O     O_R   0.456790 0.283170 0.173260 -0.516676
O35   O     O_R   0.043210 0.783170 0.826740 -0.516911
O36   O     O_R   0.956790 0.783170 0.173260 -0.516667
O37   O     O_R   0.678350 0.375000 0.822720 -0.501401
O38   O     O_R   0.321650 0.375000 0.177280 -0.500573
O39   O     O_R   0.178350 0.875000 0.822720 -0.501410
O40   O     O_R   0.821650 0.875000 0.177280 -0.500559
O41   O     O_R   0.785060 0.289300 0.670580 -0.538631
O42   O     O_R   0.214940 0.289300 0.329420 -0.535354
O43   O     O_R   0.285060 0.789300 0.670580 -0.538629
O44   O     O_R   0.714940 0.789300 0.329420 -0.535359
O45   O     O_R   0.763330 0.040090 0.676940 -0.504683
O46   O     O_R   0.236670 0.040090 0.323060 -0.510711
O47   O     O_R   0.263330 0.540090 0.676940 -0.504687
O48   O     O_R   0.736670 0.540090 0.323060 -0.510716
O49   O     O_R   0.668160 0.923110 0.670000 -0.520528
O50   O     O_R   0.331840 0.923110 0.330000 -0.497457
O51   O     O_R   0.168160 0.423110 0.670000 -0.520465
O52   O     O_R   0.831840 0.423110 0.330000 -0.497456
N1    N     N_3   0.962563 0.990604 0.420055 -0.640556
H57   H     H_    0.979333 0.077968 0.434195 0.190006
H58   H     H_    0.982781 0.981057 0.368761 0.257523
N2    N     N_3   0.026795 0.968526 0.591742 -0.604010
H59   H     H_    0.039240 0.054404 0.571121 0.214538
H60   H     H_    0.001206 0.987193 0.639723 0.239340
N3    N     N_3   0.462552 0.490602 0.420057 -0.640550
H61   H     H_    0.479324 0.577966 0.434196 0.190004
H62   H     H_    0.482766 0.481057 0.368762 0.257526
N4    N     N_3   0.526798 0.468522 0.591738 -0.603981
H63   H     H_    0.539245 0.554398 0.571115 0.214594
H64   H     H_    0.501213 0.487195 0.639720 0.239346
N5    N     N_3   0.868585 0.254012 0.446228 -0.611908
H65   H     H_    0.893617 0.183258 0.473143 0.209175
H66   H     H_    0.889634 0.253605 0.394899 0.254870
N6    N     N_3   0.178053 0.206984 0.576443 -0.635354
H67   H     H_    0.164185 0.209056 0.630259 0.266334
H68   H     H_    0.231331 0.227977 0.572651 0.249801
N7    N     N_3   0.368590 0.754021 0.446232 -0.611925
H69   H     H_    0.393620 0.683268 0.473150 0.209178
H70   H     H_    0.389642 0.753610 0.394904 0.254865
N8    N     N_3   0.678089 0.706920 0.576389 -0.635434
H71   H     H_    0.664408 0.709212 0.630253 0.266490
H72   H     H_    0.731379 0.727696 0.572377 0.249692
N9    N     N_3   0.634874 0.369528 0.089906 -0.646626
H73   H     H_    0.673324 0.306251 0.075491 0.248825
H74   H     H_    0.642472 0.391441 0.143703 0.268201
N10   N     N_3   0.365019 0.368608 0.909816 -0.646967
H75   H     H_    0.326552 0.305464 0.924197 0.248333
H76   H     H_    0.357297 0.390612 0.856083 0.267261
N11   N     N_3   0.134819 0.869701 0.089888 -0.646647
H77   H     H_    0.173255 0.806382 0.075497 0.248821
H78   H     H_    0.142399 0.891619 0.143688 0.268199
N12   N     N_3   0.864848 0.868048 0.909765 -0.646927
H79   H     H_    0.826345 0.805030 0.924234 0.248341
H80   H     H_    0.857050 0.890031 0.856039 0.267267

loop_
_geom_bond_atom_site_label_1
_geom_bond_atom_site_label_2
_ccdc_geom_bond_type
Cr8   O32   S    
C39   C51   S    
C4    C109  S    
C48   O36   A    
C67   C83   A    
C71   H15   S    
C8    C24   S    
C55   C59   A    
C16   H36   S    
C3    O23   A    
C41   C42   A    
C14   C18   A    
C35   C39   A    
N3    H61   S    
C2    O22   A    
C34   C93   S    
Cr12  O12   S    
C49   N3    S    
C53   C69   A    
C33   C94   S    
Cr8   O52   S    
Cr12  O40   S    
Cr6   O6    S    
C9    C25   S    
N7    H69   S    
C63   C79   S    
C35   C96   S    
C65   C69   A    
C15   C19   A    
C46   C102  S    
C58   C74   S    
Cr11  O35   S    
N8    H71   S    
C75   C79   S    
C81   C97   S    
Cr4   O48   S    
Cr7   O19   S    
C33   C42   A    
C18   H38   S    
C13   C29   A    
Cr6   O26   S    
C14   C30   A    
C55   C90   S    
Cr5   O25   S    
C8    C112  A    
C1    C112  S    
C87   O3    A    
Cr4   O20   S    
C46   O30   A    
C4    O24   A    
C73   N5    S    
C100  O44   A    
C3    C110  S    
C57   C73   S    
C20   H40   S    
C21   N9    S    
C99   O15   A    
N12   H80   S    
C92   O48   A    
C74   N6    S    
N2    H59   S    
C98   O14   A    
C102  C105  D    
N11   H78   S    
N9    H73   S    
C86   O38   A    
C97   O13   A    
C57   C61   A    
C96   O8    A    
C64   C84   A    
C36   C40   A    
N8    H72   S    
C50   H6    S    
Cr4   O24   S    
C20   C112  A    
C65   C81   A    
C28   H48   S    
Cr1   O1    S    
C48   O32   A    
N2    H60   S    
C46   O34   A    
C47   O35   A    
C45   O33   A    
C107  C108  S    
Cr2   O22   S    
C24   N12   S    
Cr10  O10   S    
C103  C108  D    
C2    O26   A    
C87   O39   A    
Cr4   O44   S    
C30   C86   S    
C76   N8    S    
N1    H57   S    
C98   O42   A    
C29   C85   S    
C95   O11   A    
N7    H70   S    
C17   H37   S    
C22   H44   S    
C19   C111  A    
C10   C26   S    
C6    C22   S    
C74   H18   S    
C1    O21   A    
C80   H24   S    
N5    H65   S    
C12   C32   A    
C64   C80   S    
C44   H56   S    
C59   C75   S    
Cr11  O39   S    
Cr10  O14   S    
C75   N7    S    
C91   O51   A    
Cr8   O8    S    
Cr9   O13   S    
Cr3   O47   S    
C23   N11   S    
N6    H68   S    
C60   C64   A    
C7    C11   A    
Cr7   O7    S    
C23   C27   S    
C100  O16   A    
C69   H13   S    
C62   C78   S    
C8    C12   A    
C99   O43   A    
C2    C111  S    
Cr10  O34   S    
C31   C87   S    
C82   C98   S    
C95   O7    A    
C51   C52   S    
C68   C84   A    
C94   O6    A    
N11   H77   S    
C47   C103  S    
N10   H76   S    
C93   O5    A    
C61   C77   S    
N4    H64   S    
C53   C57   A    
C45   C101  S    
C4    O28   A    
C73   H17   S    
C7    C111  A    
C22   N10   S    
C40   C52   S    
C66   H10   S    
Cr3   O19   S    
C60   C76   S    
C33   C37   A    
C56   C60   A    
Cr3   O23   S    
C68   C72   A    
N9    H74   S    
C52   H8    S    
C6    C110  A    
C56   C72   A    
C67   H11   S    
C43   C44   A    
C94   O10   A    
C5    C9    A    
C37   C38   A    
Cr2   O46   S    
C37   C49   S    
C10   C30   A    
C83   C99   S    
Cr1   O45   S    
C54   C70   A    
C11   C27   S    
C16   C20   A    
Cr6   O50   S    
C43   H55   S    
C49   H5    S    
C53   C92   S    
C54   C58   A    
N4    H63   S    
C5    C21   S    
N3    H62   S    
C78   H26   S    
C19   H39   S    
Cr10  O18   S    
C68   H12   S    
C15   C31   A    
C35   C44   A    
N1    H58   S    
C102  H29   S    
Cr9   O17   S    
C106  H2    S    
C75   H19   S    
C58   C62   A    
C65   H9    S    
C76   H20   S    
C56   C89   S    
C84   C100  S    
C12   C28   S    
C70   H14   S    
Cr1   O21   S    
N5    H66   S    
C88   O40   A    
C22   C26   S    
C27   H51   S    
Cr5   O5    S    
C59   C63   A    
C32   C88   S    
C76   C80   S    
C78   H22   S    
C77   H25   S    
Cr6   O18   S    
C27   H47   S    
C39   C40   A    
Cr5   O17   S    
N6    H67   S    
C52   N2    S    
C79   H27   S    
Cr12  O36   S    
Cr11  O19   S    
C101  C106  D    
C80   H28   S    
C21   C25   S    
C85   O1    A    
C93   O9    A    
Cr10  O38   S    
C91   O47   A    
C34   C38   A    
Cr9   O37   S    
Cr2   O18   S    
C90   O46   A    
C28   H52   S    
C24   C28   S    
C89   O45   A    
N10   H75   S    
C14   H34   S    
C17   C109  A    
C15   H35   S    
C6    C10   A    
Cr8   O28   S    
C79   H23   S    
C85   O37   A    
Cr1   O41   S    
C38   C50   S    
Cr7   O51   S    
C16   C32   A    
C105  C106  S    
Cr12  O20   S    
Cr7   O31   S    
C21   H43   S    
C51   N1    S    
Cr6   O30   S    
C3    O27   A    
C105  H1    S    
C92   O52   A    
Cr5   O29   S    
C25   H45   S    
C107  H3    S    
C54   C91   S    
C34   C41   A    
Cr2   O2    S    
Cr9   O9    S    
C9    C29   A    
Cr11  O15   S    
C36   C95   S    
C96   O12   A    
C66   C70   A    
C77   H21   S    
C5    C109  A    
C101  H30   S    
C42   H54   S    
C41   H53   S    
C7    C23   S    
Cr4   O4    S    
Cr5   O49   S    
C1    O25   A    
Cr8   O20   S    
C97   O41   A    
C47   O31   A    
Cr1   O17   S    
C67   C71   A    
C104  H31   S    
C62   C82   A    
C24   H42   S    
Cr12  O16   S    
C45   O29   A    
C88   O4    A    
N12   H79   S    
Cr3   O43   S    
C11   C31   A    
C13   C17   A    
C25   H49   S    
C103  H32   S    
C72   H16   S    
Cr7   O27   S    
C50   N4    S    
C26   H46   S    
C73   C77   S    
C18   C110  A    
C49   C50   S    
C74   C78   S    
C51   H7    S    
C63   C83   A    
C86   O2    A    
C23   H41   S    
C26   H50   S    
C90   O50   A    
C36   C43   A    
C61   C81   A    
C108  H4    S    
C89   O49   A    
C13   H33   S    
Cr11  O11   S    
C104  C107  D    
C55   C71   A    
Cr3   O3    S    
C66   C82   A    
Cr9   O33   S    
Cr2   O42   S    
C48   C104  S    
