data_mof_unit_15493.cif
_audit_creation_date              2012-12-11T14:42:09-0500
_audit_creation_method            fapswitch 2.2
_symmetry_space_group_name_H-M    P1
_symmetry_Int_Tables_number       1
_space_group_crystal_system       triclinic
_cell_length_a                    19.016967
_cell_length_b                    10.905355
_cell_length_c                    18.865295
_cell_angle_alpha                 90.121031
_cell_angle_beta                  90.586196
_cell_angle_gamma                 90.001323
_cell_volume                      3912.19921599

loop_
_atom_site_label
_atom_site_type_symbol
_atom_type_description
_atom_site_fract_x
_atom_site_fract_y
_atom_site_fract_z
_atom_type_partial_charge
C1    C     C_R   0.725430 0.959761 0.855296 0.553377
C2    C     C_R   0.272734 0.956444 0.146377 0.556365
C3    C     C_R   0.225430 0.459761 0.855296 0.553375
C4    C     C_R   0.772734 0.456445 0.146377 0.556365
C5    C     C_R   0.707214 0.494679 0.035143 -0.099526
C6    C     C_R   0.301507 0.468969 0.962455 -0.121946
C7    C     C_R   0.207207 0.994668 0.035146 -0.099530
C8    C     C_R   0.801507 0.968966 0.962455 -0.121948
C9    C     C_R   0.752424 0.419361 0.075443 -0.013127
C10   C     C_R   0.238543 0.433621 0.929550 -0.004164
C11   C     C_R   0.252423 0.919357 0.075443 -0.013131
C12   C     C_R   0.738543 0.933622 0.929550 -0.004161
C13   C     C_R   0.789497 0.325099 0.043249 -0.100759
C14   C     C_R   0.181654 0.395843 0.970548 -0.102910
C15   C     C_R   0.289503 0.825104 0.043248 -0.100759
C16   C     C_R   0.681653 0.895848 0.970549 -0.102908
C17   C     C_R   0.785956 0.311599 0.970931 -0.113716
C18   C     C_R   0.187815 0.389528 0.042911 -0.152208
C19   C     C_R   0.285962 0.811606 0.970930 -0.113714
C20   C     C_R   0.687815 0.889532 0.042911 -0.152211
C21   C     C_R   0.743651 0.390056 0.929260 0.033939
C22   C     C_R   0.252241 0.414942 0.076271 0.019869
C23   C     C_R   0.243652 0.890057 0.929260 0.033934
C24   C     C_R   0.752241 0.914943 0.076271 0.019866
C25   C     C_R   0.562328 0.274707 0.519786 -0.131482
C26   C     C_R   0.543292 0.272152 0.448884 -0.119736
C27   C     C_R   0.062328 0.774707 0.519786 -0.131482
C28   C     C_R   0.043291 0.772152 0.448884 -0.119737
C29   C     C_R   0.512276 0.166351 0.419934 0.021814
C30   C     C_R   0.551765 0.171180 0.561841 0.014701
C31   C     C_R   0.012276 0.666351 0.419934 0.021814
C32   C     C_R   0.051765 0.671180 0.561841 0.014702
C33   C     C_R   0.508466 0.058772 0.460080 -0.125900
C34   C     C_R   0.528020 0.061304 0.531001 -0.105033
C35   C     C_R   0.008466 0.558772 0.460080 -0.125900
C36   C     C_R   0.028020 0.561303 0.531001 -0.105034
C37   C     C_R   0.781495 0.299742 0.527329 -0.088750
C38   C     C_R   0.192545 0.355198 0.462492 -0.108183
C39   C     C_R   0.281497 0.799745 0.527329 -0.088750
C40   C     C_R   0.692544 0.855199 0.462492 -0.108184
C41   C     C_R   0.784832 0.314401 0.454750 0.221578
C42   C     C_R   0.188609 0.354345 0.534992 0.207163
C43   C     C_R   0.284833 0.814402 0.454751 0.221578
C44   C     C_R   0.688608 0.854346 0.534992 0.207163
C45   C     C_R   0.528683 0.177300 0.850047 0.574709
C46   C     C_R   0.469274 0.176527 0.148418 0.571853
C47   C     C_R   0.028683 0.677300 0.850047 0.574711
C48   C     C_R   0.969274 0.676527 0.148418 0.571853
C49   C     C_R   0.752124 0.416309 0.423232 0.031454
C50   C     C_R   0.242521 0.411847 0.575829 0.029035
C51   C     C_R   0.252124 0.916309 0.423231 0.031454
C52   C     C_R   0.742520 0.911847 0.575829 0.029035
C53   C     C_R   0.711680 0.496660 0.464922 -0.173819
C54   C     C_R   0.304227 0.450322 0.542502 -0.170686
C55   C     C_R   0.211680 0.996658 0.464922 -0.173820
C56   C     C_R   0.804228 0.950321 0.542502 -0.170687
C57   C     C_R   0.708072 0.480372 0.537836 -0.158771
C58   C     C_R   0.310825 0.436618 0.469525 -0.098315
C59   C     C_R   0.208071 0.980371 0.537836 -0.158771
C60   C     C_R   0.810825 0.936617 0.469525 -0.098314
C61   C     C_R   0.744725 0.384016 0.569432 -0.021599
C62   C     C_R   0.253607 0.393991 0.428879 0.006720
C63   C     C_R   0.244725 0.884017 0.569432 -0.021599
C64   C     C_R   0.753607 0.893991 0.428879 0.006722
C65   C     C_R   0.737230 0.359860 0.854441 0.579698
C66   C     C_R   0.261964 0.364903 0.147289 0.565024
C67   C     C_R   0.237230 0.859860 0.854441 0.579695
C68   C     C_R   0.761964 0.864903 0.147289 0.565022
C69   C     C_R   0.727253 0.953814 0.647492 0.553134
C70   C     C_R   0.271994 0.955002 0.352395 0.572043
C71   C     C_R   0.227253 0.453814 0.647492 0.553134
C72   C     C_R   0.771995 0.455002 0.352395 0.572044
C73   C     C_R   0.564331 0.180372 0.637699 0.545128
C74   C     C_R   0.472275 0.176059 0.354237 0.534875
C75   C     C_R   0.064331 0.680372 0.637699 0.545128
C76   C     C_R   0.972275 0.676059 0.354238 0.534875
C77   C     C_R   0.737963 0.356820 0.644319 0.547163
C78   C     C_R   0.261748 0.359203 0.355056 0.564066
C79   C     C_R   0.237963 0.856821 0.644319 0.547163
C80   C     C_R   0.761748 0.859203 0.355056 0.564067
C81   C     C_2   0.495620 0.168483 0.919783 -0.113929
C82   C     C_2   0.497559 0.163569 0.076369 -0.118591
C83   C     C_2   0.995620 0.668483 0.919783 -0.113928
C84   C     C_2   0.997559 0.663569 0.076369 -0.118592
C85   C     C_2   0.486467 0.061641 0.035593 0.211243
C86   C     C_2   0.493129 0.062785 0.956988 0.209290
C87   C     C_2   0.986467 0.561641 0.035593 0.211243
C88   C     C_2   0.993129 0.562785 0.956988 0.209291
C89   C     C_R   0.702521 0.480627 0.962025 0.135945
C90   C     C_R   0.308972 0.460833 0.035736 0.128204
C91   C     C_R   0.202515 0.980618 0.962027 0.135943
C92   C     C_R   0.808972 0.960830 0.035735 0.128204
Cr1   Cr    Cr6+3 0.769270 0.163730 0.750710 1.057160
Cr2   Cr    Cr6+3 0.230730 0.163730 0.249290 1.047327
Cr3   Cr    Cr6+3 0.269270 0.663730 0.750710 1.057159
Cr4   Cr    Cr6+3 0.730730 0.663730 0.249290 1.047329
Cr5   Cr    Cr6+3 0.612620 0.009790 0.748780 1.138558
Cr6   Cr    Cr6+3 0.387380 0.009790 0.251220 1.127469
Cr7   Cr    Cr6+3 0.112620 0.509790 0.748780 1.138557
Cr8   Cr    Cr6+3 0.887380 0.509790 0.251220 1.127469
Cr9   Cr    Cr6+3 0.614160 0.322500 0.747710 1.095962
Cr10  Cr    Cr6+3 0.385840 0.322500 0.252290 1.109318
Cr11  Cr    Cr6+3 0.114160 0.822500 0.747710 1.095964
Cr12  Cr    Cr6+3 0.885840 0.822500 0.252290 1.109317
H1    H     H_    0.685943 0.575903 0.441885 0.166041
H2    H     H_    0.346798 0.491901 0.572619 0.153308
H3    H     H_    0.185941 0.075899 0.441884 0.166041
H4    H     H_    0.846798 0.991899 0.572620 0.153308
H5    H     H_    0.677468 0.542840 0.569628 0.201059
H6    H     H_    0.360444 0.459030 0.445091 0.195575
H7    H     H_    0.177466 0.042837 0.569627 0.201060
H8    H     H_    0.860445 0.959029 0.445091 0.195574
H9    H     H_    0.517801 0.247107 0.053269 0.091495
H10   H     H_    0.484002 0.255395 0.945035 0.095275
H11   H     H_    0.017801 0.747107 0.053269 0.091497
H12   H     H_    0.984002 0.755395 0.945035 0.095277
H13   H     H_    0.678651 0.569260 0.059649 0.178417
H14   H     H_    0.344584 0.504173 0.931329 0.169597
H15   H     H_    0.178638 0.069243 0.059652 0.178418
H16   H     H_    0.844585 0.004167 0.931328 0.169599
H17   H     H_    0.824199 0.265916 0.073546 0.211652
H18   H     H_    0.131381 0.372680 0.946993 0.235266
H19   H     H_    0.324210 0.765925 0.073544 0.211663
H20   H     H_    0.631379 0.872688 0.946994 0.235267
H21   H     H_    0.816439 0.238026 0.947906 0.182073
H22   H     H_    0.142754 0.357277 0.072251 0.194706
H23   H     H_    0.316451 0.738039 0.947904 0.182082
H24   H     H_    0.642753 0.857283 0.072252 0.194707
H25   H     H_    0.581713 0.359363 0.542678 0.148710
H26   H     H_    0.547967 0.355648 0.418260 0.149600
H27   H     H_    0.081712 0.859363 0.542678 0.148710
H28   H     H_    0.047966 0.855648 0.418261 0.149600
H29   H     H_    0.485133 0.975878 0.438551 0.167621
H30   H     H_    0.520017 0.979793 0.562441 0.201663
H31   H     H_    0.985134 0.475877 0.438551 0.167619
H32   H     H_    0.020018 0.479792 0.562441 0.201663
H33   H     H_    0.807178 0.220707 0.550690 0.167570
H34   H     H_    0.148840 0.316465 0.432666 0.173459
H35   H     H_    0.307180 0.720711 0.550691 0.167571
H36   H     H_    0.648839 0.816467 0.432666 0.173459
O1    O     O_R   0.784320 0.290430 0.830510 -0.502487
O2    O     O_R   0.215680 0.290430 0.169490 -0.520818
O3    O     O_R   0.284320 0.790430 0.830510 -0.502491
O4    O     O_R   0.715680 0.790430 0.169490 -0.520818
O5    O     O_R   0.554640 0.080370 0.673500 -0.486424
O6    O     O_R   0.445360 0.080370 0.326500 -0.505995
O7    O     O_R   0.054640 0.580370 0.673500 -0.486424
O8    O     O_R   0.945360 0.580370 0.326500 -0.505995
O9    O     O_R   0.543920 0.282180 0.666790 -0.501576
O10   O     O_R   0.456080 0.282180 0.333210 -0.520095
O11   O     O_R   0.043920 0.782180 0.666790 -0.501576
O12   O     O_R   0.956080 0.782180 0.333210 -0.520096
O13   O     O_R   0.679040 0.374160 0.674430 -0.509402
O14   O     O_R   0.320960 0.374160 0.325570 -0.477840
O15   O     O_R   0.179040 0.874160 0.674430 -0.509403
O16   O     O_R   0.820960 0.874160 0.325570 -0.477839
O17   O     O_3   0.665350 0.165340 0.749070 -0.315869
O18   O     O_3   0.334650 0.165340 0.250930 -0.284744
O19   O     O_3   0.165350 0.665340 0.749070 -0.315867
O20   O     O_3   0.834650 0.665340 0.250930 -0.284745
O21   O     O_R   0.762640 0.040960 0.825200 -0.514118
O22   O     O_R   0.237360 0.040960 0.174800 -0.512059
O23   O     O_R   0.262640 0.540960 0.825200 -0.514116
O24   O     O_R   0.737360 0.540960 0.174800 -0.512060
O25   O     O_R   0.667400 0.923970 0.829950 -0.469218
O26   O     O_R   0.332600 0.923970 0.170050 -0.455523
O27   O     O_R   0.167400 0.423970 0.829950 -0.469223
O28   O     O_R   0.832600 0.423970 0.170050 -0.455519
O29   O     O_R   0.553960 0.081340 0.821780 -0.440382
O30   O     O_R   0.446040 0.081340 0.178220 -0.443373
O31   O     O_R   0.053960 0.581340 0.821780 -0.440382
O32   O     O_R   0.946040 0.581340 0.178220 -0.443375
O33   O     O_R   0.543180 0.283240 0.826740 -0.490266
O34   O     O_R   0.456820 0.283240 0.173260 -0.476686
O35   O     O_R   0.043180 0.783240 0.826740 -0.490263
O36   O     O_R   0.956820 0.783240 0.173260 -0.476686
O37   O     O_R   0.678360 0.375140 0.822710 -0.454959
O38   O     O_R   0.321640 0.375140 0.177290 -0.448559
O39   O     O_R   0.178360 0.875140 0.822710 -0.454958
O40   O     O_R   0.821640 0.875140 0.177290 -0.448559
O41   O     O_R   0.785050 0.289380 0.670560 -0.505773
O42   O     O_R   0.214950 0.289380 0.329440 -0.531024
O43   O     O_R   0.285050 0.789380 0.670560 -0.505773
O44   O     O_R   0.714950 0.789380 0.329440 -0.531024
O45   O     O_R   0.763320 0.039990 0.676930 -0.521604
O46   O     O_R   0.236680 0.039990 0.323070 -0.524119
O47   O     O_R   0.263320 0.539990 0.676930 -0.521604
O48   O     O_R   0.736680 0.539990 0.323070 -0.524118
O49   O     O_R   0.668130 0.922920 0.670000 -0.443265
O50   O     O_R   0.331870 0.922920 0.330000 -0.445236
O51   O     O_R   0.168130 0.422920 0.670000 -0.443266
O52   O     O_R   0.831870 0.422920 0.330000 -0.445237
Cl1   Cl    Cl    0.467302 0.916471 0.073458 -0.491712
Cl2   Cl    Cl    0.490543 0.918953 0.912381 -0.486493
Cl3   Cl    Cl    0.967300 0.416471 0.073457 -0.491700
Cl4   Cl    Cl    0.990544 0.418952 0.912381 -0.486484
Cl5   Cl    Cl    0.832118 0.204554 0.405888 -0.617105
Cl6   Cl    Cl    0.114328 0.277022 0.569138 -0.636249
Cl7   Cl    Cl    0.332121 0.704557 0.405889 -0.617105
Cl8   Cl    Cl    0.614327 0.777024 0.569137 -0.636247
Br1   Br    Br    0.642869 0.591873 0.910393 -0.429690
Br2   Br    Br    0.397849 0.514087 0.074475 -0.441481
Br3   Br    Br    0.142855 0.091858 0.910398 -0.429682
Br4   Br    Br    0.897850 0.014082 0.074474 -0.441474

loop_
_geom_bond_atom_site_label_1
_geom_bond_atom_site_label_2
_ccdc_geom_bond_type
C58   C62   A    
C89   Br1   S    
C87   C88   S    
Cr3   O3    S    
C48   C84   S    
C14   H18   S    
Cr7   O19   S    
Cr8   O32   S    
C27   H27   S    
C14   C18   A    
Cr9   O33   S    
C35   C36   A    
C84   C87   D    
Cr6   O50   S    
C25   H25   S    
Cr10  O18   S    
C32   C75   S    
C3    O27   A    
Cr12  O36   S    
C21   C89   A    
C85   C86   S    
C15   C19   A    
C66   O38   A    
C8    H16   S    
C50   C54   A    
C15   H19   S    
Cr3   O19   S    
C32   C36   A    
Cr12  O20   S    
C38   C42   A    
C55   C59   A    
C49   C53   A    
Cr7   O31   S    
C4    O24   A    
C34   H30   S    
C80   O44   A    
C29   C33   A    
C13   H17   S    
C23   C67   S    
C57   C61   A    
C88   Cl4   S    
C56   H4    S    
C9    C13   A    
C52   C69   S    
C77   O13   A    
C48   O32   A    
C11   C15   A    
C57   H5    S    
C12   C16   A    
C61   C77   S    
C49   C72   S    
C81   H10   S    
Cr6   O18   S    
C59   H7    S    
C46   O34   A    
C8    C92   A    
C51   C70   S    
C47   C83   S    
C8    C12   A    
Cr10  O14   S    
C51   C55   A    
C81   C86   D    
C26   H26   S    
Cr11  O11   S    
C21   C65   S    
C44   C52   A    
Cr5   O49   S    
C83   C88   D    
C67   O3    A    
Cr2   O18   S    
C37   H33   S    
C47   O31   A    
C64   C80   S    
Cr10  O38   S    
C2    O22   A    
Cr8   O52   S    
C1    C12   S    
Cr1   O41   S    
Cr4   O44   S    
C2    C11   S    
C36   H32   S    
C41   C49   A    
C62   C78   S    
C80   O16   A    
Cr7   O27   S    
Cr11  O19   S    
C55   H3    S    
C38   H34   S    
C39   H35   S    
C30   C34   A    
Cr3   O47   S    
Cr2   O2    S    
C20   H24   S    
C7    H15   S    
C42   Cl6   S    
C41   Cl5   S    
C10   C14   A    
C69   O49   A    
C30   C73   S    
C54   H2    S    
C19   C23   A    
C78   O14   A    
C63   C79   S    
C29   C74   S    
Cr6   O6    S    
C75   O7    A    
C25   C26   A    
C6    C90   A    
C24   C68   S    
C79   O15   A    
C68   O40   A    
C17   C21   A    
Cr4   O24   S    
C5    H13   S    
C28   H28   S    
Cr5   O17   S    
C7    C11   A    
C50   C71   S    
C17   H21   S    
C5    C9    A    
C60   H8    S    
C33   H29   S    
Cr4   O4    S    
C65   O1    A    
Cr8   O20   S    
C77   O41   A    
Cr3   O43   S    
Cr1   O21   S    
C16   C20   A    
C7    C91   A    
Cr11  O35   S    
C33   C34   A    
C22   C90   A    
C38   C62   A    
C87   Cl3   S    
Cr12  O16   S    
Cr1   O17   S    
Cr6   O26   S    
C46   O30   A    
Cr10  O10   S    
Cr11  O15   S    
Cr4   O20   S    
C42   C50   A    
C44   Cl8   S    
C84   H11   S    
C1    O21   A    
C72   O48   A    
C24   C92   A    
C23   C91   A    
Cr9   O13   S    
C35   H31   S    
C69   O45   A    
Cr1   O1    S    
C70   O50   A    
C54   C58   A    
C25   C30   A    
C2    O26   A    
C53   C57   A    
C73   O9    A    
C27   C32   A    
C58   H6    S    
C4    O28   A    
Cr5   O5    S    
C83   H12   S    
C74   O6    A    
C28   C31   A    
C45   C81   S    
Cr2   O46   S    
C82   H9    S    
C71   O47   A    
C92   Br4   S    
C46   C82   S    
C6    C10   A    
C37   C61   A    
C22   C66   S    
C66   O2    A    
C3    O23   A    
Cr10  O34   S    
C82   C85   D    
C39   C63   A    
C19   H23   S    
C59   C63   A    
C40   C64   A    
Cr8   O28   S    
Cr3   O23   S    
C60   C64   A    
C71   O51   A    
Cr12  O12   S    
C18   C22   A    
C16   H20   S    
Cr5   O29   S    
Cr7   O7    S    
C3    C10   S    
C67   O39   A    
C18   H22   S    
C72   O52   A    
Cr7   O51   S    
C43   C51   A    
C31   C76   S    
Cr12  O40   S    
C65   O37   A    
C45   O29   A    
Cr8   O8    S    
Cr5   O25   S    
C40   H36   S    
C31   C35   A    
Cr9   O9    S    
C79   O43   A    
C68   O4    A    
Cr11  O39   S    
C85   Cl1   S    
C75   O11   A    
C37   C41   A    
C91   Br3   S    
Cr9   O37   S    
C70   O46   A    
C47   O35   A    
Cr9   O17   S    
C13   C17   A    
Cr6   O30   S    
C53   H1    S    
C45   O33   A    
C40   C44   A    
C56   C60   A    
C1    O25   A    
C76   O8    A    
C26   C29   A    
C39   C43   A    
C73   O5    A    
C27   C28   A    
C76   O12   A    
C74   O10   A    
C43   Cl7   S    
Cr2   O42   S    
C78   O42   A    
C4    C9    S    
C86   Cl2   S    
Cr4   O48   S    
C20   C24   A    
C5    C89   A    
Cr2   O22   S    
C52   C56   A    
C6    H14   S    
C48   O36   A    
C90   Br2   S    
Cr1   O45   S    
