data_mof_unit_55743.cif
_audit_creation_date              2012-12-10T17:21:18-0500
_audit_creation_method            fapswitch 2.2
_symmetry_space_group_name_H-M    P1
_symmetry_Int_Tables_number       1
_space_group_crystal_system       triclinic
_cell_length_a                    9.640082
_cell_length_b                    10.783855
_cell_length_c                    13.884797
_cell_angle_alpha                 93.165381
_cell_angle_beta                  85.270965
_cell_angle_gamma                 90.447199
_cell_volume                      1436.30906774

loop_
_atom_site_label
_atom_site_type_symbol
_atom_type_description
_atom_site_fract_x
_atom_site_fract_y
_atom_site_fract_z
_atom_type_partial_charge
C1    C     C_R   0.499932 0.737357 0.503736 0.778261
C2    C     C_1   0.464903 0.500306 0.785777 -0.167843
C3    C     C_R   0.330396 0.880309 0.655149 -0.172376
C4    C     C_R   0.246725 0.949434 0.724772 -0.092079
C5    C     C_R   0.245418 0.078297 0.724138 -0.132893
C6    C     C_R   0.327736 0.138856 0.653860 -0.171989
C7    C     C_R   0.411297 0.070646 0.581143 0.100132
C8    C     C_R   0.412523 0.939464 0.581773 0.092189
C9    C     C_R   0.499832 0.871678 0.510892 -0.095693
C10   C     C_R   0.588734 0.932578 0.444410 -0.180761
C11   C     C_R   0.587695 0.060457 0.443835 -0.201391
C12   C     C_R   0.477764 0.500444 0.682700 0.786863
C13   C     C_R   0.497783 0.129564 0.509757 -0.087186
C14   C     C_R   0.870344 0.332930 0.371877 -0.121508
C15   C     C_R   0.949123 0.250466 0.309882 -0.210532
C16   C     C_R   0.092111 0.250316 0.310137 -0.197734
C17   C     C_R   0.157313 0.332674 0.372360 -0.121192
C18   C     C_R   0.081277 0.417585 0.437484 0.197427
C19   C     C_R   0.932039 0.417615 0.437399 0.197133
C20   C     C_R   0.921797 0.580565 0.559595 0.062546
C21   C     C_R   0.069580 0.578775 0.558832 -0.020248
C22   C     C_R   0.499196 0.263000 0.502979 0.765190
C23   C     C_R   0.522218 0.499542 0.317300 0.801678
C24   C     C_1   0.535004 0.498880 0.214180 -0.171130
C25   C     C_2   0.557127 0.497908 0.023729 -0.156312
C26   C     C_2   0.442607 0.500015 0.976170 -0.162135
C27   C     C_1   0.454019 0.500152 0.872568 0.010713
C28   C     C_1   0.545779 0.498352 0.127357 0.005861
Cu1   Cu    Cu3+1 0.359340 0.500010 0.500010 0.930023
Cu2   Cu    Cu3+1 0.640660 0.499990 0.499990 0.927154
H1    H     H_    0.761732 0.326561 0.364783 0.188610
H2    H     H_    0.898570 0.186606 0.260846 0.146566
H3    H     H_    0.122900 0.642125 0.606564 0.178086
H4    H     H_    0.656782 0.880545 0.390963 0.154955
H5    H     H_    0.331960 0.780844 0.661038 0.137368
H6    H     H_    0.184229 0.902859 0.780340 0.154332
H7    H     H_    0.181905 0.131745 0.779236 0.141044
H8    H     H_    0.326817 0.239136 0.658713 0.158251
N1    N     N_R   0.852210 0.498790 0.499090 -0.243397
N2    N     N_R   0.148080 0.498710 0.499060 -0.223766
O1    O     O_R   0.381190 0.680360 0.500010 -0.572644
O2    O     O_R   0.618760 0.680340 0.500000 -0.599706
O3    O     O_R   0.364420 0.499990 0.637850 -0.583508
O4    O     O_R   0.601990 0.499960 0.637840 -0.595287
O5    O     O_R   0.381240 0.319660 0.500000 -0.601938
O6    O     O_R   0.618810 0.319640 0.499990 -0.585148
O7    O     O_R   0.398010 0.500040 0.362160 -0.583729
O8    O     O_R   0.635580 0.500010 0.362150 -0.587991
H9    H     H_    0.339805 0.501870 0.014748 0.158544
H10   H     H_    0.153353 0.186344 0.261304 0.150921
H11   H     H_    0.267533 0.326183 0.365916 0.194083
H12   H     H_    0.659924 0.496113 0.985145 0.161235
H13   H     H_    0.655271 0.105705 0.390075 0.137983
C29   C     C_2   0.847392 0.674102 0.627362 0.367333
H14   H     H_    0.736307 0.676807 0.639294 0.142112
O9    O     O_2   0.911742 0.752459 0.672729 -0.586476

loop_
_geom_bond_atom_site_label_1
_geom_bond_atom_site_label_2
_ccdc_geom_bond_type
Cu2   N1    S    
C23   C24   S    
C6    H8    S    
Cu1   Cu2   S    
C5    H7    S    
C12   O3    A    
C9    C10   A    
C11   H13   S    
C3    H5    S    
C14   H1    S    
C2    C12   S    
C17   H11   S    
C4    H6    S    
C17   C18   A    
C25   H12   S    
C1    C9    S    
C15   H2    S    
C12   O4    A    
Cu1   O3    S    
C25   C28   S    
C11   C13   A    
Cu2   O4    S    
C26   C27   S    
C2    C27   T    
C21   N2    A    
C19   N1    A    
Cu1   O7    S    
C4    C5    A    
Cu1   N2    S    
Cu2   O8    S    
C22   O6    A    
C16   H10   S    
C13   C22   S    
C3    C8    A    
C6    C7    A    
C7    C8    A    
C5    C6    A    
C29   O9    D    
C21   H3    S    
C10   C11   A    
C15   C16   A    
C10   H4    S    
C24   C28   T    
C1    O2    A    
C7    C13   A    
C22   O5    A    
C23   O7    A    
C20   C21   A    
C20   C29   S    
C18   C19   A    
C26   H9    S    
C1    O1    A    
C20   N1    A    
C18   N2    A    
C14   C15   A    
C16   C17   A    
C23   O8    A    
Cu1   O1    S    
C25   C26   D    
C29   H14   S    
C14   C19   A    
Cu2   O6    S    
Cu2   O2    S    
C3    C4    A    
Cu1   O5    S    
C8    C9    A    
