data_mof_unit_17569.cif
_audit_creation_date              2013-03-05T15:45:33-0500
_audit_creation_method            fapswitch 2.2
_symmetry_space_group_name_H-M    P1
_symmetry_Int_Tables_number       1
_space_group_crystal_system       triclinic
_cell_length_a                    9.329805
_cell_length_b                    15.082931
_cell_length_c                    19.102877
_cell_angle_alpha                 95.387804
_cell_angle_beta                  95.272672
_cell_angle_gamma                 93.250322
_cell_volume                      2659.17916204

loop_
_atom_site_label
_atom_site_type_symbol
_atom_site_description
_atom_site_fract_x
_atom_site_fract_y
_atom_site_fract_z
_atom_type_partial_charge
P1    P     P_3+3 0.937730 0.712710 0.546710 0.633960
O1    O     O_2   0.108370 0.727470 0.525290 -0.339645
O2    O     O_3   0.865330 0.611210 0.531230 -0.334146
O3    O     O_3   0.346360 0.671710 0.401620 -0.322856
O4    O     O_2   0.307690 0.837767 0.437244 -0.375988
O5    O     O_3   0.960799 0.756215 0.639522 -0.489395
O6    O     O_3   0.352946 0.806829 0.306267 -0.403138
C1    C     C_3   0.344516 0.793433 0.175266 -0.827347
P2    P     P_3+3 0.357970 0.428340 0.344000 0.594495
P3    P     P_3+3 0.870514 0.607375 0.277111 0.595163
O7    O     O_2   0.182890 0.456530 0.332150 -0.312389
O8    O     O_3   0.933230 0.625130 0.368420 -0.348687
O9    O     O_2   0.981967 0.547171 0.245351 -0.283269
O10   O     O_3   0.338595 0.310681 0.324588 -0.522043
O11   O     O_3   0.897437 0.706258 0.233115 -0.493479
C2    C     C_3   0.873893 0.789732 0.272270 0.090041
H1    H     H_    0.782171 0.781249 0.303462 0.108398
C3    C     C_3   0.842372 0.867267 0.220468 -0.677627
C4    C     C_3   0.804670 0.262653 0.297121 0.201135
C5    C     C_3   0.856416 0.202810 0.234007 -0.879283
H2    H     H_    0.969803 0.220959 0.226070 0.195055
H3    H     H_    0.848382 0.132758 0.245223 0.273423
Ba1   Ba    Ba6+2 0.150350 0.545800 0.464500 1.722345
C6    C     C_3   0.995746 0.708241 0.700666 0.089142
C7    C     C_3   0.993881 0.773781 0.773859 -0.890687
H4    H     H_    0.896909 0.754118 0.795415 0.278720
C8    C     C_3   0.281427 0.261313 0.375755 0.144697
C9    C     C_3   0.196821 0.175969 0.339118 -0.869928
H5    H     H_    0.092638 0.192538 0.315971 0.198544
H6    H     H_    0.173870 0.128602 0.378688 0.222039
P4    P     P_3+3 0.872570 0.287280 0.453240 0.518728
O12   O     O_2   0.701930 0.272470 0.474700 -0.328012
O13   O     O_3   0.944970 0.388780 0.468720 -0.370744
O14   O     O_3   0.463940 0.328280 0.598320 -0.360285
O15   O     O_3   0.874535 0.237874 0.362371 -0.627073
P5    P     P_3+3 0.933579 0.395659 0.721154 0.510237
O16   O     O_3   0.372010 0.546630 0.581240 -0.303110
O17   O     O_3   0.877070 0.374860 0.631520 -0.370906
O18   O     O_2   0.815920 0.448282 0.753995 -0.295007
O19   O     O_3   0.901837 0.292156 0.751126 -0.507816
Ba2   Ba    Ba6+2 0.659830 0.454190 0.535450 1.689048
P6    P     P_3+3 0.409345 0.782701 0.393678 0.605722
C10   C     C_3   0.375466 0.745051 0.246135 0.300797
H7    H     H_    0.449206 0.811453 0.155876 0.177899
O20   O     O_3   0.438280 0.453360 0.418700 -0.357642
C11   C     C_3   0.482545 0.759125 0.696575 0.116784
C12   C     C_3   0.405558 0.832763 0.741957 -0.577402
H8    H     H_    0.374147 0.803503 0.789372 0.110396
P7    P     P_3+3 0.459752 0.566879 0.668678 0.541744
O21   O     O_2   0.627420 0.543410 0.667830 -0.336595
O22   O     O_3   0.426694 0.674127 0.710191 -0.633042
C13   C     C_3   0.963625 0.229162 0.706226 0.059868
H9    H     H_    0.913682 0.224223 0.650985 0.105933
H10   H     H_    0.075561 0.250304 0.701198 0.121249
C14   C     C_3   0.953991 0.137237 0.734299 -0.656662
P8    P     P_3+3 0.400819 0.217100 0.610413 0.447470
C15   C     C_3   0.459655 0.238275 0.758078 0.224239
O23   O     O_2   0.509984 0.167436 0.568013 -0.351602
O24   O     O_3   0.452551 0.177067 0.695471 -0.504678
C16   C     C_3   0.485684 0.190965 0.829356 -0.425231
H11   H     H_    0.481370 0.244254 0.873766 0.218102
C17   C     C_R   0.018055 0.941879 0.512931 -0.029506
C18   C     C_R   0.834518 0.803197 0.497271 0.109250
C19   C     C_R   0.689928 0.773811 0.472047 -0.381097
C20   C     C_R   0.598204 0.826618 0.432732 0.215493
C21   C     C_R   0.642281 0.917330 0.429745 -0.105148
C22   C     C_R   0.777048 0.956216 0.461861 0.127196
C23   C     C_R   0.878223 0.899246 0.492505 0.050191
C24   C     C_R   0.942615 0.096695 0.493317 0.008305
C25   C     C_R   0.050923 0.038287 0.514515 0.103619
C26   C     C_R   0.973450 0.195635 0.504466 0.165850
C27   C     C_R   0.102449 0.225674 0.548369 -0.448178
C28   C     C_R   0.216297 0.169511 0.563117 0.206637
C29   C     C_R   0.191286 0.077016 0.540200 -0.397296
C30   C     C_R   0.810473 0.051688 0.462239 -0.082850
H12   H     H_    0.568194 0.958948 0.403272 0.221911
H13   H     H_    0.118753 0.295476 0.567607 0.182612
H14   H     H_    0.101648 0.900146 0.530612 0.152735
H15   H     H_    0.732289 0.091456 0.438438 0.119917
C31   C     C_R   0.608985 0.502267 0.295945 -0.355059
C32   C     C_R   0.463954 0.472333 0.275341 0.215878
C33   C     C_R   0.412183 0.463104 0.202673 -0.240456
C34   C     C_R   0.503633 0.492522 0.152646 -0.060178
C35   C     C_R   0.641865 0.533283 0.176916 -0.282801
C36   C     C_R   0.693948 0.541523 0.248424 0.227795
C37   C     C_R   0.479437 0.564178 0.040577 -0.168993
C38   C     C_R   0.433606 0.566439 0.968961 0.019607
C39   C     C_R   0.356122 0.490570 0.929417 0.055515
C40   C     C_R   0.332431 0.414152 0.965158 -0.115834
C41   C     C_R   0.383431 0.412440 0.036500 -0.078834
C42   C     C_R   0.454544 0.488628 0.075470 0.131092
C43   C     C_R   0.165396 0.457131 0.825410 -0.050039
C44   C     C_R   0.120137 0.444100 0.752379 0.210141
C45   C     C_R   0.362624 0.496317 0.727188 0.227301
C46   C     C_R   0.409741 0.501391 0.800657 -0.313769
C47   C     C_R   0.310174 0.484496 0.850796 0.081113
C48   C     C_R   0.218872 0.464593 0.703769 -0.320450
H16   H     H_    0.533408 0.623618 0.070101 0.160035
H17   H     H_    0.277460 0.354255 0.937312 0.185070
H18   H     H_    0.366988 0.351386 0.061123 0.141467
H19   H     H_    0.088625 0.442289 0.862598 0.149435
H20   H     H_    0.710438 0.559336 0.139823 0.191939
H21   H     H_    0.181408 0.460188 0.648154 0.160807
C49   C     C_2   0.285219 0.657628 0.238764 0.663016
H22   H     H_    0.283572 0.614550 0.190353 -0.053921
O25   O     O_2   0.223416 0.629599 0.285764 -0.433189
C50   C     C_2   0.772854 0.208252 0.162936 0.713784
H23   H     H_    0.778056 0.269513 0.137486 0.006427
O26   O     O_2   0.700402 0.143330 0.133068 -0.486388
C51   C     C_2   0.134458 0.668710 0.699143 0.925018
O27   O     O_2   0.177073 0.645946 0.642449 -0.471820
O28   O     O_R   0.186386 0.630882 0.759145 -0.849797
H24   H     H_    0.265403 0.668313 0.789085 0.344344
C52   C     C_2   0.895364 0.627343 0.700941 1.044600
O29   O     O_2   0.888072 0.568522 0.652323 -0.520569
O30   O     O_R   0.828626 0.610946 0.760766 -0.768535
H25   H     H_    0.899790 0.607849 0.803471 0.335686
C53   C     C_2   0.094134 0.768459 0.841379 1.161699
O31   O     O_2   0.080236 0.703481 0.874463 -0.529858
O32   O     O_R   0.188063 0.839934 0.872970 -0.721931
H26   H     H_    0.191560 0.894983 0.846915 0.287921
C54   C     C_2   0.964008 0.867845 0.765569 0.748642
H27   H     H_    0.973434 0.893773 0.716157 0.154280
O33   O     O_2   0.919898 0.913451 0.814282 -0.479705
C55   C     C_2   0.182689 0.314760 0.415890 0.478662
H28   H     H_    0.089217 0.329588 0.385169 0.159560
O34   O     O_2   0.218651 0.356506 0.473339 -0.550953
C56   C     C_2   0.399924 0.234446 0.423688 1.079077
O35   O     O_2   0.457190 0.290043 0.468722 -0.484780
O36   O     O_R   0.441312 0.146894 0.418538 -0.750983
H29   H     H_    0.529743 0.138388 0.450249 0.351691
C57   C     C_2   0.257578 0.739402 0.112982 1.045997
O37   O     O_2   0.308799 0.728150 0.056557 -0.574009
O38   O     O_R   0.116082 0.706954 0.118644 -0.754544
H30   H     H_    0.069485 0.672938 0.073190 0.358208
C58   C     C_2   0.271566 0.130654 0.280717 0.982091
H31   H     H_    0.282073 0.161978 0.232425 0.040815
O39   O     O_2   0.321106 0.058512 0.287286 -0.499310
C59   C     C_2   0.526726 0.716463 0.250596 0.286947
H32   H     H_    0.588402 0.714704 0.205148 0.071413
O40   O     O_2   0.578390 0.687879 0.304085 -0.611131
C60   C     C_2   0.634089 0.765149 0.725537 1.002120
O41   O     O_2   0.726613 0.788812 0.689568 -0.599282
O42   O     O_R   0.666754 0.754968 0.797173 -0.773793
H33   H     H_    0.581074 0.736756 0.822377 0.302573
C61   C     C_2   0.461633 0.776670 0.620489 1.143214
O43   O     O_2   0.517999 0.843891 0.600584 -0.582589
O44   O     O_R   0.373127 0.717834 0.573321 -0.684233
H34   H     H_    0.365349 0.737636 0.524732 0.329158
C62   C     C_2   0.502071 0.914387 0.769470 0.510482
H35   H     H_    0.552841 0.921555 0.823335 0.076758
O45   O     O_2   0.525199 0.972148 0.730850 -0.491473
C63   C     C_2   0.270265 0.867242 0.708391 0.565715
H36   H     H_    0.223751 0.922104 0.736787 -0.049189
O46   O     O_2   0.216195 0.839769 0.649467 -0.576488
C64   C     C_2   0.274160 0.880490 0.183992 1.314941
O47   O     O_2   0.202576 0.897304 0.233080 -0.570839
O48   O     O_R   0.283815 0.939810 0.132272 -0.743983
H37   H     H_    0.232266 0.996134 0.142880 0.356357
C65   C     C_2   0.688956 0.895397 0.218057 0.939163
O49   O     O_2   0.624086 0.897585 0.270852 -0.623044
O50   O     O_R   0.634061 0.937330 0.159857 -0.730651
H38   H     H_    0.546564 0.971306 0.169848 0.373882
C66   C     C_2   0.808760 0.087094 0.711494 1.132497
O51   O     O_2   0.791037 0.010482 0.725222 -0.508254
O52   O     O_R   0.698338 0.120772 0.670135 -0.669841
H39   H     H_    0.704014 0.187622 0.670360 0.311897
C67   C     C_2   0.066097 0.084014 0.702094 0.963608
O53   O     O_2   0.193003 0.106912 0.715855 -0.683176
O54   O     O_R   0.025333 0.010329 0.654331 -0.813344
H40   H     H_    0.111406 0.978002 0.641337 0.310623
C68   C     C_2   0.985161 0.146228 0.814381 0.754763
H41   H     H_    0.998450 0.211260 0.844727 0.132596
O55   O     O_2   0.997008 0.080725 0.846785 -0.497301
C69   C     C_2   0.322574 0.283189 0.759589 0.500131
H42   H     H_    0.286908 0.314622 0.713944 -0.077003
O56   O     O_2   0.248741 0.281945 0.809058 -0.643629
C70   C     C_2   0.578126 0.310139 0.757636 0.423004
H43   H     H_    0.592205 0.343351 0.710982 0.101766
O57   O     O_2   0.658294 0.334014 0.810965 -0.460918
C71   C     C_2   0.373785 0.119102 0.840185 0.695886
H44   H     H_    0.359642 0.058011 0.805478 0.041027
O58   O     O_2   0.301768 0.127469 0.890348 -0.522516
C72   C     C_2   0.997919 0.813698 0.328226 1.051421
O59   O     O_2   0.005776 0.882560 0.367036 -0.639941
O60   O     O_R   0.094453 0.751346 0.342603 -0.640942
H45   H     H_    0.108570 0.746940 0.395138 0.363653
C73   C     C_2   0.630221 0.153429 0.842119 0.571450
H46   H     H_    0.652179 0.091346 0.814277 0.063109
O61   O     O_2   0.719874 0.189146 0.888305 -0.513056
C74   C     C_2   0.627688 0.692894 0.498361 1.039818
O62   O     O_2   0.643787 0.683177 0.561187 -0.642127
O63   O     O_R   0.561423 0.623927 0.453232 -0.724071
H47   H     H_    0.504591 0.583590 0.481093 0.380177
C75   C     C_2   0.315473 0.021455 0.537251 1.172070
O64   O     O_2   0.358242 0.000665 0.480180 -0.540575
O65   O     O_R   0.391082 0.997646 0.597959 -0.652055
H48   H     H_    0.348758 0.021164 0.642077 0.345334
C76   C     C_2   0.561150 0.530027 0.824693 0.595149
H49   H     H_    0.610548 0.585161 0.802745 0.118240
O66   O     O_2   0.629294 0.495315 0.871212 -0.501297
C77   C     C_2   0.473089 0.650460 0.940056 1.016613
O67   O     O_2   0.598374 0.681261 0.949045 -0.612931
O68   O     O_R   0.367235 0.698973 0.909185 -0.746346
H50   H     H_    0.407218 0.760557 0.901131 0.342171
C78   C     C_2   0.263869 0.423822 0.179144 1.072659
O69   O     O_2   0.179569 0.465151 0.143995 -0.627968
O70   O     O_R   0.222772 0.337723 0.193992 -0.763855
H51   H     H_    0.121249 0.317653 0.172862 0.303163
C79   C     C_2   0.677506 0.476648 0.362456 1.099050
O71   O     O_2   0.662967 0.399983 0.377004 -0.628761
O72   O     O_R   0.754830 0.537640 0.410154 -0.711297
H52   H     H_    0.829503 0.507751 0.438700 0.392853
C80   C     C_2   0.921710 0.958342 0.245345 1.127150
O73   O     O_2   0.995132 0.998188 0.207044 -0.617031
O74   O     O_R   0.891936 0.002537 0.309678 -0.783767
H53   H     H_    0.958555 0.057199 0.325409 0.325373
C81   C     C_2   0.865693 0.832513 0.144593 1.263839
O75   O     O_2   0.960633 0.865480 0.113225 -0.562427
O76   O     O_R   0.774367 0.761791 0.110099 -0.786669
H54   H     H_    0.799656 0.743534 0.060542 0.364698
C82   C     C_2   0.644325 0.240369 0.291683 1.054106
O77   O     O_2   0.562783 0.286816 0.260296 -0.648508
O78   O     O_R   0.590443 0.158040 0.309001 -0.736791
H55   H     H_    0.668016 0.118457 0.325435 0.327243
C83   C     C_2   0.847161 0.355910 0.281678 0.472448
H56   H     H_    0.808997 0.379312 0.231808 -0.030388
O79   O     O_2   0.923823 0.406509 0.324043 -0.540134

loop_
_geom_bond_atom_site_label_1
_geom_bond_atom_site_label_2
_geom_bond_distance
_ccdc_geom_bond_type
C38   C39   1.430460 A    
C39   C47   1.516301 S    
P3    C36   1.883302 S    
C6    C52   1.496175 S    
Ba1   O20   3.248604 S    
C35   H20   1.083004 S    
C28   C29   1.421970 A    
C29   C75   1.470077 S    
O2    Ba1   3.217741 S    
C46   C47   1.423993 A    
C1    C10   1.608191 S    
O4    P6    1.544835 D    
C56   O35   1.207462 D    
C31   C36   1.408191 A    
C49   O25   1.206685 D    
C32   C33   1.418654 A    
C41   C42   1.406067 A    
C11   C60   1.464794 S    
C11   C61   1.498862 S    
C71   H44   1.077690 S    
O32   H26   1.007833 S    
O14   P8    1.788302 S    
O14   Ba2   2.971073 S    
O8    Ba1   2.984581 S    
O70   H51   1.012921 S    
C55   H28   1.052444 S    
C77   O68   1.383653 S    
C40   H17   1.081310 S    
C9    H5    1.082626 S    
C4    C83   1.502952 S    
C14   C66   1.520257 S    
C61   O43   1.223850 D    
C37   C42   1.392038 A    
C15   C70   1.504740 S    
C72   O60   1.367519 S    
C80   O74   1.400619 S    
C15   O24   1.434634 S    
O54   H40   1.001262 S    
O11   C2    1.441385 S    
C43   C47   1.417344 A    
O30   H25   1.009774 S    
C17   C25   1.465913 A    
C73   O61   1.221591 D    
P1    O1    1.687668 D    
O6    P6    1.780972 S    
O7    Ba1   2.800958 S    
C24   C26   1.495157 A    
C46   C76   1.472149 S    
C53   O31   1.222177 D    
C49   H22   1.077519 S    
C51   O28   1.387853 S    
C15   C69   1.482162 S    
P5    C44   1.871432 S    
C79   O71   1.217480 D    
O2    Ba2   2.973340 S    
P4    O12   1.688005 D    
C68   O55   1.219073 D    
C57   O37   1.220039 D    
P7    O22   1.789214 S    
C25   C29   1.427678 A    
P6    C20   1.906130 S    
O12   Ba2   2.936312 S    
P4    O13   1.627402 S    
C6    C7    1.636855 S    
C10   C59   1.496173 S    
C14   C68   1.522517 S    
O6    C10   1.448263 S    
P7    C45   1.871708 S    
C63   O46   1.215543 D    
C7    C54   1.481402 S    
C38   C77   1.470520 S    
O63   H47   1.005308 S    
C13   C14   1.533756 S    
C27   C28   1.420219 A    
C5    C50   1.513738 S    
C59   O40   1.215743 D    
C67   O54   1.382096 S    
C21   C22   1.417162 A    
C72   O59   1.212676 D    
C21   H12   1.082647 S    
C76   H49   1.066410 S    
C16   C73   1.500168 S    
C9    C58   1.500641 S    
O78   H55   1.010558 S    
C50   O26   1.220849 D    
C3    C80   1.535643 S    
C4    C82   1.506520 S    
C14   C67   1.495864 S    
C37   H16   1.084923 S    
P1    C18   1.976322 S    
C41   H18   1.082309 S    
O76   H54   1.013500 S    
C13   H10   1.089949 S    
C52   O29   1.217019 D    
C61   O44   1.382476 S    
O1    Ba1   2.935629 S    
C71   O58   1.221016 D    
C77   O67   1.223986 D    
C18   C19   1.421626 A    
C22   C23   1.434214 A    
C12   H8    1.100113 S    
C70   H43   1.077201 S    
P5    O19   1.731835 S    
C6    C51   1.456835 S    
C35   C36   1.398863 A    
O17   Ba2   2.985193 S    
C58   O39   1.218759 D    
C40   C41   1.404712 A    
C51   O27   1.213951 D    
O3    Ba1   2.971864 S    
C78   O69   1.222758 D    
C2    H1    1.095140 S    
C15   C16   1.601082 S    
C12   C63   1.504382 S    
C45   C48   1.415840 A    
Ba1   O13   2.972664 S    
C7    H4    1.066309 S    
O19   C13   1.403800 S    
C11   O22   1.412274 S    
C74   O62   1.219349 D    
C16   H11   1.117699 S    
P1    O2    1.627401 S    
C65   O50   1.400912 S    
C64   O48   1.399290 S    
P2    O10   1.774049 S    
C74   O63   1.366817 S    
C1    C57   1.517650 S    
C27   H13   1.079599 S    
O16   P7    1.782674 S    
C8    C56   1.469463 S    
C81   O76   1.399920 S    
C34   C35   1.415225 A    
C12   C62   1.506160 S    
C50   H23   1.084482 S    
O74   H53   1.008651 S    
O5    C6    1.452461 S    
C5    H2    1.105200 S    
C45   C46   1.425296 A    
C83   H56   1.083519 S    
O68   H50   1.011787 S    
C82   O78   1.393214 S    
P2    O7    1.711461 D    
C76   O66   1.220369 D    
C48   H21   1.082190 S    
P3    O8    1.778612 S    
C43   H19   1.083048 S    
O60   H45   1.009038 S    
C53   O32   1.402807 S    
C2    C3    1.623638 S    
C67   O53   1.212276 D    
C5    H3    1.097448 S    
P1    Ba1   3.624302 S    
C69   O56   1.220396 D    
C79   O72   1.357735 S    
O52   H39   1.006256 S    
O10   C8    1.407759 S    
P7    O21   1.624497 D    
C62   O45   1.215923 D    
C22   C30   1.455192 A    
C54   O33   1.220957 D    
C68   H41   1.086169 S    
C3    C81   1.533349 S    
C44   C48   1.408983 A    
Ba2   O21   2.800891 S    
C33   C78   1.486783 S    
C19   C74   1.472390 S    
C13   H9    1.107782 S    
C37   C38   1.399475 A    
C31   C79   1.463977 S    
O50   H38   1.011502 S    
C16   C71   1.503680 S    
C52   O30   1.386106 S    
C11   C12   1.589087 S    
C66   O51   1.214327 D    
P8    C28   1.935840 S    
P4    Ba2   3.625001 S    
P3    O11   1.795989 S    
C80   O73   1.222188 D    
C17   H14   1.079681 S    
P5    O18   1.536370 D    
P2    Ba1   3.554213 S    
C1    H7    1.104710 S    
C31   C32   1.410365 A    
P3    O9    1.547089 D    
C56   O36   1.393908 S    
C70   O57   1.219609 D    
C59   H32   1.083883 S    
C2    C72   1.504953 S    
O38   H30   1.013823 S    
C34   C42   1.497781 S    
O28   H24   1.001993 S    
C18   C23   1.495961 A    
C83   O79   1.210240 D    
Ba1   Ba2   5.046262 S    
P8    O24   1.819567 S    
C17   C23   1.425456 A    
O42   H33   1.008439 S    
O13   Ba2   3.218724 S    
C19   C20   1.415020 A    
C4    C5    1.566345 S    
C66   O52   1.388771 S    
O36   H29   0.999429 S    
C54   H27   1.064109 S    
C9    H6    1.114203 S    
C69   H42   1.066773 S    
Ba1   O16   2.897304 S    
C65   O49   1.221775 D    
C10   C49   1.511586 S    
C8    C55   1.477926 S    
C81   O75   1.222474 D    
O48   H37   1.012913 S    
O3    P6    1.767305 S    
P2    O20   1.552552 S    
P5    O17   1.738588 S    
C43   C44   1.412125 A    
P8    O23   1.542279 D    
C24   C30   1.424111 A    
P4    O15   1.825736 S    
O44   H34   0.999069 S    
C20   C21   1.414030 A    
O16   Ba2   3.247648 S    
O65   H48   1.006454 S    
C1    C64   1.503179 S    
P4    C26   1.996591 S    
C24   C25   1.433136 A    
C3    C65   1.513707 S    
C75   O64   1.214943 D    
C26   C27   1.427743 A    
C64   O47   1.216271 D    
C39   C40   1.410735 A    
C57   O38   1.398887 S    
C33   C34   1.422905 A    
P2    C32   1.861632 S    
P1    O5    1.820917 S    
C55   O34   1.221474 D    
Ba2   O20   2.896778 S    
C60   O41   1.210293 D    
C58   H31   1.084927 S    
C4    O15   1.443610 S    
C7    C53   1.533357 S    
C75   O65   1.388545 S    
C63   H36   1.080271 S    
C78   O70   1.395201 S    
C30   H15   1.066985 S    
C82   O77   1.218420 D    
C73   H46   1.072347 S    
C60   O42   1.399011 S    
O72   H52   0.998969 S    
C62   H35   1.085626 S    
C8    C9    1.544004 S    
