data_mof_unit_12606.cif
_audit_creation_date              2012-10-26T20:33:20-0400
_audit_creation_method            fapswitch 2.2
_symmetry_space_group_name_H-M    P1
_symmetry_Int_Tables_number       1
_space_group_crystal_system       triclinic
_cell_length_a                    17.753584
_cell_length_b                    10.865856
_cell_length_c                    9.520466
_cell_angle_alpha                 89.859413
_cell_angle_beta                  88.220117
_cell_angle_gamma                 90.432642
_cell_volume                      1835.62791234

loop_
_atom_site_label
_atom_site_type_symbol
_atom_type_description
_atom_site_fract_x
_atom_site_fract_y
_atom_site_fract_z
_atom_type_partial_charge
C1    C     C_R   0.500408 0.262548 0.499990 0.549287
C2    C     C_R   0.114106 0.470672 0.514746 -0.005386
C3    C     C_R   0.511284 0.063752 0.622696 0.012618
C4    C     C_R   0.355275 0.500255 0.502553 0.544554
C5    C     C_R   0.503680 0.129828 0.498538 -0.043561
C6    C     C_R   0.497256 0.066255 0.371764 -0.144880
C7    C     C_R   0.490734 0.938422 0.371368 0.231099
C8    C     C_R   0.497839 0.871713 0.498090 0.000162
C9    C     C_R   0.509153 0.936421 0.622640 -0.022075
C10   C     C_3   0.461175 0.934100 0.754885 -0.279107
C11   C     C_3   0.464404 0.073090 0.754721 -0.261149
C12   C     C_R   0.885140 0.461160 0.512922 0.031165
C13   C     C_R   0.561464 0.541485 0.070049 0.143931
C14   C     C_R   0.443541 0.444617 0.077821 -0.024815
C15   C     C_R   0.443496 0.444789 0.928732 -0.019955
C16   C     C_R   0.497681 0.737838 0.499742 0.552281
C17   C     C_R   0.561872 0.540056 0.922648 0.157324
C18   C     C_3   0.598107 0.663809 0.912724 -0.279337
C19   C     C_3   0.595905 0.667040 0.072086 -0.279368
C20   C     C_R   0.644767 0.495428 0.497389 0.540615
C21   C     C_R   0.843093 0.512955 0.624958 -0.041260
C22   C     C_R   0.765266 0.521051 0.614748 -0.153986
C23   C     C_1   0.966008 0.459965 0.513725 -0.000928
C24   C     C_R   0.728342 0.484132 0.493462 -0.049237
C25   C     C_R   0.771039 0.432931 0.377560 -0.016986
C26   C     C_R   0.849320 0.413176 0.395073 0.277682
C27   C     C_3   0.879081 0.555148 0.759038 -0.252359
C28   C     C_3   0.917867 0.680947 0.740184 -0.293048
C29   C     C_3   0.953717 0.722367 0.876001 -0.459277
C30   C     C_3   0.393210 0.880146 0.235802 -0.006265
C31   C     C_3   0.374339 0.895007 0.082330 -0.393408
C32   C     C_3   0.731761 0.403256 0.240046 -0.227160
C33   C     C_3   0.779368 0.361059 0.111334 -0.290071
C34   C     C_1   0.033565 0.462651 0.512584 -0.034188
C35   C     C_3   0.732566 0.356947 0.979437 -0.476808
C36   C     C_3   0.898796 0.225973 0.343410 -0.018351
C37   C     C_3   0.951013 0.156687 0.242338 -0.386721
C38   C     C_3   0.109942 0.452165 0.782800 -0.230004
C39   C     C_3   0.126268 0.324399 0.842799 -0.287979
C40   C     C_3   0.082820 0.302748 0.981504 -0.462569
C41   C     C_3   0.265961 0.624165 0.812518 -0.009246
C42   C     C_3   0.266787 0.625628 0.972453 -0.394212
C43   C     C_R   0.152027 0.472442 0.642797 0.019516
C44   C     C_R   0.230902 0.491660 0.639835 0.261659
C45   C     C_R   0.271865 0.495812 0.509343 -0.003121
C46   C     C_R   0.232448 0.491769 0.383925 -0.199060
C47   C     C_R   0.154312 0.481325 0.386864 -0.150885
Cu1   Cu    Cu3+1 0.500000 0.499980 0.640670 0.940569
Cu2   Cu    Cu3+1 0.500000 0.500020 0.359330 0.927749
H1    H     H_    0.403684 0.896191 0.738982 0.120677
H2    H     H_    0.733162 0.559612 0.702147 0.127659
H3    H     H_    0.556820 0.737204 0.115489 0.213397
H4    H     H_    0.262032 0.496601 0.282822 0.128589
H5    H     H_    0.125088 0.480414 0.288627 0.121721
H6    H     H_    0.491170 0.115278 0.273541 0.147979
H7    H     H_    0.910070 0.730850 0.961527 0.153507
H8    H     H_    0.996872 0.655263 0.908068 0.146880
H9    H     H_    0.981419 0.813433 0.859449 0.135722
H10   H     H_    0.962453 0.676954 0.656006 0.167249
H11   H     H_    0.875664 0.750325 0.709463 0.160981
H12   H     H_    0.490506 0.894816 0.845275 0.140717
H13   H     H_    0.835722 0.562339 0.845456 0.135334
H14   H     H_    0.919645 0.484824 0.793361 0.136735
H15   H     H_    0.363818 0.955394 0.295162 0.106838
H16   H     H_    0.370251 0.790526 0.274955 0.154333
H17   H     H_    0.395691 0.815059 0.020982 0.151806
H18   H     H_    0.312413 0.901419 0.072329 0.087956
H19   H     H_    0.400473 0.981077 0.039984 0.155340
H20   H     H_    0.682479 0.296156 0.996171 0.161123
H21   H     H_    0.713857 0.450863 0.951739 0.145069
H22   H     H_    0.767372 0.320761 0.890036 0.147984
H23   H     H_    0.408763 0.116442 0.738566 0.133882
H24   H     H_    0.827117 0.426068 0.090812 0.202335
H25   H     H_    0.800637 0.266828 0.129041 0.191081
H26   H     H_    0.687305 0.332591 0.262144 0.155313
H27   H     H_    0.704974 0.489546 0.206130 0.164311
H28   H     H_    0.842667 0.179353 0.346495 0.122640
H29   H     H_    0.922994 0.220646 0.449837 0.130127
H30   H     H_    0.008290 0.198382 0.242824 0.158420
H31   H     H_    0.954530 0.058883 0.275409 0.093878
H32   H     H_    0.929427 0.160702 0.134197 0.144113
H33   H     H_    0.099352 0.372296 0.060282 0.152649
H34   H     H_    0.496712 0.111856 0.842724 0.142495
H35   H     H_    0.021178 0.308420 0.965888 0.158480
H36   H     H_    0.095850 0.209779 0.022369 0.133874
H37   H     H_    0.109508 0.252699 0.766449 0.152849
H38   H     H_    0.187442 0.314843 0.861138 0.198173
H39   H     H_    0.125350 0.524453 0.858728 0.147978
H40   H     H_    0.048367 0.460515 0.772538 0.130319
H41   H     H_    0.214864 0.675165 0.780298 0.100079
H42   H     H_    0.316404 0.674646 0.769950 0.150507
H43   H     H_    0.323614 0.602491 0.008929 0.147361
H44   H     H_    0.251424 0.718297 0.011689 0.090707
H45   H     H_    0.397132 0.401742 0.136129 0.116787
H46   H     H_    0.225410 0.558134 0.017558 0.149968
H47   H     H_    0.397160 0.402173 0.875587 0.156940
H48   H     H_    0.656302 0.660251 0.867118 0.110474
H49   H     H_    0.561672 0.732700 0.864118 0.155915
H50   H     H_    0.652846 0.668339 0.117036 0.112865
N1    N     N_R   0.500470 0.500930 0.147930 -0.226010
N2    N     N_R   0.500480 0.500890 0.852020 -0.232435
O1    O     O_R   0.500000 0.319640 0.618810 -0.495491
O2    O     O_3   0.892464 0.349117 0.296832 -0.576959
O3    O     O_3   0.267757 0.500597 0.765517 -0.566845
O4    O     O_R   0.500010 0.319680 0.381230 -0.514999
O5    O     O_R   0.391250 0.499990 0.618840 -0.462702
O6    O     O_R   0.391260 0.500020 0.381250 -0.525364
O7    O     O_R   0.499990 0.680320 0.618770 -0.514911
O8    O     O_R   0.500000 0.680360 0.381190 -0.456457
O9    O     O_R   0.608740 0.499980 0.618750 -0.497048
O10   O     O_R   0.608750 0.500010 0.381160 -0.513322
O11   O     O_3   0.472553 0.881347 0.247463 -0.563032

loop_
_geom_bond_atom_site_label_1
_geom_bond_atom_site_label_2
_ccdc_geom_bond_type
C31   H17   S    
Cu1   O9    S    
C30   H15   S    
C42   H44   S    
C41   C42   S    
C40   H35   S    
C39   H38   S    
C6    H6    S    
C32   H26   S    
C44   O3    S    
C7    C8    A    
Cu2   O6    S    
C45   C46   A    
C31   H18   S    
C37   H30   S    
C12   C23   S    
C36   O2    S    
C1    C5    S    
C36   C37   S    
C36   H28   S    
C5    C6    A    
C7    O11   S    
C18   C19   S    
C17   N2    A    
C19   H3    S    
Cu1   O5    S    
C20   C24   S    
C35   H21   S    
C8    C9    A    
C18   H48   S    
C9    C10   S    
Cu2   O10   S    
C2    C34   S    
C25   C32   S    
C41   H41   S    
C21   C27   S    
C35   H22   S    
C8    C16   S    
C21   C22   A    
C37   H32   S    
C4    O6    A    
C16   O8    A    
C4    C45   S    
C28   H11   S    
C12   C26   A    
C31   H19   S    
C37   H31   S    
C13   C19   S    
C42   H46   S    
C40   H33   S    
C38   C39   S    
C24   C25   A    
C39   C40   S    
C19   H50   S    
C11   H23   S    
Cu2   O4    S    
C11   H34   S    
C25   C26   A    
C4    O5    A    
C12   C21   A    
C38   H39   S    
C40   H36   S    
C43   C44   A    
C3    C9    A    
C27   H13   S    
C26   O2    S    
C20   O10   A    
C38   H40   S    
C2    C43   A    
C23   C34   T    
Cu1   O1    S    
C17   C18   S    
C15   N2    A    
C27   H14   S    
C47   H5    S    
C20   O9    A    
C33   H24   S    
Cu1   Cu2   S    
C41   H42   S    
C29   H8    S    
C22   C24   A    
C10   H12   S    
C10   H1    S    
C15   H47   S    
C44   C45   A    
Cu2   O8    S    
C28   H10   S    
C46   C47   A    
C28   C29   S    
C3    C5    A    
C32   H27   S    
C14   N1    A    
C6    C7    A    
C29   H7    S    
C2    C47   A    
C41   O3    S    
C13   C17   A    
C32   C33   S    
C13   N1    A    
C38   C43   S    
C36   H29   S    
Cu2   N1    S    
C30   C31   S    
Cu1   O7    S    
Cu1   N2    S    
C46   H4    S    
C33   C35   S    
C42   H43   S    
C30   H16   S    
C3    C11   S    
C10   C11   S    
C16   O7    A    
C33   H25   S    
C29   H9    S    
C35   H20   S    
C30   O11   S    
C27   C28   S    
C14   C15   A    
C18   H49   S    
C39   H37   S    
C1    O1    A    
C14   H45   S    
C1    O4    A    
C22   H2    S    
