data_mof_unit_26879.cif
_audit_creation_date              2013-03-05T15:41:29-0500
_audit_creation_method            fapswitch 2.2
_symmetry_space_group_name_H-M    P1
_symmetry_Int_Tables_number       1
_space_group_crystal_system       triclinic
_cell_length_a                    17.063725
_cell_length_b                    7.250585
_cell_length_c                    16.970968
_cell_angle_alpha                 89.98732
_cell_angle_beta                  99.471885
_cell_angle_gamma                 90.009884
_cell_volume                      2071.05576474

loop_
_atom_site_label
_atom_site_type_symbol
_atom_site_description
_atom_site_fract_x
_atom_site_fract_y
_atom_site_fract_z
_atom_type_partial_charge
O1    O     O_R   0.414560 0.494370 0.416770 -0.545265
O2    O     O_R   0.585440 0.994370 0.583230 -0.545218
O3    O     O_R   0.578370 0.819590 0.429320 -0.519645
O4    O     O_R   0.421630 0.319590 0.570680 -0.520250
C1    C     C_R   0.603637 0.654340 0.412572 0.876727
C2    C     C_R   0.396357 0.154213 0.587484 0.877104
O5    O     O_R   0.414740 0.823790 0.407360 -0.554068
O6    O     O_R   0.585260 0.323790 0.592640 -0.554123
O7    O     O_R   0.420650 0.998510 0.561120 -0.561317
O8    O     O_R   0.579350 0.498510 0.438880 -0.559556
C3    C     C_R   0.387525 0.655775 0.386255 0.831021
C4    C     C_R   0.612473 0.155772 0.613745 0.831603
O9    O     O_3   0.502130 0.662240 0.550470 -0.267375
O10   O     O_3   0.497870 0.162240 0.449530 -0.265618
V1    V     V_3+5 0.499600 0.935390 0.490640 1.259502
V2    V     V_3+5 0.500400 0.435390 0.509360 1.258857
C5    C     C_2   0.766790 0.260010 0.803890 0.053767
C6    C     C_2   0.233213 0.760030 0.196099 0.055009
C7    C     C_2   0.811586 0.106046 0.825751 0.210673
C8    C     C_2   0.188410 0.606051 0.174254 0.212178
C9    C     C_2   0.694380 0.258989 0.739796 -0.021215
C10   C     C_2   0.305621 0.759024 0.260196 -0.020251
C11   C     C_2   0.683721 0.146548 0.675725 -0.129827
C12   C     C_2   0.316275 0.646556 0.324277 -0.126734
H1    H     H_    0.649128 0.362163 0.744299 0.138513
H2    H     H_    0.350876 0.862227 0.255686 0.138212
H3    H     H_    0.728207 0.045837 0.666701 0.126301
H4    H     H_    0.271785 0.545816 0.333310 0.128053
C13   C     C_R   0.336378 0.134870 0.641935 -0.215960
C14   C     C_R   0.664118 0.636184 0.358735 -0.210842
C15   C     C_R   0.171078 0.131652 0.868242 -0.121397
C16   C     C_R   0.829296 0.632555 0.132228 -0.123704
C17   C     C_R   0.287101 0.302863 0.839462 0.389114
C18   C     C_R   0.714959 0.807764 0.162466 0.369586
C19   C     C_R   0.230800 0.265205 0.889776 0.070060
C20   C     C_R   0.770479 0.768573 0.111589 0.065013
C21   C     C_R   0.171669 0.027049 0.799247 -0.069904
C22   C     C_R   0.828958 0.528403 0.201419 -0.073419
C23   C     C_R   0.228764 0.058105 0.748961 -0.057107
C24   C     C_R   0.774685 0.566151 0.254082 -0.054675
C25   C     C_R   0.284966 0.204517 0.766391 -0.096274
C26   C     C_R   0.717266 0.709871 0.235679 -0.101973
C27   C     C_R   0.337508 0.245122 0.710790 0.339770
C28   C     C_R   0.663368 0.747425 0.290253 0.342090
C29   C     C_R   0.282001 0.988970 0.627868 -0.116388
C30   C     C_R   0.720141 0.494146 0.374236 -0.113593
C31   C     C_R   0.229097 0.948389 0.680125 0.407426
C32   C     C_R   0.776143 0.460781 0.324484 0.404526
H5    H     H_    0.281842 0.901613 0.576014 0.139113
H6    H     H_    0.721592 0.409649 0.427169 0.134072
H7    H     H_    0.124728 0.926924 0.783352 0.148255
H8    H     H_    0.872895 0.420511 0.214464 0.152711
O11   O     O_R   0.920750 0.773600 0.061260 -0.536035
O12   O     O_R   0.079250 0.273600 0.938740 -0.534819
O13   O     O_R   0.085340 0.439850 0.092570 -0.508327
O14   O     O_R   0.914660 0.939850 0.907430 -0.509113
C33   C     C_R   0.114419 0.607461 0.112709 0.779620
C34   C     C_R   0.885581 0.107462 0.887293 0.775913
O15   O     O_R   0.921720 0.444130 0.070790 -0.566311
O16   O     O_R   0.078280 0.944130 0.929210 -0.563504
O17   O     O_R   0.914480 0.269530 0.916840 -0.554593
O18   O     O_R   0.085520 0.769530 0.083160 -0.554163
C35   C     C_R   0.894845 0.613375 0.084626 0.853480
C36   C     C_R   0.105094 0.113367 0.915317 0.849925
O19   O     O_3   0.997840 0.601520 0.949550 -0.269248
O20   O     O_3   0.002160 0.101520 0.050450 -0.270547
V3    V     V_3+5 0.000400 0.328340 0.009360 1.227527
V4    V     V_3+5 0.999600 0.828340 0.990640 1.228139
N1    N     N_3   0.785772 0.430325 0.846198 -0.429152
H9    H     H_    0.749696 0.535686 0.818611 0.266279
H10   H     H_    0.770683 0.414843 0.903128 0.184015
N2    N     N_3   0.214243 0.930349 0.153766 -0.428621
H11   H     H_    0.250314 0.035727 0.181346 0.266179
H12   H     H_    0.229341 0.914898 0.096842 0.183792
N3    N     N_R   0.782584 0.927939 0.797329 0.056770
O21   O     O_R   0.828577 0.814865 0.766674 -0.346857
O22   O     O_R   0.712347 0.873547 0.807886 -0.368762
N4    N     N_R   0.217400 0.427943 0.202698 0.056452
O23   O     O_R   0.171393 0.314815 0.233340 -0.339736
O24   O     O_R   0.287642 0.373600 0.192162 -0.369911
N5    N     N_R   0.391748 0.397150 0.723217 0.125739
O25   O     O_R   0.366254 0.563244 0.704752 -0.293564
O26   O     O_R   0.467786 0.366867 0.740761 -0.317886
N6    N     N_R   0.607011 0.895042 0.276395 0.125482
O27   O     O_R   0.629205 0.062142 0.297251 -0.289111
O28   O     O_R   0.531722 0.858451 0.256216 -0.319185
N7    N     N_R   0.348523 0.434007 0.866265 0.114364
O29   O     O_R   0.331456 0.608546 0.869245 -0.299940
O30   O     O_R   0.418309 0.376031 0.899610 -0.261949
N8    N     N_R   0.655028 0.942975 0.136724 0.113737
O31   O     O_R   0.673656 0.117127 0.138457 -0.318168
O32   O     O_R   0.586129 0.890617 0.098744 -0.258524
N9    N     N_R   0.178645 0.789446 0.663845 0.096830
O33   O     O_R   0.145386 0.753295 0.590873 -0.316430
O34   O     O_R   0.178237 0.663378 0.718386 -0.336612
N10   N     N_R   0.834024 0.318305 0.346757 0.091124
O35   O     O_R   0.811875 0.159487 0.371271 -0.320604
O36   O     O_R   0.909389 0.358132 0.357377 -0.320991
N11   N     N_3   0.235366 0.359532 0.964849 -0.460568
H13   H     H_    0.227706 0.500779 0.953965 0.218819
H14   H     H_    0.291616 0.337543 0.998539 0.239627
N12   N     N_3   0.765821 0.863756 0.036675 -0.459830
H15   H     H_    0.773759 0.004848 0.047839 0.213800
H16   H     H_    0.709419 0.842644 0.003162 0.241888

loop_
_geom_bond_atom_site_label_1
_geom_bond_atom_site_label_2
_geom_bond_distance
_ccdc_geom_bond_type
N7    O29   1.301500 A    
C5    N1    1.438435 S    
N9    O33   1.301237 A    
O1    C3    1.331112 A    
O2    C4    1.331140 A    
C2    O7    1.306881 A    
N5    O25   1.301101 A    
C33   O18   1.339418 A    
C23   C25   1.428484 A    
O5    C3    1.331623 A    
C4    C11   1.472424 S    
C16   C20   1.409639 A    
C10   C12   1.347331 D    
N6    O28   1.301256 A    
C21   H7    1.081740 S    
N4    O24   1.301756 A    
C22   H8    1.080997 S    
C3    C12   1.472430 S    
C20   N12   1.437120 S    
N1    H10   1.046024 S    
O11   V4    1.983567 S    
O15   V3    2.013864 S    
C18   C26   1.425703 A    
N10   O36   1.301261 A    
C16   C22   1.396769 A    
C18   C20   1.411824 A    
C34   O17   1.339452 A    
C24   C26   1.429292 A    
O20   V3    1.784497 S    
O6    V2    2.018760 S    
C13   C27   1.413465 A    
C25   C27   1.434968 A    
C14   C28   1.412839 A    
N12   H15   1.045163 S    
C26   C28   1.434694 A    
C19   N11   1.436922 S    
N5    O26   1.301263 A    
C29   C31   1.396883 A    
C7    C34   1.500372 S    
C6    N2    1.438449 S    
C30   C32   1.396541 A    
N6    O27   1.300972 A    
N2    H12   1.046027 S    
N4    O23   1.301341 A    
C5    C7    1.369269 D    
O12   V3    1.983768 S    
O3    C1    1.320198 A    
O14   V4    2.018628 S    
C5    C9    1.505844 S    
C15   C21   1.396657 A    
C13   C29   1.401381 A    
O4    V2    2.013495 S    
N3    O21   1.301357 A    
C18   N8    1.432087 S    
O17   V3    2.009757 S    
N8    O32   1.300889 A    
N11   H13   1.045010 S    
C29   H5    1.084019 S    
O6    C4    1.331642 A    
O19   V4    1.784772 S    
N10   O35   1.301284 A    
C31   N9    1.437741 S    
O1    V2    2.009945 S    
N12   H16   1.045460 S    
O2    V1    2.009984 S    
N3    O22   1.301738 A    
O4    C2    1.321078 A    
N11   H14   1.045469 S    
C11   H3    1.082321 S    
O13   C33   1.335694 A    
C27   N5    1.432352 S    
C15   C19   1.409603 A    
O3    V1    2.013877 S    
C23   C31   1.414288 A    
C1    C14   1.492540 S    
C24   C32   1.414798 A    
C9    H1    1.086894 S    
C32   N10   1.436258 S    
C6    C10   1.505847 S    
C15   C36   1.489799 S    
C14   C30   1.400405 A    
C12   H4    1.082324 S    
C16   C35   1.490148 S    
N2    H11   1.042539 S    
C28   N6    1.432302 S    
O13   V3    2.018679 S    
C8    N4    1.437617 S    
C30   H6    1.084150 S    
O15   C35   1.344258 A    
O18   V4    2.009717 S    
O16   C36   1.343813 A    
C17   C25   1.425881 A    
C9    C11   1.347330 D    
C17   N7    1.432646 S    
C1    O8    1.306971 A    
C21   C23   1.414787 A    
O8    V2    1.996228 S    
C22   C24   1.415610 A    
O11   C35   1.326484 A    
N8    O31   1.301210 A    
O12   C36   1.326767 A    
O5    V1    2.018811 S    
C7    N3    1.437610 S    
C17   C19   1.412948 A    
O14   C34   1.335714 A    
C6    C8    1.369285 D    
O7    V1    1.996458 S    
N1    H9    1.042537 S    
C2    C13   1.494073 S    
O16   V4    2.013478 S    
N9    O34   1.301560 A    
C10   H2    1.086896 S    
O9    V2    1.785130 S    
N7    O30   1.301245 A    
O10   V1    1.784855 S    
C8    C33   1.500366 S    
