data_mof_unit_61887.cif
_audit_creation_date              2012-12-10T19:40:00-0500
_audit_creation_method            fapswitch 2.2
_symmetry_space_group_name_H-M    P1
_symmetry_Int_Tables_number       1
_space_group_crystal_system       triclinic
_cell_length_a                    19.292686
_cell_length_b                    18.364437
_cell_length_c                    27.423638
_cell_angle_alpha                 91.115238
_cell_angle_beta                  89.913065
_cell_angle_gamma                 89.904351
_cell_volume                      9714.31047118

loop_
_atom_site_label
_atom_site_type_symbol
_atom_type_description
_atom_site_fract_x
_atom_site_fract_y
_atom_site_fract_z
_atom_type_partial_charge
C1    C     C_R   0.365080 0.500165 0.501097 0.988201
C2    C     C_R   0.634948 0.499899 0.498778 1.025446
C3    C     C_R   0.516947 0.510100 0.100470 -0.118982
C4    C     C_R   0.559573 0.506072 0.897308 -0.119179
C5    C     C_R   0.513437 0.576436 0.127326 -0.217087
C6    C     C_R   0.575848 0.440326 0.872117 -0.213957
C7    C     C_R   0.525748 0.642562 0.103480 0.419438
C8    C     C_R   0.590965 0.377412 0.898867 0.414370
C9    C     C_R   0.505590 0.443638 0.124128 0.022485
C10   C     C_R   0.545839 0.569633 0.870962 0.025899
C11   C     C_R   0.497817 0.499053 0.353154 -0.285491
C12   C     C_R   0.514231 0.500181 0.646217 -0.289998
C13   C     C_R   0.540923 0.574854 0.973799 0.121944
C14   C     C_R   0.540395 0.442590 0.024285 0.124338
C15   C     C_R   0.561118 0.442693 0.974732 -0.151935
C16   C     C_R   0.538676 0.576490 0.025496 -0.155679
C17   C     C_R   0.554540 0.507971 0.948744 0.023244
C18   C     C_R   0.531968 0.509821 0.049989 0.023168
C19   C     C_R   0.525978 0.636942 0.946206 -0.173333
C20   C     C_R   0.524176 0.377564 0.048266 -0.169951
C21   C     C_R   0.529149 0.634513 0.895725 -0.173684
C22   C     C_R   0.507556 0.378080 0.097449 -0.170514
C23   C     C_R   0.499635 0.499499 0.405923 1.004523
C24   C     C_R   0.500466 0.500357 0.594191 0.993294
C25   C     C_R   0.542636 0.642038 0.053738 0.310338
C26   C     C_R   0.587728 0.379993 0.949962 0.307639
C27   C     C_R   0.252653 0.568057 0.506183 0.377270
C28   C     C_R   0.748922 0.434555 0.503157 0.378493
C29   C     C_R   0.747020 0.566586 0.490568 0.357665
C30   C     C_R   0.251493 0.434582 0.502884 0.342168
C31   C     C_R   0.180585 0.568674 0.503414 0.281970
C32   C     C_R   0.821160 0.437437 0.507428 0.268993
C33   C     C_R   0.819045 0.568165 0.493654 0.277568
C34   C     C_R   0.179274 0.435918 0.500394 0.298659
C35   C     C_R   0.144132 0.502838 0.500914 -0.256883
C36   C     C_R   0.855581 0.503695 0.501530 -0.244255
C37   C     C_R   0.288969 0.500875 0.503322 -0.397528
C38   C     C_R   0.711166 0.500140 0.497345 -0.361718
C39   C     C_R   0.930249 0.504625 0.501214 0.470790
C40   C     C_R   0.069208 0.504065 0.500658 0.463386
C41   C     C_R   0.480059 0.271516 0.458920 0.395174
C42   C     C_R   0.545024 0.727013 0.529878 0.420033
C43   C     C_R   0.516949 0.273173 0.541403 0.376514
C44   C     C_R   0.455863 0.726022 0.469945 0.387016
C45   C     C_R   0.477614 0.194022 0.458186 0.277783
C46   C     C_R   0.546588 0.804879 0.530611 0.245255
C47   C     C_R   0.512435 0.196032 0.542704 0.243732
C48   C     C_R   0.451860 0.803432 0.472390 0.225099
C49   C     C_R   0.496264 0.155551 0.500348 -0.267077
C50   C     C_R   0.499092 0.843477 0.501148 -0.252901
C51   C     C_R   0.497755 0.924988 0.499677 0.410166
C52   C     C_R   0.498245 0.073925 0.500914 0.408013
C53   C     C_R   0.501156 0.573882 0.177912 0.642150
C54   C     C_R   0.575017 0.439687 0.820739 0.641406
C55   C     C_R   0.493567 0.444160 0.174336 0.565722
C56   C     C_R   0.544817 0.565766 0.820116 0.566337
C57   C     C_R   0.558543 0.507626 0.276261 0.367844
C58   C     C_R   0.476385 0.479574 0.729047 0.336998
C59   C     C_R   0.560345 0.502613 0.327036 0.306706
C60   C     C_R   0.460939 0.483668 0.679230 0.322615
C61   C     C_R   0.433825 0.499999 0.328731 0.263978
C62   C     C_R   0.582625 0.510270 0.662795 0.257757
C63   C     C_R   0.432594 0.502591 0.278049 -0.216880
C64   C     C_R   0.596472 0.510425 0.712463 -0.214584
C65   C     C_R   0.494651 0.506328 0.251947 0.099276
C66   C     C_R   0.543492 0.496176 0.745469 0.105342
H1    H     H_    0.383574 0.502477 0.258859 0.200683
H2    H     H_    0.648595 0.520479 0.725546 0.203756
H3    H     H_    0.516380 0.683394 0.876124 0.190610
H4    H     H_    0.496532 0.326661 0.114526 0.192245
H5    H     H_    0.507317 0.687062 0.962655 0.202342
H6    H     H_    0.521182 0.325742 0.029164 0.199587
N1    N     N_R   0.493410 0.508424 0.200026 -0.327481
N2    N     N_R   0.557113 0.501060 0.796471 -0.323318
N3    N     N_R   0.033825 0.470466 0.464099 -0.090010
N4    N     N_R   0.965485 0.538497 0.537698 -0.089151
N5    N     N_R   0.965110 0.470633 0.464432 -0.126113
N6    N     N_R   0.034231 0.538095 0.537444 -0.115254
N7    N     N_R   0.500000 0.310560 0.500000 -0.213089
N8    N     N_R   0.500000 0.689440 0.500000 -0.219640
N9    N     N_R   0.543782 0.035322 0.472531 -0.136564
N10   N     N_R   0.451773 0.963615 0.527577 -0.222704
N11   N     N_R   0.452111 0.036381 0.528249 -0.203936
N12   N     N_R   0.543903 0.962416 0.472215 -0.134139
O1    O     O_R   0.398130 0.560830 0.500010 -0.540836
O2    O     O_R   0.601870 0.439170 0.499990 -0.603327
O3    O     O_R   0.601870 0.560830 0.499990 -0.530420
O4    O     O_R   0.398130 0.439170 0.500010 -0.609841
O5    O     O_R   0.500010 0.560810 0.428750 -0.612358
O6    O     O_R   0.499990 0.439190 0.571250 -0.546480
O7    O     O_R   0.499990 0.560810 0.571250 -0.644917
O8    O     O_R   0.500010 0.439190 0.428750 -0.591051
O9    O     O_2   0.498755 0.635646 0.205322 -0.507108
O10   O     O_2   0.589976 0.378346 0.794962 -0.512274
O11   O     O_2   0.529743 0.625631 0.794316 -0.574045
O12   O     O_2   0.484092 0.380909 0.197716 -0.557148
Zn1   Zn    Zn3+2 0.500000 0.581210 0.500000 1.035826
Zn2   Zn    Zn3+2 0.500000 0.418790 0.500000 1.013239
Cl1   Cl    Cl    0.354552 0.499071 0.360724 -0.643416
Cl2   Cl    Cl    0.652989 0.517146 0.622238 -0.640834
Cl3   Cl    Cl    0.137133 0.653533 0.501491 -0.517292
Cl4   Cl    Cl    0.868216 0.358986 0.524192 -0.538575
Cl5   Cl    Cl    0.862892 0.651937 0.487044 -0.504092
Cl6   Cl    Cl    0.133735 0.352329 0.497868 -0.518463
O13   O     O_3   0.468329 0.307180 0.415956 -0.571752
C67   C     C_3   0.396438 0.311640 0.406525 0.217096
H7    H     H_    0.376466 0.364670 0.420569 0.222706
H8    H     H_    0.365033 0.267893 0.423453 0.126736
C68   C     C_3   0.385293 0.307869 0.351612 -0.725191
H9    H     H_    0.404975 0.255314 0.336475 0.264518
H10   H     H_    0.329238 0.313057 0.343223 0.227393
H11   H     H_    0.413994 0.352280 0.333779 0.273110
O14   O     O_3   0.594995 0.687734 0.554317 -0.503108
C69   C     C_3   0.590860 0.699337 0.605431 0.196341
H12   H     H_    0.568329 0.650478 0.622209 0.168383
H13   H     H_    0.557411 0.745740 0.617480 0.087066
C70   C     C_3   0.663749 0.709948 0.625619 -0.657295
H14   H     H_    0.687636 0.759368 0.610234 0.277039
H15   H     H_    0.661744 0.715690 0.665977 0.186250
H16   H     H_    0.696996 0.662672 0.615563 0.298882
O15   O     O_3   0.532765 0.310528 0.584009 -0.585400
C71   C     C_3   0.604948 0.308652 0.592624 0.200595
H17   H     H_    0.628408 0.359079 0.578460 0.235632
H18   H     H_    0.632071 0.260790 0.575607 0.149285
C72   C     C_3   0.617570 0.306986 0.647334 -0.717485
H19   H     H_    0.597286 0.255453 0.662285 0.251410
H20   H     H_    0.674016 0.310508 0.654841 0.233929
H21   H     H_    0.591008 0.353547 0.665812 0.268197
O16   O     O_3   0.411217 0.686388 0.440182 -0.529377
C73   C     C_3   0.424407 0.699741 0.390190 0.177753
H22   H     H_    0.453992 0.653481 0.374074 0.168210
H23   H     H_    0.455228 0.749688 0.382941 0.138319
C74   C     C_3   0.355919 0.705027 0.363039 -0.700328
H24   H     H_    0.326837 0.754014 0.375648 0.250620
H25   H     H_    0.365804 0.709077 0.323281 0.205427
H26   H     H_    0.323895 0.656046 0.369634 0.300228
O17   O     O_3   0.459912 0.158333 0.414707 -0.557501
C75   C     C_3   0.400195 0.114265 0.420686 0.109154
H27   H     H_    0.365450 0.133673 0.450869 0.118993
H28   H     H_    0.416292 0.057394 0.427619 0.178763
C76   C     C_3   0.358141 0.112041 0.373780 -0.799340
H29   H     H_    0.392370 0.099857 0.342048 0.274459
H30   H     H_    0.318036 0.068892 0.375926 0.217821
H31   H     H_    0.331449 0.164765 0.368523 0.243636
O18   O     O_3   0.599691 0.839909 0.556317 -0.562969
C77   C     C_3   0.573813 0.892622 0.590272 0.117257
H32   H     H_    0.519968 0.880931 0.602816 0.117503
H33   H     H_    0.575649 0.947235 0.573747 0.189332
C78   C     C_3   0.620411 0.896967 0.634979 -0.824574
H34   H     H_    0.675473 0.902394 0.623763 0.280834
H35   H     H_    0.605845 0.945211 0.657839 0.220552
H36   H     H_    0.614188 0.847829 0.657372 0.238051
O19   O     O_3   0.529462 0.159814 0.584808 -0.580697
C79   C     C_3   0.471583 0.160796 0.616415 0.147107
H37   H     H_    0.423559 0.142032 0.597435 0.139625
H38   H     H_    0.462754 0.216503 0.631862 0.188454
C80   C     C_3   0.485383 0.109737 0.658310 -0.809297
H39   H     H_    0.532218 0.127667 0.678723 0.255478
H40   H     H_    0.440341 0.110044 0.683569 0.214406
H41   H     H_    0.493668 0.053387 0.643964 0.255495
O20   O     O_3   0.405448 0.840472 0.443470 -0.590635
C81   C     C_3   0.340800 0.844210 0.467502 0.123628
H42   H     H_    0.346151 0.863223 0.506183 0.142892
H43   H     H_    0.315171 0.789983 0.466344 0.215311
C82   C     C_3   0.294563 0.898320 0.441648 -0.784079
H44   H     H_    0.287344 0.881186 0.402939 0.255841
H45   H     H_    0.243125 0.901011 0.459821 0.229151
H46   H     H_    0.318509 0.953290 0.443080 0.247392
O21   O     O_3   0.528193 0.707891 0.129404 -0.538389
C83   C     C_3   0.465085 0.745336 0.122433 0.161293
H47   H     H_    0.420083 0.711690 0.133923 0.129978
H48   H     H_    0.458497 0.760347 0.083563 0.152679
C84   C     C_3   0.465330 0.815014 0.153300 -0.741335
H49   H     H_    0.509125 0.850286 0.142278 0.255737
H50   H     H_    0.415942 0.845000 0.148136 0.194162
H51   H     H_    0.470849 0.801838 0.192464 0.275285
O22   O     O_3   0.613528 0.314142 0.875584 -0.550603
C85   C     C_3   0.557797 0.264370 0.872970 0.181005
H52   H     H_    0.511598 0.289086 0.855285 0.154048
H53   H     H_    0.543087 0.245717 0.909941 0.154920
C86   C     C_3   0.579744 0.198110 0.842574 -0.755362
H54   H     H_    0.625170 0.171482 0.859591 0.254256
H55   H     H_    0.536404 0.158475 0.840337 0.194910
H56   H     H_    0.593773 0.214768 0.805112 0.277750
O23   O     O_3   0.395590 0.465746 0.662222 -0.582946
C87   C     C_3   0.351945 0.527060 0.668114 0.130342
H57   H     H_    0.373348 0.574656 0.648704 0.094077
H58   H     H_    0.345388 0.542537 0.707251 0.202091
C88   C     C_3   0.280718 0.508856 0.647602 -0.834869
H59   H     H_    0.258555 0.461523 0.666774 0.286010
H60   H     H_    0.245487 0.556251 0.652714 0.212128
H61   H     H_    0.284732 0.495296 0.608131 0.206231
O24   O     O_3   0.622730 0.509105 0.351409 -0.622451
C89   C     C_3   0.655965 0.440561 0.352418 0.117908
H62   H     H_    0.646176 0.406011 0.319192 0.178770
H63   H     H_    0.637974 0.410640 0.384852 0.145280
C90   C     C_3   0.733842 0.452419 0.356117 -0.778423
H64   H     H_    0.746803 0.480364 0.391172 0.206775
H65   H     H_    0.761257 0.399266 0.354003 0.210431
H66   H     H_    0.751919 0.486361 0.325547 0.300657
Cl7   Cl    Cl    0.412481 0.452145 0.770952 -0.591725
Cl8   Cl    Cl    0.636463 0.516705 0.243120 -0.570026
O25   O     O_3   0.566240 0.706272 0.034178 -0.622340
C91   C     C_3   0.639400 0.705153 0.033879 0.141303
H67   H     H_    0.659594 0.658577 0.011377 0.137538
H68   H     H_    0.660046 0.701538 0.071691 0.173622
C92   C     C_3   0.665807 0.775235 0.011898 -0.791868
H69   H     H_    0.647320 0.822875 0.033875 0.264727
H70   H     H_    0.723360 0.775150 0.011512 0.210817
H71   H     H_    0.646668 0.779876 0.973899 0.253544
O26   O     O_3   0.612874 0.320844 0.974940 -0.622153
C93   C     C_3   0.680885 0.336618 0.990769 0.131783
H72   H     H_    0.681767 0.385342 0.015622 0.143459
H73   H     H_    0.715701 0.346037 0.959048 0.162391
C94   C     C_3   0.708724 0.272137 0.018676 -0.776766
H74   H     H_    0.709393 0.222668 0.994723 0.261475
H75   H     H_    0.762325 0.283746 0.031270 0.210976
H76   H     H_    0.675412 0.262025 0.050912 0.257442
O27   O     O_3   0.286846 0.634081 0.510956 -0.517956
C95   C     C_3   0.294463 0.650427 0.561262 0.164362
H77   H     H_    0.334913 0.614923 0.576847 0.124184
H78   H     H_    0.245009 0.643456 0.581776 0.148075
C96   C     C_3   0.317203 0.729005 0.568537 -0.819914
H79   H     H_    0.322802 0.741585 0.608102 0.203610
H80   H     H_    0.367915 0.737783 0.550601 0.222287
H81   H     H_    0.277795 0.766151 0.553137 0.264918
O28   O     O_3   0.714640 0.368666 0.507856 -0.585485
C97   C     C_3   0.727278 0.322959 0.466504 0.141687
H82   H     H_    0.768860 0.283372 0.474938 0.219143
H83   H     H_    0.742722 0.353121 0.433401 0.114161
C98   C     C_3   0.662360 0.279703 0.454137 -0.817906
H84   H     H_    0.619674 0.317292 0.444706 0.267433
H85   H     H_    0.672535 0.242870 0.422334 0.227878
H86   H     H_    0.646690 0.246352 0.485586 0.239631
O29   O     O_3   0.712012 0.631153 0.482613 -0.509825
C99   C     C_3   0.703493 0.639078 0.431826 0.148657
H87   H     H_    0.672078 0.593728 0.416195 0.169809
H88   H     H_    0.754511 0.640604 0.412799 0.167599
C100  C     C_3   0.665576 0.709993 0.422189 -0.682032
H89   H     H_    0.661754 0.718236 0.382275 0.206027
H90   H     H_    0.612441 0.707960 0.437550 0.225459
H91   H     H_    0.694013 0.756543 0.439096 0.276745
O30   O     O_3   0.284916 0.367809 0.502338 -0.574632
C101  C     C_3   0.292414 0.344377 0.550884 0.177166
H92   H     H_    0.242517 0.346925 0.571411 0.162847
H93   H     H_    0.331450 0.378273 0.570645 0.168191
C102  C     C_3   0.317198 0.265729 0.550184 -0.792115
H94   H     H_    0.366693 0.260883 0.529821 0.213011
H95   H     H_    0.325406 0.247305 0.588076 0.203042
H96   H     H_    0.277940 0.230178 0.532189 0.271163

loop_
_geom_bond_atom_site_label_1
_geom_bond_atom_site_label_2
_ccdc_geom_bond_type
C56   O11   S    
C89   H63   S    
O25   C91   S    
C63   C65   A    
C27   O27   S    
C82   H44   S    
N8    Zn1   S    
C88   H61   S    
C8    C26   A    
O21   C83   S    
C14   C18   A    
N7    Zn2   S    
C19   H5    S    
C96   H79   S    
C44   N8    A    
C97   H83   S    
C69   H12   S    
C96   H81   S    
O8    Zn2   S    
C47   C49   A    
C84   H49   S    
C101  H92   S    
C52   N11   A    
C42   N8    A    
C60   O23   S    
C41   O13   S    
C31   Cl3   S    
C5    C53   A    
C19   C21   A    
C77   C78   S    
N4    N6    A    
C77   H32   S    
C70   H15   S    
C9    C22   A    
C102  H96   S    
C46   O18   S    
C67   H7    S    
C58   C60   A    
O30   C101  S    
C66   N2    S    
C29   C33   A    
O6    Zn2   S    
C16   C25   A    
C33   C36   A    
C65   N1    S    
C99   H87   S    
C3    C18   A    
C88   H60   S    
C34   C35   A    
C42   C46   A    
C11   C23   S    
C90   H65   S    
C29   O29   S    
C62   C64   A    
C68   H10   S    
C54   N2    A    
C76   H29   S    
C8    O22   S    
C58   C66   A    
C80   H39   S    
C100  H89   S    
C58   Cl7   S    
C99   H88   S    
C29   C38   A    
C92   H71   S    
O29   C99   S    
C23   O5    A    
C43   N7    A    
C2    O2    A    
C26   O26   S    
C9    C55   A    
C45   C49   A    
C100  H91   S    
C10   C56   A    
C43   O15   S    
C79   H38   S    
C1    C37   S    
C81   H43   S    
C1    O4    A    
C102  H95   S    
C89   H62   S    
C67   C68   S    
C80   H40   S    
C70   H16   S    
C78   H35   S    
C61   Cl1   S    
C6    C54   A    
C11   C59   A    
C28   O28   S    
C95   H78   S    
C97   H82   S    
O18   C77   S    
C77   H33   S    
C39   N5    A    
C86   H55   S    
C10   C21   A    
C1    O1    A    
C57   C59   A    
C63   H1    S    
C56   N2    A    
C30   C34   A    
C27   C31   A    
C92   H69   S    
C69   C70   S    
C85   H52   S    
C28   C32   A    
C79   C80   S    
C4    C6    A    
C68   H9    S    
C94   H76   S    
C57   C65   A    
O27   C95   S    
C5    C7    A    
C13   C19   A    
C15   C26   A    
C6    C8    A    
C48   O20   S    
C47   O19   S    
C3    C5    A    
C44   O16   S    
C86   H54   S    
C53   O9    S    
N10   N11   A    
C59   O24   S    
C30   C37   A    
O5    Zn1   S    
C76   H30   S    
C55   N1    A    
C57   Cl8   S    
C90   H66   S    
C73   H23   S    
C94   H74   S    
O26   C93   S    
C11   C61   A    
C3    C9    A    
C14   C20   A    
C74   H26   S    
C81   C82   S    
C12   C62   A    
C2    C38   S    
C42   O14   S    
C85   H53   S    
O28   C97   S    
C14   C15   A    
C91   C92   S    
C28   C38   A    
C49   C52   S    
C64   H2    S    
C45   O17   S    
C50   C51   S    
O15   C71   S    
C2    O3    A    
C100  H90   S    
C16   C18   A    
C39   N4    A    
O7    Zn1   S    
C72   H20   S    
N3    N5    A    
C51   N10   A    
C64   C66   A    
C79   H37   S    
O14   C69   S    
C84   H50   S    
C75   H28   S    
C87   H57   S    
C62   Cl2   S    
C4    C17   A    
C78   H36   S    
C89   C90   S    
C91   H68   S    
O24   C89   S    
C82   H46   S    
C30   O30   S    
C7    O21   S    
C72   H19   S    
C40   N6    A    
C68   H11   S    
C73   C74   S    
C20   C22   A    
C87   H58   S    
C24   O7    A    
C32   C36   A    
N9    N12   A    
C67   H8    S    
C92   H70   S    
C81   H42   S    
O13   C67   S    
C86   H56   S    
C88   H59   S    
C15   C17   A    
C46   C50   A    
C52   N9    A    
C33   Cl5   S    
C93   C94   S    
C36   C39   S    
C53   N1    A    
C4    C10   A    
C93   H73   S    
C55   O12   S    
C25   O25   S    
C75   C76   S    
C24   O6    A    
C41   N7    A    
C69   H13   S    
C102  H94   S    
C96   H80   S    
C71   H17   S    
C76   H31   S    
C80   H41   S    
O17   C75   S    
C12   C24   S    
C7    C25   A    
C40   N3    A    
C13   C17   A    
C71   C72   S    
C94   H75   S    
C35   C40   S    
O16   C73   S    
C101  C102  S    
O20   C81   S    
C78   H34   S    
O23   C87   S    
C74   H24   S    
C43   C47   A    
C87   C88   S    
C72   H21   S    
C31   C35   A    
C48   C50   A    
C84   H51   S    
C101  H93   S    
C95   H77   S    
C73   H22   S    
C98   H86   S    
C32   Cl4   S    
C95   C96   S    
C90   H64   S    
O2    Zn2   S    
C34   Cl6   S    
C54   O10   S    
C85   C86   S    
O1    Zn1   S    
C75   H27   S    
C98   H85   S    
C12   C60   A    
C44   C48   A    
C91   H67   S    
C99   C100  S    
C82   H45   S    
O22   C85   S    
C83   H47   S    
C13   C16   A    
C21   H3    S    
C98   H84   S    
C74   H25   S    
C41   C45   A    
C23   O8    A    
C20   H6    S    
C83   H48   S    
O3    Zn1   S    
O19   C79   S    
C70   H14   S    
C71   H18   S    
C51   N12   A    
C22   H4    S    
C97   C98   S    
O4    Zn2   S    
C27   C37   A    
C93   H72   S    
C61   C63   A    
C83   C84   S    
