data_mof_unit_41481.cif
_audit_creation_date              2012-12-11T15:12:45-0500
_audit_creation_method            fapswitch 2.2
_symmetry_space_group_name_H-M    P1
_symmetry_Int_Tables_number       1
_space_group_crystal_system       triclinic
_cell_length_a                    22.337693
_cell_length_b                    6.940254
_cell_length_c                    19.349371
_cell_angle_alpha                 90.005525
_cell_angle_beta                  99.183238
_cell_angle_gamma                 90.002637
_cell_volume                      2961.27130416

loop_
_atom_site_label
_atom_site_type_symbol
_atom_type_description
_atom_site_fract_x
_atom_site_fract_y
_atom_site_fract_z
_atom_type_partial_charge
O1    O     O_R   0.448420 0.506120 0.415750 -0.543353
O2    O     O_R   0.551580 0.006120 0.584250 -0.543402
O3    O     O_R   0.436490 0.174470 0.555610 -0.541339
O4    O     O_R   0.563510 0.674470 0.444390 -0.541333
C1    C     C_R   0.421352 0.344616 0.576154 0.714099
C2    C     C_R   0.578648 0.844611 0.423846 0.714365
O5    O     O_R   0.441310 0.176330 0.414520 -0.532405
O6    O     O_R   0.558690 0.676330 0.585480 -0.532505
O7    O     O_R   0.556430 0.007110 0.442150 -0.527913
O8    O     O_R   0.443570 0.507110 0.557850 -0.527957
C3    C     C_R   0.426999 0.345160 0.388182 0.753095
C4    C     C_R   0.572995 0.845187 0.611822 0.752978
O9    O     O_3   0.537770 0.339560 0.509230 -0.368885
O10   O     O_3   0.462230 0.839560 0.490770 -0.368853
V1    V     V_3+5 0.492990 0.064280 0.498290 1.454194
V2    V     V_3+5 0.507010 0.564280 0.501710 1.454068
C5    C     C_R   0.866979 0.961343 0.695381 -0.165479
C6    C     C_R   0.133074 0.462701 0.304594 -0.165494
H1    H     H_    0.954292 0.988197 0.759143 0.101984
H2    H     H_    0.045765 0.489579 0.240830 0.102006
H3    H     H_    0.784896 0.949323 0.580534 0.116384
H4    H     H_    0.215179 0.451327 0.419428 0.116394
H5    H     H_    0.885564 0.980863 0.647422 0.108697
H6    H     H_    0.114515 0.482862 0.352539 0.108704
C7    C     C_R   0.884060 0.940061 0.821754 -0.040512
C8    C     C_R   0.115944 0.440208 0.178246 -0.040551
C9    C     C_R   0.588340 0.832820 0.741228 0.455516
C10   C     C_R   0.411619 0.331817 0.258791 0.455666
C11   C     C_R   0.625582 0.831267 0.806480 -0.197126
C12   C     C_R   0.374361 0.329892 0.193549 -0.197200
C13   C     C_R   0.688046 0.856596 0.812153 -0.239143
C14   C     C_R   0.311913 0.355612 0.187869 -0.239088
C15   C     C_R   0.715898 0.882115 0.752119 0.086431
C16   C     C_R   0.284091 0.381918 0.247888 0.086448
C17   C     C_R   0.677878 0.880294 0.685036 0.004982
C18   C     C_R   0.322129 0.380544 0.314962 0.004950
C19   C     C_R   0.780188 0.908459 0.756401 0.092002
C20   C     C_R   0.219815 0.408595 0.243600 0.091994
C21   C     C_R   0.804478 0.933374 0.693401 0.138552
C22   C     C_R   0.195558 0.434328 0.306583 0.138559
C23   C     C_R   0.766413 0.930696 0.628616 -0.201135
C24   C     C_R   0.233638 0.432083 0.371360 -0.201129
C25   C     C_R   0.704291 0.904309 0.624379 -0.169159
C26   C     C_R   0.295745 0.405343 0.375603 -0.169208
C27   C     C_R   0.821506 0.911628 0.820688 -0.217282
C28   C     C_R   0.178480 0.411337 0.179322 -0.217296
C29   C     C_R   0.906277 0.965352 0.758937 -0.170954
C30   C     C_R   0.093762 0.466342 0.241046 -0.170930
C31   C     C_R   0.614092 0.853503 0.679970 -0.190031
C32   C     C_R   0.385897 0.353343 0.320035 -0.190051
H7    H     H_    0.806704 0.893998 0.870660 0.093944
H8    H     H_    0.193258 0.393107 0.129363 0.093976
H9    H     H_    0.713271 0.854659 0.864456 0.131186
H10   H     H_    0.286674 0.353322 0.135575 0.131189
H11   H     H_    0.605773 0.809445 0.853434 0.129288
H12   H     H_    0.394141 0.307423 0.146611 0.129244
H13   H     H_    0.677009 0.903389 0.572829 0.101670
H14   H     H_    0.323040 0.404774 0.427147 0.101758
C33   C     C_3   0.806292 0.747056 0.259694 -0.427809
C34   C     C_3   0.193635 0.247325 0.740195 -0.427835
C35   C     C_3   0.785604 0.101735 0.247314 -0.317149
C36   C     C_3   0.214501 0.601872 0.752820 -0.317205
C37   C     C_3   0.737572 0.084070 0.297036 -0.334266
C38   C     C_3   0.262531 0.584215 0.703096 -0.334263
H15   H     H_    0.780069 0.745478 0.364235 0.150493
H16   H     H_    0.219876 0.246048 0.635662 0.150503
H17   H     H_    0.851423 0.775736 0.291616 0.160968
H18   H     H_    0.148523 0.276315 0.708282 0.160984
H19   H     H_    0.773546 0.224180 0.210613 0.171615
H20   H     H_    0.226615 0.724122 0.789606 0.171623
H21   H     H_    0.830592 0.135650 0.278660 0.130497
H22   H     H_    0.169533 0.636095 0.721490 0.130489
H23   H     H_    0.759710 0.109705 0.351979 0.140426
H24   H     H_    0.240412 0.610150 0.648167 0.140412
H25   H     H_    0.702437 0.197668 0.283803 0.146003
H26   H     H_    0.297721 0.697627 0.716410 0.146091
C39   C     C_1   0.623917 0.854640 0.377729 -0.180421
C40   C     C_1   0.376084 0.354652 0.622272 -0.180486
C41   C     C_3   0.789672 0.911893 0.205728 0.236032
C42   C     C_3   0.210330 0.411879 0.794275 0.236049
C43   C     C_3   0.757851 0.728371 0.308866 -0.344971
C44   C     C_3   0.242077 0.228640 0.691024 -0.344976
C45   C     C_3   0.707369 0.882089 0.290821 0.242225
C46   C     C_3   0.292634 0.382091 0.709182 0.242255
C47   C     C_3   0.677697 0.852758 0.213366 -0.368970
C48   C     C_3   0.322279 0.352338 0.786621 -0.369049
C49   C     C_3   0.725951 0.866505 0.163057 0.344707
C50   C     C_3   0.274022 0.366063 0.836928 0.344771
C51   C     C_1   0.661425 0.865889 0.338694 -0.074643
C52   C     C_1   0.338577 0.365900 0.661309 -0.074636
C53   C     C_1   0.836461 0.927940 0.158832 -0.053650
C54   C     C_1   0.163540 0.427923 0.841170 -0.053660
C55   C     C_1   0.874769 0.939384 0.120820 -0.190225
C56   C     C_1   0.125231 0.439370 0.879181 -0.190231
H27   H     H_    0.729435 0.722558 0.137936 0.027436
H28   H     H_    0.270461 0.222024 0.861945 0.027397
H29   H     H_    0.655217 0.709277 0.207109 0.100187
H30   H     H_    0.344690 0.208748 0.792786 0.100166
H31   H     H_    0.809850 0.608014 0.231963 0.142628
H32   H     H_    0.190000 0.108185 0.767829 0.142598
H33   H     H_    0.737615 0.581487 0.303658 0.145014
H34   H     H_    0.262239 0.081656 0.696139 0.145033
H35   H     H_    0.641603 0.962829 0.199017 0.168739
H36   H     H_    0.358425 0.462217 0.801052 0.168759
O11   O     O_R   0.056480 0.288780 0.942210 -0.536469
O12   O     O_R   0.943520 0.788780 0.057790 -0.536463
O13   O     O_R   0.058700 0.616820 0.085490 -0.537959
O14   O     O_R   0.941300 0.116820 0.914510 -0.537957
C57   C     C_R   0.073417 0.448266 0.111577 0.694752
C58   C     C_R   0.926584 0.948240 0.888423 0.694750
O15   O     O_R   0.063520 0.618570 0.944410 -0.536120
O16   O     O_R   0.936480 0.118570 0.055590 -0.536116
O17   O     O_R   0.948420 0.787670 0.915740 -0.536143
O18   O     O_R   0.051580 0.287670 0.084260 -0.536146
C59   C     C_R   0.079088 0.449735 0.924171 0.723934
C60   C     C_R   0.920913 0.949740 0.075829 0.723918
O19   O     O_3   0.962260 0.453430 0.990800 -0.366098
O20   O     O_3   0.037740 0.953430 0.009200 -0.366107
V3    V     V_3+5 0.007000 0.728750 0.001710 1.424662
V4    V     V_3+5 0.993000 0.228750 0.998290 1.424656
O21   O     O_3   0.709655 0.013804 0.112611 -0.552220
C61   C     C_3   0.672371 0.939411 0.052704 0.088657
H37   H     H_    0.631594 0.866802 0.067012 0.112138
H38   H     H_    0.698229 0.835546 0.024973 0.114370
C62   C     C_3   0.651355 0.104155 0.002879 -0.710798
H39   H     H_    0.691119 0.176185 0.986233 0.222536
H40   H     H_    0.621510 0.047822 0.955828 0.169855
H41   H     H_    0.625613 0.211076 0.029183 0.218864
O22   O     O_3   0.290385 0.513083 0.887480 -0.552211
C63   C     C_3   0.327623 0.438291 0.947341 0.088670
H42   H     H_    0.368370 0.365600 0.932990 0.112145
H43   H     H_    0.301710 0.334394 0.974988 0.114377
C64   C     C_3   0.348710 0.602734 0.997290 -0.710742
H44   H     H_    0.308976 0.674824 0.013983 0.222543
H45   H     H_    0.378523 0.546085 0.044304 0.169842
H46   H     H_    0.374505 0.709688 0.971072 0.218905
O23   O     O_3   0.526733 0.800548 0.736881 -0.559171
C65   C     C_3   0.498743 0.974151 0.752162 -0.259138
H47   H     H_    0.507163 0.091438 0.715607 0.139537
H48   H     H_    0.513961 0.019174 0.807365 0.131424
H49   H     H_    0.449014 0.950645 0.745362 0.161321
O24   O     O_3   0.473205 0.299068 0.263169 -0.559118
C66   C     C_3   0.501297 0.472131 0.247506 -0.259403
H50   H     H_    0.492840 0.590318 0.283695 0.139392
H51   H     H_    0.486208 0.515988 0.192158 0.131488
H52   H     H_    0.551023 0.448418 0.254514 0.161375

loop_
_geom_bond_atom_site_label_1
_geom_bond_atom_site_label_2
_ccdc_geom_bond_type
C66   H52   S    
C12   C14   A    
C50   H28   S    
O4    V2    S    
O12   V3    S    
C9    C11   A    
C33   H31   S    
O14   V4    S    
O1    C3    A    
C48   H36   S    
C2    O7    A    
C41   C49   S    
C4    C31   S    
O3    V1    S    
C21   C23   A    
C43   H33   S    
C40   C52   T    
O5    C3    A    
C39   C51   T    
C9    O23   S    
C46   C52   S    
C6    H6    S    
C36   C42   S    
C46   C48   S    
O19   V3    S    
O10   V1    S    
C48   C50   S    
H16   C44   S    
C27   H7    S    
C66   H50   S    
C28   H8    S    
C36   H20   S    
O15   V3    S    
C5    C21   A    
O13   V3    S    
C35   C37   S    
C6    C22   A    
O20   V3    S    
C38   C46   S    
C36   C38   S    
C33   H17   S    
O17   V3    S    
C10   C32   A    
C26   H14   S    
C49   H27   S    
C17   C31   A    
C62   H41   S    
C13   C15   A    
O11   V4    S    
C17   C25   A    
C7    C29   A    
C41   C53   S    
C47   H35   S    
C8    C30   A    
C35   H21   S    
C22   C24   A    
O2    C4    A    
O6    V2    S    
C11   C13   A    
C23   C25   A    
C24   C26   A    
C50   O22   S    
C14   H10   S    
C43   C45   S    
C47   C49   S    
C38   H26   S    
C45   C51   S    
C33   C43   S    
O4    C2    A    
O19   V4    S    
C33   C41   S    
C49   O21   S    
C8    C28   A    
C2    C39   S    
C37   H23   S    
C34   H32   S    
C12   H12   S    
C15   C19   A    
O12   C60   A    
C55   C60   S    
C14   C16   A    
C42   C54   S    
C63   H43   S    
C53   C55   T    
C64   H44   S    
H15   C43   S    
C8    C57   S    
O6    C4    A    
C37   C45   S    
C54   C56   T    
C44   H34   S    
C36   H22   S    
O1    V2    S    
C5    H5    S    
C13   H9    S    
C62   H40   S    
O2    V1    S    
C58   O17   A    
O21   C61   S    
H2    C30   S    
C34   C44   S    
C57   O18   A    
C64   H46   S    
H3    C23   S    
C7    C58   S    
C45   C47   S    
C44   C46   S    
O9    V1    S    
C62   H39   S    
O10   V2    S    
C18   C26   A    
C63   C64   S    
C10   O24   S    
C19   C27   A    
C7    C27   A    
O16   C60   A    
C18   C32   A    
O16   V4    S    
O22   C63   S    
C35   H19   S    
C66   H51   S    
C34   C42   S    
C16   C20   A    
O11   C59   A    
C5    C29   A    
O3    C1    A    
C65   H49   S    
C6    C30   A    
C56   C59   S    
C65   H48   S    
C11   H11   S    
O23   C65   S    
H1    C29   S    
C61   C62   S    
C10   C12   A    
C63   H42   S    
O7    V1    S    
C1    O8    A    
C42   C50   S    
C3    C32   S    
O8    V2    S    
C20   C22   A    
O13   C57   A    
C37   H25   S    
C35   C41   S    
O5    V1    S    
C15   C17   A    
O14   C58   A    
C16   C18   A    
C48   H30   S    
O20   V4    S    
C20   C28   A    
C47   H29   S    
C65   H47   S    
C25   H13   S    
C1    C40   S    
C34   H18   S    
C19   C21   A    
O9    V2    S    
H4    C24   S    
C64   H45   S    
C38   H24   S    
O24   C66   S    
O15   C59   A    
C61   H37   S    
C61   H38   S    
O18   V4    S    
C9    C31   A    
