data_mof_unit_29132.cif
_audit_creation_date              2012-12-11T16:24:04-0500
_audit_creation_method            fapswitch 2.2
_symmetry_space_group_name_H-M    P1
_symmetry_Int_Tables_number       1
_space_group_crystal_system       triclinic
_cell_length_a                    14.759689
_cell_length_b                    14.754346
_cell_length_c                    33.288358
_cell_angle_alpha                 95.959003
_cell_angle_beta                  96.115349
_cell_angle_gamma                 61.217423
_cell_volume                      6305.93619149

loop_
_atom_site_label
_atom_site_type_symbol
_atom_type_description
_atom_site_fract_x
_atom_site_fract_y
_atom_site_fract_z
_atom_type_partial_charge
C1    C     C_R   0.390915 0.699968 0.446266 0.545789
C2    C     C_R   0.334129 0.350715 0.308134 0.049079
C3    C     C_R   0.419952 0.269602 0.327298 0.292345
C4    C     C_R   0.436837 0.276944 0.369452 -0.106099
C5    C     C_R   0.394488 0.255412 0.165488 -0.104003
C6    C     C_R   0.385076 0.235586 0.123806 -0.125785
C7    C     C_R   0.210188 0.379447 0.121361 -0.119276
C8    C     C_R   0.219793 0.398955 0.163087 -0.103909
C9    C     C_R   0.310780 0.334982 0.185257 0.039379
C10   C     C_1   0.315694 0.344709 0.228523 -0.003647
C11   C     C_1   0.321943 0.348839 0.264845 0.025616
C12   C     C_R   0.406083 0.386420 0.433949 0.544971
C13   C     C_R   0.291432 0.295092 0.101562 0.020063
C14   C     C_R   0.755990 0.373383 0.410055 0.023584
C15   C     C_R   0.788689 0.435394 0.393319 -0.129691
C16   C     C_R   0.817772 0.414593 0.353610 -0.117808
C17   C     C_R   0.815000 0.331240 0.330003 0.037037
C18   C     C_R   0.791774 0.263531 0.347943 -0.129406
C19   C     C_R   0.762289 0.284538 0.387684 -0.136435
C20   C     C_R   0.834954 0.310891 0.204744 0.347510
C21   C     C_R   0.826537 0.321409 0.286161 0.346419
C22   C     C_R   0.834875 0.389531 0.142125 -0.118142
C23   C     C_R   0.700647 0.410046 0.447491 0.541559
C24   C     C_R   0.864945 0.378544 0.102948 -0.129633
C25   C     C_R   0.911156 0.196584 0.099436 -0.135380
C26   C     C_R   0.880978 0.207623 0.138712 -0.125994
C27   C     C_R   0.847204 0.303140 0.161025 0.037027
C28   C     C_R   0.907877 0.280973 0.081997 0.023451
C29   C     C_R   0.370039 0.757962 0.410058 0.021213
C30   C     C_R   0.273520 0.794501 0.388257 -0.131269
C31   C     C_R   0.260829 0.828041 0.349493 -0.118846
C32   C     C_R   0.344591 0.825193 0.331855 0.037184
C33   C     C_R   0.438179 0.797746 0.355121 -0.115850
C34   C     C_R   0.393645 0.701027 0.561246 0.543745
C35   C     C_R   0.450768 0.764521 0.393967 -0.131168
C36   C     C_R   0.330106 0.846716 0.206893 0.368094
C37   C     C_R   0.337623 0.839711 0.288335 0.342785
C38   C     C_R   0.246015 0.845426 0.137163 0.278181
C39   C     C_R   0.234021 0.867843 0.096441 -0.111801
C40   C     C_R   0.375540 0.908600 0.106563 -0.150424
C41   C     C_R   0.390923 0.882612 0.146653 -0.168783
C42   C     C_R   0.323870 0.855312 0.162828 0.045285
C43   C     C_R   0.293835 0.906026 0.081722 -0.022663
C44   C     C_R   0.375269 0.372455 0.586998 0.023885
C45   C     C_R   0.407921 0.389314 0.549391 0.552759
C46   C     C_R   0.292841 0.454783 0.606906 -0.134224
C47   C     C_R   0.278795 0.448971 0.647133 -0.121636
C48   C     C_R   0.346738 0.360638 0.668070 0.032968
C49   C     C_R   0.423318 0.274932 0.647041 -0.116614
C50   C     C_R   0.437380 0.280754 0.606861 -0.103435
C51   C     C_R   0.335427 0.357617 0.793017 0.340235
C52   C     C_R   0.341865 0.359679 0.712019 0.347685
C53   C     C_R   0.229123 0.410748 0.853087 -0.126601
C54   C     C_R   0.213205 0.387835 0.890553 -0.131644
C55   C     C_R   0.391387 0.251414 0.895598 -0.130070
C56   C     C_R   0.700411 0.413690 0.562886 0.557949
C57   C     C_R   0.406995 0.273818 0.858179 -0.121292
C58   C     C_R   0.324838 0.350545 0.835836 0.036097
C59   C     C_R   0.293038 0.304830 0.911231 0.022369
C60   C     C_R   0.752610 0.379303 0.603142 0.007201
C61   C     C_R   0.806532 0.427819 0.624526 -0.182852
C62   C     C_R   0.841249 0.409417 0.665387 -0.012831
C63   C     C_R   0.818621 0.342675 0.684950 -0.024571
C64   C     C_R   0.770294 0.290183 0.663222 -0.103978
C65   C     C_R   0.739203 0.305651 0.622356 0.260062
C66   C     C_R   0.899521 0.211291 0.820996 0.296910
C67   C     C_R   0.371915 0.366944 0.392214 -0.024416
C68   C     C_R   0.926155 0.199252 0.862843 -0.123503
C69   C     C_R   0.866599 0.383727 0.874496 -0.144342
C70   C     C_R   0.841745 0.396182 0.833198 -0.171180
C71   C     C_R   0.861503 0.310120 0.806474 0.056213
C72   C     C_1   0.846698 0.323012 0.763771 0.021710
C73   C     C_1   0.835084 0.332562 0.727910 -0.023875
C74   C     C_R   0.912326 0.284715 0.889520 -0.021756
C75   C     C_R   0.376913 0.754387 0.601874 0.008371
C76   C     C_R   0.276865 0.808279 0.615955 -0.134301
C77   C     C_R   0.262990 0.841488 0.656703 -0.128189
C78   C     C_R   0.283782 0.445385 0.372761 -0.143839
C79   C     C_R   0.348840 0.820744 0.683853 0.032648
C80   C     C_R   0.449268 0.770966 0.669850 -0.002556
C81   C     C_R   0.462729 0.738383 0.628886 -0.131974
C82   C     C_R   0.385105 0.894774 0.830285 -0.110242
C83   C     C_R   0.370110 0.918729 0.871568 -0.128905
C84   C     C_R   0.223789 0.884522 0.863080 -0.123540
C85   C     C_R   0.238830 0.860880 0.821877 -0.102149
C86   C     C_R   0.317637 0.868732 0.805301 0.043500
C87   C     C_1   0.326514 0.854083 0.762430 -0.011294
C88   C     C_1   0.334632 0.841085 0.726500 -0.011629
C89   C     C_R   0.264968 0.437065 0.330942 -0.162370
C90   C     C_R   0.287184 0.916993 0.888135 0.020370
C91   C     C_R   0.963592 0.264071 0.045566 0.545430
C92   C     C_R   0.272689 0.259524 0.059997 0.544385
C93   C     C_R   0.258946 0.959872 0.043844 0.548682
C94   C     C_R   0.962833 0.267610 0.930735 0.547106
C95   C     C_R   0.271175 0.264243 0.945496 0.545438
C96   C     C_R   0.255715 0.965473 0.928869 0.543630
Cr1   Cr    Cr6+3 0.576280 0.580550 0.506370 1.010261
Cr2   Cr    Cr6+3 0.346780 0.572400 0.496520 1.011813
Cr3   Cr    Cr6+3 0.576960 0.347070 0.497150 1.031756
Cr4   Cr    Cr6+3 0.087320 0.083240 0.984860 1.008318
Cr5   Cr    Cr6+3 0.087720 0.316210 0.996740 1.015062
Cr6   Cr    Cr6+3 0.317350 0.090340 0.995890 1.013116
H1    H     H_    0.448993 0.170188 0.109459 0.129143
H2    H     H_    0.738161 0.234865 0.399893 0.124216
H3    H     H_    0.860273 0.445211 0.090033 0.130612
H4    H     H_    0.837468 0.466948 0.340839 0.135792
H5    H     H_    0.790356 0.197883 0.330616 0.120945
H6    H     H_    0.806982 0.464701 0.158292 0.138105
H7    H     H_    0.943625 0.120411 0.083910 0.124354
H8    H     H_    0.890197 0.139934 0.152363 0.120639
H9    H     H_    0.209517 0.791573 0.400139 0.129998
H10   H     H_    0.525863 0.737708 0.410252 0.131278
H11   H     H_    0.173892 0.860867 0.076910 0.133130
H12   H     H_    0.465319 0.205726 0.182546 0.125212
H13   H     H_    0.187084 0.850495 0.332577 0.137786
H14   H     H_    0.503660 0.796252 0.342576 0.141074
H15   H     H_    0.423462 0.937050 0.095887 0.142290
H16   H     H_    0.451292 0.890531 0.165666 0.146582
H17   H     H_    0.243301 0.526410 0.592348 0.131702
H18   H     H_    0.501009 0.215705 0.592226 0.144612
H19   H     H_    0.136711 0.430606 0.901974 0.128949
H20   H     H_    0.217765 0.515545 0.662295 0.134361
H21   H     H_    0.475806 0.204936 0.662103 0.131094
H22   H     H_    0.164518 0.470529 0.836443 0.119384
H23   H     H_    0.454903 0.188020 0.911111 0.128774
H24   H     H_    0.482044 0.227428 0.845813 0.126458
H25   H     H_    0.964566 0.122547 0.874175 0.125359
H26   H     H_    0.752355 0.239843 0.678497 0.135728
H27   H     H_    0.820042 0.481444 0.609439 0.130374
H28   H     H_    0.811147 0.472465 0.821899 0.110326
H29   H     H_    0.855431 0.450772 0.894354 0.138146
H30   H     H_    0.504241 0.214786 0.383897 0.136223
H31   H     H_    0.419864 0.943943 0.889970 0.127700
H32   H     H_    0.446854 0.900225 0.817610 0.118065
H33   H     H_    0.540660 0.695441 0.618725 0.131865
H34   H     H_    0.209732 0.820898 0.595804 0.125340
H35   H     H_    0.186710 0.840087 0.802725 0.114608
H36   H     H_    0.159119 0.882586 0.874826 0.122291
H37   H     H_    0.185581 0.879295 0.667373 0.116259
H38   H     H_    0.232401 0.515669 0.389478 0.140735
H39   H     H_    0.154731 0.460848 0.178256 0.120109
H40   H     H_    0.137043 0.426607 0.105103 0.131926
H41   H     H_    0.198973 0.500033 0.316195 0.125101
H42   H     H_    0.785763 0.503731 0.409979 0.130151
N1    N     N_R   0.827980 0.395172 0.227741 -0.228112
N2    N     N_R   0.272905 0.444430 0.733294 -0.248539
N3    N     N_R   0.408988 0.274840 0.732214 -0.239888
N4    N     N_R   0.405610 0.273728 0.771873 -0.236490
N5    N     N_R   0.823538 0.400463 0.267598 -0.227755
N6    N     N_R   0.833191 0.237035 0.263198 -0.239254
N7    N     N_R   0.838083 0.231544 0.223254 -0.237910
N8    N     N_R   0.246467 0.860427 0.225364 -0.170805
N9    N     N_R   0.250261 0.856444 0.265210 -0.233614
N10   N     N_R   0.421114 0.827203 0.269976 -0.222046
N11   N     N_R   0.417217 0.831304 0.230049 -0.233507
N12   N     N_R   0.269313 0.443251 0.773023 -0.259905
O1    O     O_R   0.679450 0.499830 0.463150 -0.520489
O2    O     O_R   0.356040 0.477400 0.534170 -0.506644
O3    O     O_R   0.495910 0.323070 0.537100 -0.489965
O4    O     O_R   0.663920 0.359620 0.542290 -0.447613
O5    O     O_3   0.500010 0.500010 0.500010 -0.240826
O6    O     O_R   0.170070 0.978950 0.027680 -0.522446
O7    O     O_R   0.001760 0.175230 0.026640 -0.502195
O8    O     O_R   0.984760 0.333570 0.037150 -0.519564
O9    O     O_R   0.183410 0.309240 0.041890 -0.501384
O10   O     O_R   0.340240 0.172500 0.045430 -0.520028
O11   O     O_R   0.309670 0.000990 0.032050 -0.497891
O12   O     O_R   0.480650 0.664000 0.464630 -0.501675
O13   O     O_R   0.168330 0.982130 0.939200 -0.522538
O14   O     O_R   0.000140 0.178170 0.944610 -0.504110
O15   O     O_R   0.983010 0.336750 0.948660 -0.515990
O16   O     O_R   0.181800 0.312190 0.959860 -0.500898
O17   O     O_R   0.338500 0.175680 0.956950 -0.520790
O18   O     O_R   0.308050 0.003930 0.950020 -0.500798
O19   O     O_3   0.164130 0.163270 0.992500 -0.236715
O20   O     O_R   0.323930 0.675950 0.455370 -0.520043
O21   O     O_R   0.354700 0.475360 0.451930 -0.498688
O22   O     O_R   0.494470 0.320860 0.448390 -0.525547
O23   O     O_R   0.662580 0.357570 0.460050 -0.508499
O24   O     O_R   0.680900 0.502040 0.551870 -0.532434
O25   O     O_R   0.481990 0.666040 0.546870 -0.502865
O26   O     O_R   0.325370 0.678160 0.544080 -0.517854
O27   O     O_3   0.184958 0.809838 0.151651 -0.544993
C97   C     C_3   0.080784 0.888907 0.150729 -0.101710
H43   H     H_    0.044331 0.897621 0.119425 0.096445
H44   H     H_    0.073257 0.964450 0.164175 0.127217
H45   H     H_    0.036942 0.866695 0.169104 0.156688
O28   O     O_3   0.486369 0.182732 0.304735 -0.557539
C98   C     C_3   0.578671 0.187315 0.301665 -0.116598
H46   H     H_    0.622916 0.178438 0.331514 0.104151
H47   H     H_    0.563068 0.260468 0.288650 0.127659
H48   H     H_    0.628253 0.122076 0.280914 0.153553
O29   O     O_3   0.920804 0.127715 0.792952 -0.561787
C99   C     C_3   0.897883 0.054351 0.806930 -0.131057
H49   H     H_    0.824570 0.091436 0.822826 0.109832
H50   H     H_    0.963740 0.000303 0.826552 0.109585
H51   H     H_    0.887504 0.007377 0.780391 0.139403
O30   O     O_3   0.682747 0.259430 0.603120 -0.541611
C100  C     C_3   0.751434 0.154624 0.593020 -0.112063
H52   H     H_    0.787404 0.110323 0.620568 0.099626
H53   H     H_    0.812325 0.146876 0.573765 0.110884
H54   H     H_    0.706860 0.119582 0.575279 0.131986
C101  C     C_R   0.897866 0.462482 0.687096 0.037919
C102  C     C_R   0.986733 0.407819 0.712636 -0.094024
C103  C     C_R   0.037298 0.458549 0.734275 -0.101834
C104  C     C_R   0.001934 0.563610 0.729778 -0.101617
C105  C     C_R   0.915643 0.618128 0.703610 -0.118856
C106  C     C_R   0.863709 0.568045 0.682352 -0.088859
H55   H     H_    0.017074 0.325809 0.715933 0.123294
H56   H     H_    0.103851 0.416009 0.754564 0.145728
H57   H     H_    0.041393 0.602730 0.746542 0.131320
H58   H     H_    0.888072 0.699615 0.700193 0.106381
H59   H     H_    0.795305 0.612477 0.663077 0.112134
C107  C     C_R   0.540700 0.745919 0.698434 0.023018
C108  C     C_R   0.600301 0.645027 0.711454 -0.092929
C109  C     C_R   0.679623 0.623999 0.741866 -0.100318
C110  C     C_R   0.701191 0.702786 0.758819 -0.102463
C111  C     C_R   0.643054 0.803050 0.745525 -0.123177
C112  C     C_R   0.562480 0.824883 0.715607 -0.096445
H60   H     H_    0.583613 0.583555 0.698837 0.122491
H61   H     H_    0.724464 0.546685 0.752307 0.117657
H62   H     H_    0.763095 0.686032 0.782175 0.107708
H63   H     H_    0.659632 0.864090 0.758734 0.106116
H64   H     H_    0.516184 0.903368 0.706216 0.116185

loop_
_geom_bond_atom_site_label_1
_geom_bond_atom_site_label_2
_ccdc_geom_bond_type
C66   C68   A    
C101  C102  A    
C1    O20   A    
Cr2   O26   S    
Cr6   O11   S    
Cr3   O3    S    
C5    H12   S    
C2    C89   A    
C41   C42   A    
C74   C94   S    
C36   C42   S    
N3    N4    A    
C45   O3    A    
C70   H28   S    
C108  C109  A    
C3    O28   S    
C66   O29   S    
C76   H34   S    
C111  C112  A    
C7    C8    A    
C4    H30   S    
C85   C86   A    
C25   C28   A    
C5    C9    A    
C26   C27   A    
C106  H59   S    
C96   O18   A    
C34   O25   A    
C50   H18   S    
C93   O6    A    
C38   C42   A    
C55   C59   A    
C107  C112  A    
C56   O24   A    
C5    C6    A    
C99   H51   S    
C68   C74   A    
C15   C16   A    
C49   H21   S    
C109  H61   S    
C97   H43   S    
Cr5   O16   S    
C18   C19   A    
C98   H47   S    
C18   H5    S    
C43   C93   S    
C112  H64   S    
Cr3   O5    S    
C77   H37   S    
C92   O9    A    
C40   C43   A    
Cr2   O2    S    
C53   C54   A    
C12   O21   A    
C16   C17   A    
C39   H11   S    
C102  H55   S    
C100  H54   S    
Cr5   O15   S    
C70   C71   A    
C21   N5    A    
C41   H16   S    
Cr4   O7    S    
C95   O16   A    
C26   H8    S    
C23   O23   A    
C61   C62   A    
O29   C99   S    
C16   H4    S    
C34   C75   S    
C72   C73   T    
C40   H15   S    
C84   H36   S    
C100  H52   S    
Cr6   O10   S    
Cr3   O4    S    
C102  C103  A    
C91   O7    A    
C98   H46   S    
C67   C78   A    
C59   C95   S    
Cr4   O19   S    
C92   O10   A    
C2    C11   S    
C104  H57   S    
C31   H13   S    
C79   C88   S    
C44   C46   A    
C81   H33   S    
C54   C59   A    
C77   C79   A    
C78   C89   A    
C38   C39   A    
C12   C67   S    
C51   N12   A    
C32   C37   S    
C51   N4    A    
Cr4   O14   S    
C105  C106  A    
C47   C48   A    
C55   H23   S    
C111  H63   S    
C84   C85   A    
C109  C110  A    
Cr3   O22   S    
C65   O30   S    
C57   H24   S    
C107  C108  A    
C8    C9    A    
Cr1   O24   S    
C39   C43   A    
C63   C73   S    
C1    O12   A    
C64   H26   S    
C25   C26   A    
C103  C104  A    
C17   C21   S    
C38   O27   S    
C63   C64   A    
C60   C61   A    
Cr6   O17   S    
Cr1   O1    S    
C14   C23   S    
C82   H32   S    
C98   H48   S    
Cr5   O9    S    
C75   C76   A    
O27   C97   S    
Cr3   O23   S    
C29   C30   A    
C37   N9    A    
C94   O15   A    
Cr2   O20   S    
C19   H2    S    
C31   C32   A    
C14   C15   A    
C7    C13   A    
C69   H29   S    
C62   C63   A    
C1    C29   S    
C17   C18   A    
C69   C74   A    
C51   C58   S    
C25   H7    S    
C6    H1    S    
C76   C77   A    
Cr2   O21   S    
C90   C96   S    
C68   H25   S    
C89   H41   S    
N10   N11   A    
O30   C100  S    
C66   C71   A    
C15   H42   S    
C40   C41   A    
C110  C111  A    
C54   H19   S    
C60   C65   A    
C49   C50   A    
C52   N3    A    
Cr1   O5    S    
C96   O13   A    
C55   C57   A    
C13   C92   S    
C105  H58   S    
C8    H39   S    
C22   C24   A    
C91   O8    A    
Cr5   O19   S    
C3    C4    A    
C99   H50   S    
Cr2   O5    S    
C44   C45   S    
C86   C87   S    
C9    C10   S    
C85   H35   S    
C44   C50   A    
C110  H62   S    
C83   C90   A    
C46   C47   A    
C48   C49   A    
C33   H14   S    
C52   N2    A    
Cr4   O13   S    
C104  C105  A    
C37   N10   A    
Cr5   O8    S    
C75   C81   A    
C45   O2    A    
C24   C28   A    
C80   C81   A    
C47   H20   S    
C53   H22   S    
C78   H38   S    
C4    C67   A    
C80   C107  S    
C53   C58   A    
C97   H45   S    
Cr1   O25   S    
C20   C27   S    
C61   H27   S    
Cr6   O18   S    
Cr1   O12   S    
C101  C106  A    
C29   C35   A    
N6    N7    A    
C20   N7    A    
C30   H9    S    
C22   C27   A    
C32   C33   A    
C2    C3    A    
Cr6   O19   S    
C71   C72   S    
C56   O4    A    
C82   C86   A    
C108  H60   S    
C64   C65   A    
C6    C13   A    
C99   H49   S    
C21   N6    A    
C57   C58   A    
C30   C31   A    
C103  H56   S    
C22   H6    S    
C23   O1    A    
C14   C19   A    
C33   C35   A    
C97   H44   S    
C46   H17   S    
C34   O26   A    
C28   C91   S    
C95   O17   A    
C69   C70   A    
N1    N5    A    
C62   C101  S    
C83   H31   S    
C10   C11   T    
C35   H10   S    
C84   C90   A    
C79   C80   A    
C56   C60   S    
C48   C52   S    
N2    N12   A    
N8    N9    A    
C93   O11   A    
C87   C88   T    
C82   C83   A    
C100  H53   S    
C20   N1    A    
O28   C98   S    
Cr4   O6    S    
C24   H3    S    
C12   O22   A    
C7    H40   S    
C94   O14   A    
C36   N8    A    
C36   N11   A    
