data_mof_unit_67324.cif
_audit_creation_date              2013-03-05T16:05:28-0500
_audit_creation_method            fapswitch 2.2
_symmetry_space_group_name_H-M    P1
_symmetry_Int_Tables_number       1
_space_group_crystal_system       triclinic
_cell_length_a                    8.704721
_cell_length_b                    15.266397
_cell_length_c                    15.30352
_cell_angle_alpha                 99.068477
_cell_angle_beta                  97.058169
_cell_angle_gamma                 100.441205
_cell_volume                      1950.84577625

loop_
_atom_site_label
_atom_site_type_symbol
_atom_site_description
_atom_site_fract_x
_atom_site_fract_y
_atom_site_fract_z
_atom_type_partial_charge
P1    P     P_3+3 0.996530 0.418490 0.288400 0.535586
O1    O     O_2   0.826410 0.445300 0.275350 -0.353512
O2    O     O_3   0.098900 0.448430 0.388910 -0.349382
O3    O     O_3   0.628630 0.613330 0.338230 -0.300342
O4    O     O_2   0.692627 0.543706 0.186313 -0.251409
O5    O     O_3   0.947627 0.299983 0.266502 -0.533986
O6    O     O_3   0.653745 0.709675 0.191105 -0.462475
C1    C     C_3   0.640001 0.873741 0.212761 0.541170
P2    P     P_3+3 0.693090 0.712100 0.580610 0.595160
P3    P     P_3+3 0.132924 0.778602 0.401036 0.601069
O7    O     O_2   0.863180 0.725040 0.553770 -0.255867
O8    O     O_3   0.060890 0.661420 0.386090 -0.282556
O9    O     O_2   0.045332 0.823022 0.472334 -0.252425
O10   O     O_3   0.700979 0.745018 0.698096 -0.683933
O11   O     O_3   0.063471 0.812663 0.301960 -0.547744
C2    C     C_3   0.112874 0.763693 0.228108 0.569324
H1    H     H_    0.184368 0.713712 0.247286 -0.093278
C3    C     C_3   0.220077 0.829001 0.183536 0.384626
C4    C     C_3   0.349952 0.750488 0.713653 0.525749
H2    H     H_    0.434172 0.707997 0.695071 0.023876
C5    C     C_3   0.444310 0.837624 0.782572 0.315848
H3    H     H_    0.555106 0.861951 0.756944 0.036852
Ba1   Ba    Ba6+2 0.844890 0.542420 0.457460 1.785304
C6    C     C_3   0.912123 0.268413 0.344272 0.323683
H4    H     H_    0.806812 0.292140 0.364984 0.088496
H5    H     H_    0.013747 0.290676 0.399746 0.126315
C7    C     C_3   0.877114 0.165634 0.323769 -0.702748
H6    H     H_    0.784205 0.140684 0.264043 0.314794
H7    H     H_    0.836076 0.138128 0.381402 0.208478
H8    H     H_    0.985818 0.140871 0.310662 0.270073
C8    C     C_3   0.833018 0.728365 0.747385 0.659215
C9    C     C_3   0.823052 0.742727 0.848946 0.270554
H9    H     H_    0.701300 0.712252 0.857035 0.110483
P4    P     P_3+3 0.193180 0.581580 0.711620 0.590869
O12   O     O_2   0.363300 0.554730 0.724710 -0.408604
O13   O     O_3   0.090820 0.551650 0.611100 -0.317416
O14   O     O_3   0.561090 0.386750 0.661790 -0.321528
O15   O     O_3   0.230644 0.700278 0.750922 -0.501458
P5    P     P_3+3 0.060493 0.221415 0.597236 0.526110
O16   O     O_3   0.598940 0.388670 0.448890 -0.343610
O17   O     O_3   0.128820 0.338650 0.613920 -0.394172
O18   O     O_2   0.137677 0.177414 0.520775 -0.341259
O19   O     O_3   0.136488 0.183488 0.692165 -0.417707
Ba2   Ba    Ba6+2 0.344950 0.457650 0.542550 1.719328
P6    P     P_3+3 0.580598 0.603845 0.220842 0.622129
C10   C     C_3   0.618920 0.782432 0.249789 0.536562
H10   H     H_    0.499541 0.762905 0.266997 -0.093063
O20   O     O_3   0.590780 0.611410 0.551120 -0.290614
C11   C     C_3   0.406480 0.267962 0.254862 0.133748
H11   H     H_    0.301126 0.287265 0.280358 0.121393
H12   H     H_    0.501353 0.325666 0.250539 0.132238
C12   C     C_3   0.346607 0.216432 0.159056 0.640293
P7    P     P_3+3 0.500030 0.271648 0.424360 0.494347
O21   O     O_2   0.326530 0.274990 0.446290 -0.345376
O22   O     O_3   0.474671 0.217093 0.310896 -0.558810
H13   H     H_    0.337846 0.827894 0.212990 -0.094546
C13   C     C_3   0.107326 0.240219 0.767430 0.254492
H14   H     H_    0.179393 0.309793 0.774611 0.091826
H15   H     H_    0.980010 0.243451 0.762420 -0.010732
C14   C     C_3   0.153817 0.204242 0.851774 0.018878
H16   H     H_    0.282603 0.205166 0.862005 0.217409
H17   H     H_    0.124567 0.247936 0.909818 0.115975
P8    P     P_3+3 0.626599 0.387575 0.775920 0.554625
C15   C     C_3   0.602910 0.212739 0.741821 0.828869
H18   H     H_    0.703583 0.240584 0.709291 -0.138076
O23   O     O_2   0.531798 0.449530 0.827003 -0.330534
O24   O     O_3   0.538974 0.279664 0.790727 -0.521999
H19   H     H_    0.702500 0.095784 0.764629 0.236762
C16   C     C_3   0.664901 0.153512 0.804110 -0.791824
H20   H     H_    0.572057 0.127068 0.842389 0.308334
H21   H     H_    0.768953 0.193948 0.852055 0.223658
C17   C     C_R   0.846182 0.421584 0.825854 0.195645
C18   C     C_R   0.910785 0.430920 0.919863 -0.083274
C19   C     C_R   0.050124 0.455296 0.107286 -0.044435
C20   C     C_R   0.898031 0.406619 0.075235 -0.055538
C21   C     C_R   0.829639 0.392852 0.985616 0.371966
C22   C     C_R   0.114682 0.464381 0.199870 0.177888
H22   H     H_    0.830297 0.374696 0.120322 0.192712
C23   C     C_R   0.278138 0.499719 0.223922 0.015977
C24   C     C_R   0.095606 0.511274 0.795739 0.297081
C25   C     C_R   0.159886 0.519973 0.889004 -0.055484
C26   C     C_R   0.070407 0.480046 0.950726 0.046347
C27   C     C_R   0.317018 0.561327 0.920942 -0.052733
C28   C     C_R   0.390418 0.564868 0.008303 0.387806
C29   C     C_R   0.303113 0.534967 0.074311 -0.151602
C30   C     C_R   0.141005 0.490923 0.044386 0.091648
C31   C     C_R   0.370935 0.542625 0.167145 0.099246
C32   C     C_R   0.949170 0.449989 0.766212 -0.468854
H23   H     H_    0.392965 0.583829 0.875801 0.197841
H24   H     H_    0.903656 0.435124 0.695256 0.170564
C33   C     C_R   0.348135 0.822524 0.443392 0.097498
H25   H     H_    0.197054 0.955555 0.405006 0.193612
C34   C     C_R   0.587927 0.793390 0.526242 0.208578
C35   C     C_R   0.753941 0.234798 0.533041 -0.523150
C36   C     C_R   0.848004 0.178885 0.565736 0.203613
C37   C     C_R   0.787533 0.086503 0.561087 -0.267608
C38   C     C_R   0.630699 0.046862 0.521131 0.089609
C39   C     C_R   0.537369 0.104580 0.483932 0.027558
C40   C     C_R   0.566285 0.951072 0.511311 0.144953
C41   C     C_R   0.410450 0.916691 0.463502 0.035741
C42   C     C_R   0.318614 0.977159 0.436359 -0.060482
C43   C     C_R   0.381905 0.067772 0.443381 0.025038
C44   C     C_R   0.649148 0.888189 0.546931 -0.272006
C45   C     C_R   0.441058 0.762649 0.470323 0.027816
C46   C     C_R   0.600028 0.198595 0.489601 0.273118
H26   H     H_    0.761620 0.910806 0.590219 0.180355
H27   H     H_    0.805514 0.305228 0.534625 0.147033
H28   H     H_    0.867898 0.046419 0.585204 0.187672
H29   H     H_    0.306202 0.108023 0.415055 0.178843
Br1   Br    Br    0.755237 0.806056 0.361132 -0.406603
N1    N     N_R   0.487147 0.820017 0.872037 0.257660
O25   O     O_R   0.555196 0.888063 0.935291 -0.198951
O26   O     O_R   0.434365 0.742774 0.893583 -0.329340
Br2   Br    Br    0.349103 0.944723 0.800361 -0.181437
Br3   Br    Br    0.008365 0.815681 0.728020 -0.256425
Br4   Br    Br    0.826522 0.601814 0.710087 -0.445858
Br5   Br    Br    0.848515 0.923743 0.197023 -0.231014
Br6   Br    Br    0.870198 0.869312 0.909068 -0.152603
N2    N     N_R   0.934177 0.697792 0.895209 0.259885
O27   O     O_R   0.083809 0.719076 0.890674 -0.257528
O28   O     O_R   0.883247 0.629889 0.932776 -0.298403
Br7   Br    Br    0.596175 0.970349 0.297504 -0.550636
Br8   Br    Br    0.138393 0.141406 0.147689 -0.283002
Br9   Br    Br    0.317748 0.303443 0.083231 -0.555891
Br10  Br    Br    0.494124 0.146183 0.114356 -0.212548
N3    N     N_R   0.542541 0.866277 0.126988 0.250050
O29   O     O_R   0.511297 0.939100 0.100905 -0.191040
O30   O     O_R   0.519293 0.792247 0.068542 -0.252649
Br11  Br    Br    0.038941 0.081739 0.844655 -0.284237
N4    N     N_R   0.477266 0.160110 0.672212 0.217698
O31   O     O_R   0.405595 0.203827 0.619876 -0.336316
O32   O     O_R   0.421814 0.074288 0.668237 -0.348972
N5    N     N_R   0.975390 0.712057 0.164379 0.274906
O33   O     O_R   0.956275 0.624571 0.146522 -0.347114
O34   O     O_R   0.899516 0.751511 0.108915 -0.230376
Br12  Br    Br    0.627143 0.315720 0.971031 -0.418526
N6    N     N_R   0.558507 0.585068 0.021737 0.268512
O35   O     O_R   0.629439 0.517314 0.016226 -0.315076
O36   O     O_R   0.630204 0.659302 0.001132 -0.242894
Br13  Br    Br    0.387157 0.461784 0.321993 -0.402774
Br14  Br    Br    0.354405 0.638790 0.437697 -0.357957
N7    N     N_R   0.203867 0.799115 0.086849 0.282638
O37   O     O_R   0.188734 0.855479 0.032364 -0.151535
O38   O     O_R   0.215226 0.716752 0.055302 -0.354816
Br15  Br    Br    0.220673 0.956899 0.215088 -0.303248
N8    N     N_R   0.278109 0.774320 0.631975 0.188904
O39   O     O_R   0.298968 0.857603 0.619496 -0.395290
O40   O     O_R   0.173188 0.713145 0.576469 -0.301304

loop_
_geom_bond_atom_site_label_1
_geom_bond_atom_site_label_2
_geom_bond_distance
_ccdc_geom_bond_type
C40   C44   1.434686 A    
C35   C46   1.392581 A    
N3    O29   1.300792 A    
C7    H7    1.105289 S    
P1    C22   1.940263 S    
C8    Br4   1.914775 S    
O2    Ba1   3.048575 S    
C36   C37   1.400461 A    
C6    C7    1.516998 S    
C33   C45   1.401600 A    
C20   C21   1.393812 A    
C3    Br15  1.934979 S    
C34   C44   1.418907 A    
C23   C31   1.413018 A    
C38   C39   1.436823 A    
C21   Br12  1.900411 S    
P5    O17   1.747849 S    
P7    O21   1.594752 D    
N6    O36   1.295351 A    
O8    Ba1   2.814366 S    
C42   C43   1.375145 A    
C39   C46   1.424921 A    
O6    P6    1.775648 S    
P6    C31   1.910681 S    
C6    H5    1.110976 S    
P4    O12   1.604385 D    
C45   Br14  1.867225 S    
P3    O11   1.752703 S    
C29   C30   1.432925 A    
C12   Br8   1.932461 S    
C13   H15   1.112054 S    
Ba1   O16   2.850037 S    
Ba1   O13   2.946221 S    
C14   H17   1.108683 S    
P1    O1    1.604082 D    
C16   H21   1.109524 S    
P4    C24   1.975961 S    
C4    H2    1.097528 S    
H19   C16   1.110922 S    
C11   H12   1.109304 S    
C19   C22   1.434112 A    
C28   N6    1.421537 S    
C33   C41   1.411553 A    
O10   C8    1.381284 S    
C3    H13   1.072147 S    
P7    O22   1.772207 S    
C23   Br13  1.900419 S    
C37   H28   1.078409 S    
P8    O23   1.547606 D    
C5    H3    1.109482 S    
C7    H8    1.109461 S    
C35   C36   1.391636 A    
C2    N5    1.460715 S    
C34   C45   1.405022 A    
C8    Br3   1.921633 S    
O14   P8    1.766814 S    
C1    Br5   1.896925 S    
C25   C26   1.435471 A    
P5    O18   1.542999 D    
N8    O40   1.295370 A    
O3    P6    1.770452 S    
N2    O28   1.298306 A    
C27   H23   1.066309 S    
P8    O24   1.746929 S    
C35   H27   1.082752 S    
C4    N8    1.455890 S    
C19   C20   1.383656 A    
C29   C31   1.448127 A    
P1    O5    1.749660 S    
C15   O24   1.407546 S    
C3    N7    1.459449 S    
P4    Ba2   3.496031 S    
C28   C29   1.419373 A    
C38   C40   1.445090 A    
O3    Ba1   2.926106 S    
C24   C25   1.443934 A    
C13   C14   1.518935 S    
P5    O19   1.746754 S    
C11   O22   1.393786 S    
O4    P6    1.539911 D    
C19   C30   1.429835 A    
Ba1   Ba2   4.710788 S    
C14   H16   1.109904 S    
P1    O2    1.631813 S    
N4    O32   1.300662 A    
P2    O10   1.778257 S    
O6    C10   1.416571 S    
C5    Br2   1.959708 S    
C4    O15   1.409342 S    
Ba2   O21   2.908060 S    
C5    N1    1.453509 S    
C27   C28   1.397600 A    
N2    O27   1.297244 A    
C11   C12   1.529766 S    
O5    C6    1.400535 S    
C37   C38   1.408070 A    
C22   C23   1.407650 A    
N1    O26   1.293754 A    
C15   C16   1.529560 S    
C6    H4    1.107964 S    
O12   Ba2   2.914726 S    
P2    O7    1.571270 D    
P5    C36   1.822664 S    
P3    O8    1.753576 S    
H25   C42   1.075879 S    
C1    N3    1.449079 S    
C15   N4    1.449782 S    
P3    C33   1.867749 S    
O16   P7    1.795966 S    
O2    Ba2   2.946900 S    
C10   Br1   1.896253 S    
N5    O33   1.295923 A    
O17   Ba2   2.815044 S    
N7    O38   1.299740 A    
O13   Ba2   3.049548 S    
C9    N2    1.460422 S    
P2    C34   1.902732 S    
C18   C26   1.437191 A    
O1    Ba1   2.914097 S    
N8    O39   1.298976 A    
C10   H10   1.103531 S    
N3    O30   1.293138 A    
Ba1   O20   3.033833 S    
N1    O25   1.298502 A    
C4    C5    1.582846 S    
P4    O15   1.773648 S    
C8    C9    1.550435 S    
P2    Ba1   3.510233 S    
C9    Br6   1.951612 S    
C17   C18   1.453895 A    
P3    O9    1.546065 D    
C14   Br11  1.934043 S    
C25   C27   1.390602 A    
C12   Br10  1.936682 S    
P1    Ba1   3.495281 S    
N6    O35   1.294226 A    
C40   C41   1.424041 A    
C17   C32   1.417663 A    
C15   H18   1.111474 S    
O14   Ba2   2.925447 S    
C32   H24   1.082401 S    
C24   C32   1.413249 A    
Ba2   O20   2.849519 S    
C39   C43   1.392942 A    
C9    H9    1.107552 S    
C26   C30   1.459870 A    
C12   Br9   1.925955 S    
C1    Br7   1.930067 S    
C13   H14   1.112899 S    
C2    H1    1.119589 S    
O7    Ba1   2.908001 S    
C41   C42   1.403754 A    
C18   C21   1.435073 A    
N4    O31   1.293345 A    
C44   H26   1.078223 S    
P4    O13   1.631903 S    
C16   H20   1.109916 S    
C20   H22   1.078452 S    
C1    C10   1.574732 S    
O19   C13   1.406512 S    
P7    C46   1.867511 S    
O16   Ba2   3.032883 S    
P8    C17   1.913963 S    
P2    O20   1.595637 S    
C2    C3    1.537432 S    
C11   H11   1.108940 S    
C7    H6    1.109735 S    
N5    O34   1.298851 A    
N7    O37   1.301264 A    
C43   H29   1.077166 S    
O11   C2    1.410957 S    
