data_mof_unit_35472.cif
_audit_creation_date              2012-12-10T17:09:34-0500
_audit_creation_method            fapswitch 2.2
_symmetry_space_group_name_H-M    P1
_symmetry_Int_Tables_number       1
_space_group_crystal_system       triclinic
_cell_length_a                    10.495501
_cell_length_b                    10.679421
_cell_length_c                    10.088281
_cell_angle_alpha                 90.505311
_cell_angle_beta                  90.420697
_cell_angle_gamma                 89.702968
_cell_volume                      1130.6645172

loop_
_atom_site_label
_atom_site_type_symbol
_atom_type_description
_atom_site_fract_x
_atom_site_fract_y
_atom_site_fract_z
_atom_type_partial_charge
C1    C     C_R   0.504410 0.262648 0.498753 0.914302
C2    C     C_2   0.404206 0.527429 0.074006 -0.170081
C3    C     C_R   0.257550 0.500365 0.499465 0.863746
C4    C     C_R   0.506387 0.737212 0.500952 0.945330
C5    C     C_R   0.742480 0.500335 0.500614 0.847381
C6    C     C_3   0.043550 0.399345 0.564094 -0.180886
C7    C     C_3   0.957689 0.396894 0.439318 -0.185551
C8    C     C_3   0.877684 0.501100 0.501930 0.039675
C9    C     C_3   0.960937 0.503646 0.626967 -0.141549
C10   C     C_3   0.042507 0.605393 0.561348 -0.181464
C11   C     C_3   0.564105 0.383727 0.890237 -0.148395
C12   C     C_3   0.956476 0.602915 0.436493 -0.174813
C13   C     C_3   0.468106 0.276525 0.909625 -0.327085
C14   C     C_3   0.532471 0.148283 0.899784 -0.944088
C15   C     C_3   0.664815 0.127873 0.303642 -0.351265
C16   C     C_3   0.756629 0.036833 0.233007 -0.387082
C17   C     C_3   0.857227 0.106755 0.154401 -0.902018
C18   C     C_3   0.039095 0.498564 0.373589 -0.137232
C19   C     C_3   0.122380 0.501007 0.498552 0.031846
C20   C     C_2   0.554320 0.930822 0.394392 -0.180405
C21   C     C_2   0.534264 0.867459 0.505310 -0.391751
C22   C     C_2   0.574664 0.065312 0.400995 0.136540
C23   C     C_2   0.507328 0.129633 0.493224 -0.387127
C24   C     C_2   0.416589 0.553222 0.928555 -0.077930
H1    H     H_    0.918540 0.312013 0.390640 0.125819
H2    H     H_    0.074814 0.496331 0.270259 0.133782
H3    H     H_    0.552741 0.884695 0.298052 0.173137
H4    H     H_    0.544748 0.910723 0.602709 0.159495
H5    H     H_    0.574735 0.134175 0.800135 0.271471
H6    H     H_    0.608343 0.139764 0.976229 0.265711
H7    H     H_    0.460986 0.073803 0.916030 0.254729
H8    H     H_    0.423379 0.284812 0.008656 0.215865
H9    H     H_    0.390911 0.281762 0.833913 0.240320
H10   H     H_    0.630095 0.357337 0.809413 0.212887
H11   H     H_    0.629517 0.392228 0.975556 0.109595
H12   H     H_    0.444307 0.084221 0.562601 0.138440
H13   H     H_    0.811786 0.174290 0.085369 0.258671
H14   H     H_    0.922392 0.157957 0.222558 0.256913
H15   H     H_    0.914536 0.038669 0.095800 0.253085
H16   H     H_    0.805756 0.976540 0.306982 0.231585
H17   H     H_    0.702300 0.976226 0.162860 0.218862
H18   H     H_    0.607865 0.177774 0.227114 0.219901
H19   H     H_    0.722920 0.197603 0.359368 0.193804
H20   H     H_    0.346704 0.615321 0.883895 0.135634
H21   H     H_    0.310813 0.534753 0.118719 0.158927
H22   H     H_    0.587772 0.529601 0.111455 0.179545
H23   H     H_    0.083756 0.316492 0.615689 0.129450
H24   H     H_    0.925087 0.505673 0.730247 0.136761
H25   H     H_    0.081961 0.690172 0.610782 0.128917
H26   H     H_    0.916138 0.685721 0.384897 0.129172
N1    N     N_2   0.501360 0.501330 0.852150 -0.103200
N2    N     N_2   0.501400 0.501360 0.147810 -0.201206
O1    O     O_R   0.499980 0.319060 0.613040 -0.627016
O2    O     O_R   0.500020 0.319100 0.386900 -0.608044
O3    O     O_R   0.313930 0.499950 0.613050 -0.623465
O4    O     O_R   0.313970 0.499990 0.386910 -0.622986
O5    O     O_R   0.499980 0.680900 0.613100 -0.616063
O6    O     O_R   0.500020 0.680940 0.386960 -0.610080
O7    O     O_R   0.686030 0.500010 0.613090 -0.639931
O8    O     O_R   0.686070 0.500050 0.386950 -0.627693
Zn1   Zn    Zn3+2 0.499970 0.499970 0.650990 0.917179
Zn2   Zn    Zn3+2 0.500030 0.500030 0.349010 0.919930

loop_
_geom_bond_atom_site_label_1
_geom_bond_atom_site_label_2
_ccdc_geom_bond_type
C4    O5    A    
O6    Zn2   S    
C5    C8    S    
C12   H26   S    
C1    O2    A    
O5    Zn1   S    
C6    C7    S    
C4    C21   S    
C20   H3    S    
C9    C10   S    
C14   H7    S    
C13   H8    S    
C18   H2    S    
C10   C19   S    
C8    C12   S    
C7    C18   S    
C3    C19   S    
C24   N1    D    
C11   H11   S    
C8    C9    S    
C15   H19   S    
C7    C8    S    
C17   H13   S    
C13   C14   S    
C13   H9    S    
C6    C19   S    
C11   C13   S    
C2    N2    D    
C16   H16   S    
O3    Zn1   S    
C21   H4    S    
C14   H6    S    
C1    C23   S    
C10   C12   S    
C17   H14   S    
C15   C22   S    
C2    H21   S    
C2    C24   S    
C3    O4    A    
C24   H20   S    
O4    Zn2   S    
O7    Zn1   S    
C11   N1    S    
C6    H23   S    
C5    O7    A    
C14   H5    S    
C12   C18   S    
C15   C16   S    
H22   N2    S    
C6    C9    S    
C20   C21   D    
C9    H24   S    
O8    Zn2   S    
C23   H12   S    
C17   H15   S    
C4    O6    A    
C1    O1    A    
C22   C23   D    
C18   C19   S    
N2    Zn2   S    
C7    H1    S    
O2    Zn2   S    
C5    O8    A    
C10   H25   S    
C3    O3    A    
O1    Zn1   S    
C11   H10   S    
C15   H18   S    
C20   C22   S    
C16   C17   S    
C16   H17   S    
N1    Zn1   S    
