data_mof_unit_62792.cif
_audit_creation_date              2012-12-10T18:26:14-0500
_audit_creation_method            fapswitch 2.2
_symmetry_space_group_name_H-M    P1
_symmetry_Int_Tables_number       1
_space_group_crystal_system       tetragonal
_cell_length_a                    21.458222
_cell_length_b                    21.458222
_cell_length_c                    47.13107
_cell_angle_alpha                 90.0
_cell_angle_beta                  90.0
_cell_angle_gamma                 90.0
_cell_volume                      21701.7505709

loop_
_atom_site_label
_atom_site_type_symbol
_atom_type_description
_atom_site_fract_x
_atom_site_fract_y
_atom_site_fract_z
_atom_type_partial_charge
C1    C     C_R   0.997295 0.121430 0.000155 0.888080
C2    C     C_3   0.997078 0.189575 0.000227 0.104602
C3    C     C_R   0.499977 0.121491 0.499620 0.860184
C4    C     C_R   0.500000 1.000000 0.944699 0.867044
C5    C     C_R   1.000000 0.500000 0.944699 0.867044
C6    C     C_R   1.000000 0.500000 0.444699 0.867044
C7    C     C_R   0.500000 1.000000 0.444699 0.867044
C8    C     C_R   0.484274 0.945718 0.131072 -0.103700
C9    C     C_R   0.054282 0.484274 0.131072 -0.103700
C10   C     C_R   0.515726 0.054282 0.131072 -0.103700
C11   C     C_R   0.945718 0.515726 0.131072 -0.103700
C12   C     C_R   0.984273 0.445718 0.631072 -0.103700
C13   C     C_3   0.810425 0.997078 0.000227 0.104602
C14   C     C_R   0.554282 0.984273 0.631072 -0.103700
C15   C     C_R   0.015726 0.554282 0.631072 -0.103700
C16   C     C_R   0.445718 0.015726 0.631072 -0.103700
C17   C     C_R   0.484616 0.945566 0.101544 -0.225835
C18   C     C_R   0.054434 0.484616 0.101544 -0.225836
C19   C     C_R   0.515384 0.054434 0.101544 -0.225836
C20   C     C_R   0.945566 0.515384 0.101544 -0.225835
C21   C     C_R   0.984616 0.445566 0.601544 -0.225835
C22   C     C_R   0.554434 0.984616 0.601544 -0.225836
C23   C     C_R   0.015384 0.554434 0.601544 -0.225836
C24   C     C_3   0.002922 0.810425 0.000227 0.104602
C25   C     C_R   0.445566 0.015384 0.601544 -0.225835
C26   C     C_R   0.039014 0.460219 0.809664 0.499921
C27   C     C_R   0.539781 0.039014 0.809664 0.499922
C28   C     C_R   0.960986 0.539781 0.809664 0.499920
C29   C     C_R   0.460219 0.960986 0.809664 0.499921
C30   C     C_R   0.539014 0.960219 0.309664 0.499921
C31   C     C_R   0.039781 0.539014 0.309664 0.499922
C32   C     C_R   0.460986 0.039781 0.309664 0.499920
C33   C     C_R   0.960219 0.460986 0.309664 0.499921
C34   C     C_R   0.959769 0.540198 0.779955 -0.013755
C35   C     C_3   0.689575 0.502922 0.500227 0.104602
C36   C     C_R   0.459802 0.959769 0.779955 -0.013755
C37   C     C_R   0.040231 0.459802 0.779955 -0.013755
C38   C     C_R   0.540198 0.040231 0.779955 -0.013756
C39   C     C_R   0.459769 0.040198 0.279955 -0.013755
C40   C     C_R   0.959802 0.459769 0.279955 -0.013755
C41   C     C_R   0.540231 0.959802 0.279955 -0.013755
C42   C     C_R   0.040198 0.540231 0.279955 -0.013756
C43   C     C_R   1.000000 0.500000 0.765045 -0.021775
C44   C     C_R   0.500000 1.000000 0.765045 -0.021775
C45   C     C_R   0.500000 1.000000 0.265045 -0.021775
C46   C     C_3   0.497078 0.689575 0.500227 0.104602
C47   C     C_R   0.000000 0.500000 0.265045 -0.021775
C48   C     C_R   0.500000 1.000000 0.086577 -0.046309
C49   C     C_R   0.000000 0.500000 0.086577 -0.046309
C50   C     C_R   1.000000 0.500000 0.586577 -0.046309
C51   C     C_R   0.500000 1.000000 0.586577 -0.046309
C52   C     C_R   0.919553 0.579831 0.764883 -0.162376
C53   C     C_R   0.420169 0.919553 0.764883 -0.162376
C54   C     C_R   0.080447 0.420169 0.764883 -0.162376
C55   C     C_R   0.579831 0.080447 0.764883 -0.162376
C56   C     C_R   0.419553 0.079831 0.264883 -0.162376
C57   C     C_3   0.310425 0.497078 0.500227 0.104602
C58   C     C_R   0.920169 0.419553 0.264883 -0.162376
C59   C     C_R   0.580447 0.920169 0.264883 -0.162376
C60   C     C_R   0.079831 0.580447 0.264883 -0.162376
C61   C     C_R   0.459301 0.039725 0.220238 -0.013364
C62   C     C_R   0.960275 0.459301 0.220238 -0.013364
C63   C     C_R   0.540699 0.960275 0.220238 -0.013364
C64   C     C_R   0.039725 0.540699 0.220238 -0.013364
C65   C     C_R   0.959301 0.539725 0.720238 -0.013364
C66   C     C_R   0.460275 0.959301 0.720238 -0.013364
C67   C     C_R   0.040699 0.460275 0.720238 -0.013364
C68   C     C_3   0.502922 0.310425 0.500227 0.104602
C69   C     C_R   0.539725 0.040699 0.720238 -0.013364
C70   C     C_3   0.215571 0.025554 0.029462 0.377287
C71   C     C_3   0.974446 0.215571 0.029462 0.377287
C72   C     C_3   0.784429 0.974446 0.029462 0.377287
C73   C     C_3   0.025554 0.784429 0.029462 0.377287
C74   C     C_3   0.715571 0.525554 0.529462 0.377287
C75   C     C_3   0.474446 0.715571 0.529462 0.377287
C76   C     C_3   0.284429 0.474446 0.529462 0.377287
C77   C     C_3   0.525554 0.284429 0.529462 0.377287
C78   C     C_3   0.287404 0.026096 0.028470 -0.459399
C79   C     C_3   0.310345 0.000372 0.999668 0.114358
C80   C     C_3   0.973904 0.287404 0.028470 -0.459399
C81   C     C_3   0.712596 0.973904 0.028470 -0.459399
C82   C     C_3   0.026096 0.712596 0.028470 -0.459399
C83   C     C_3   0.787404 0.526096 0.528470 -0.459399
C84   C     C_3   0.473904 0.787404 0.528470 -0.459399
C85   C     C_3   0.212596 0.473904 0.528470 -0.459399
C86   C     C_3   0.526096 0.212596 0.528470 -0.459399
C87   C     C_3   0.212192 0.935639 0.994606 -0.521846
C88   C     C_3   0.064361 0.212192 0.994606 -0.521846
C89   C     C_3   0.787808 0.064361 0.994606 -0.521846
C90   C     C_3   0.999628 0.310345 0.999668 0.114358
C91   C     C_3   0.935639 0.787808 0.994606 -0.521846
C92   C     C_3   0.712192 0.435639 0.494606 -0.521846
C93   C     C_3   0.564361 0.712192 0.494606 -0.521846
C94   C     C_3   0.287808 0.564361 0.494606 -0.521846
C95   C     C_3   0.435639 0.287808 0.494606 -0.521846
C96   C     C_3   0.214703 0.045959 0.976300 -0.373395
C97   C     C_3   0.954041 0.214703 0.976300 -0.373395
C98   C     C_3   0.785297 0.954041 0.976300 -0.373395
C99   C     C_3   0.045959 0.785297 0.976300 -0.373395
C100  C     C_3   0.714703 0.545959 0.476300 -0.373395
C101  C     C_3   0.689655 0.999628 0.999668 0.114358
C102  C     C_3   0.454041 0.714703 0.476300 -0.373395
C103  C     C_3   0.285297 0.454041 0.476300 -0.373395
C104  C     C_3   0.545959 0.285297 0.476300 -0.373395
C105  C     C_3   0.187484 0.095720 0.064969 0.110161
C106  C     C_3   0.166100 0.162154 0.070547 -0.834162
C107  C     C_3   0.904280 0.187484 0.064969 0.110162
C108  C     C_3   0.837846 0.166100 0.070547 -0.834162
C109  C     C_3   0.812515 0.904280 0.064969 0.110162
C110  C     C_3   0.833900 0.837846 0.070547 -0.834162
C111  C     C_3   0.095720 0.812515 0.064969 0.110161
C112  C     C_R   0.878570 0.997295 0.000155 0.888080
C113  C     C_3   0.000372 0.689655 0.999668 0.114358
C114  C     C_3   0.162154 0.833900 0.070547 -0.834162
C115  C     C_3   0.687484 0.595720 0.564969 0.110161
C116  C     C_3   0.666100 0.662154 0.570547 -0.834162
C117  C     C_3   0.404280 0.687484 0.564969 0.110161
C118  C     C_3   0.337846 0.666100 0.570547 -0.834163
C119  C     C_3   0.312515 0.404280 0.564969 0.110162
C120  C     C_3   0.333900 0.337846 0.570547 -0.834162
C121  C     C_3   0.595720 0.312515 0.564969 0.110161
C122  C     C_3   0.662154 0.333900 0.570547 -0.834162
C123  C     C_3   0.810344 0.500372 0.499668 0.114358
C124  C     C_3   0.499628 0.810344 0.499668 0.114358
C125  C     C_3   0.189655 0.499628 0.499668 0.114358
C126  C     C_3   0.500372 0.189655 0.499668 0.114358
C127  C     C_3   0.283578 0.933630 0.995305 -0.387633
C128  C     C_3   0.066370 0.283578 0.995305 -0.387633
C129  C     C_3   0.716422 0.066370 0.995305 -0.387633
C130  C     C_3   0.933630 0.716422 0.995305 -0.387633
C131  C     C_3   0.783578 0.433630 0.495305 -0.387633
C132  C     C_R   0.002705 0.878570 0.000155 0.888080
C133  C     C_3   0.566370 0.783578 0.495305 -0.387633
C134  C     C_3   0.216422 0.566370 0.495305 -0.387633
C135  C     C_3   0.433630 0.216422 0.495305 -0.387633
C136  C     C_3   0.286186 0.043125 0.975539 -0.403877
C137  C     C_3   0.956875 0.286186 0.975539 -0.403876
C138  C     C_3   0.713814 0.956875 0.975539 -0.403877
C139  C     C_3   0.043125 0.713814 0.975539 -0.403877
C140  C     C_3   0.786186 0.543125 0.475538 -0.403877
C141  C     C_3   0.456875 0.786186 0.475538 -0.403876
C142  C     C_3   0.213814 0.456875 0.475538 -0.403877
C143  C     C_R   0.121430 0.002705 0.000155 0.888080
C144  C     C_3   0.543125 0.213814 0.475538 -0.403877
C145  C     C_R   0.500000 1.000000 0.145941 0.309944
C146  C     C_R   1.000000 0.500000 0.145941 0.309944
C147  C     C_R   1.000000 0.500000 0.645941 0.309944
C148  C     C_R   0.500000 1.000000 0.645941 0.309944
C149  C     C_R   1.000000 0.500000 0.854255 0.309040
C150  C     C_R   0.500000 1.000000 0.854255 0.309040
C151  C     C_R   0.500000 1.000000 0.354255 0.309040
C152  C     C_R   1.000000 0.500000 0.354255 0.309040
C153  C     C_R   0.419167 0.079440 0.235310 -0.163584
C154  C     C_R   0.497295 0.621430 0.500155 0.888080
C155  C     C_R   0.920560 0.419167 0.235310 -0.163584
C156  C     C_R   0.580833 0.920560 0.235310 -0.163584
C157  C     C_R   0.079440 0.580833 0.235310 -0.163584
C158  C     C_R   0.919167 0.579440 0.735310 -0.163584
C159  C     C_R   0.420560 0.919167 0.735310 -0.163584
C160  C     C_R   0.080833 0.420560 0.735310 -0.163584
C161  C     C_R   0.579440 0.080833 0.735310 -0.163584
C162  C     C_R   0.945896 0.483668 0.869126 -0.100841
C163  C     C_R   0.516332 0.945896 0.869126 -0.100841
C164  C     C_R   0.054104 0.516332 0.869126 -0.100841
C165  C     C_R   0.378570 0.497295 0.500155 0.888080
C166  C     C_R   0.483668 0.054104 0.869126 -0.100841
C167  C     C_R   0.445896 0.983668 0.369126 -0.100841
C168  C     C_R   0.016332 0.445896 0.369126 -0.100841
C169  C     C_R   0.554104 0.016332 0.369126 -0.100841
C170  C     C_R   0.983668 0.554104 0.369126 -0.100841
C171  C     C_R   0.459735 0.038515 0.190530 0.498813
C172  C     C_R   0.961485 0.459735 0.190530 0.498813
C173  C     C_R   0.540265 0.961485 0.190530 0.498813
C174  C     C_R   0.038514 0.540265 0.190530 0.498813
C175  C     C_R   0.959735 0.538514 0.690530 0.498813
C176  C     C_R   0.502705 0.378570 0.500155 0.888080
C177  C     C_R   0.461485 0.959735 0.690530 0.498813
C178  C     C_R   0.040265 0.461485 0.690530 0.498813
C179  C     C_R   0.538514 0.040265 0.690530 0.498813
C180  C     C_R   0.945740 0.484014 0.898654 -0.223291
C181  C     C_R   0.515986 0.945740 0.898654 -0.223291
C182  C     C_R   0.054260 0.515986 0.898654 -0.223292
C183  C     C_R   0.484014 0.054260 0.898654 -0.223291
C184  C     C_R   0.445740 0.984014 0.398654 -0.223291
C185  C     C_R   0.015986 0.445740 0.398654 -0.223291
C186  C     C_R   0.554260 0.015986 0.398654 -0.223292
C187  C     C_R   0.621430 0.502705 0.500155 0.888080
C188  C     C_R   0.984014 0.554260 0.398654 -0.223291
C189  C     C_R   0.500000 1.000000 0.235148 -0.021754
C190  C     C_R   1.000000 0.500000 0.235148 -0.021754
C191  C     C_R   1.000000 0.500000 0.735148 -0.021754
C192  C     C_R   0.500000 1.000000 0.735148 -0.021754
C193  C     C_R   1.000000 0.500000 0.913620 -0.044145
C194  C     C_R   0.500000 1.000000 0.913620 -0.044145
C195  C     C_R   0.500000 1.000000 0.413619 -0.044145
C196  C     C_R   1.000000 0.500000 0.413619 -0.044145
C197  C     C_R   0.500000 1.000000 0.055497 0.873341
C198  C     C_3   0.189575 0.002922 0.000227 0.104602
C199  C     C_R   1.000000 0.500000 0.055497 0.873341
C200  C     C_R   1.000000 0.500000 0.555497 0.873341
C201  C     C_R   0.500000 1.000000 0.555497 0.873341
C202  C     C_R   0.378509 0.999977 0.999620 0.860185
C203  C     C_R   0.000022 0.378509 0.999620 0.860185
C204  C     C_R   0.621491 0.000022 0.999620 0.860184
C205  C     C_R   0.999977 0.621491 0.999620 0.860184
C206  C     C_R   0.878509 0.499977 0.499620 0.860185
C207  C     C_R   0.500023 0.878509 0.499620 0.860185
C208  C     C_R   0.121491 0.500022 0.499620 0.860184
H1    H     H_    0.888148 0.611124 0.775868 0.190984
H2    H     H_    0.908817 0.305044 0.977851 0.192783
H3    H     H_    0.997187 0.693913 0.046156 0.119378
H4    H     H_    0.806087 0.497187 0.546156 0.119378
H5    H     H_    0.502813 0.806087 0.546156 0.119378
H6    H     H_    0.193913 0.502813 0.546156 0.119378
H7    H     H_    0.497187 0.193913 0.546156 0.119378
H8    H     H_    0.193055 0.903199 0.010837 0.192269
H9    H     H_    0.096801 0.193055 0.010837 0.192269
H10   H     H_    0.806945 0.096801 0.010837 0.192269
H11   H     H_    0.903199 0.806945 0.010837 0.192269
H12   H     H_    0.693055 0.403199 0.510837 0.192269
H13   H     H_    0.694956 0.908817 0.977851 0.192783
H14   H     H_    0.596801 0.693055 0.510837 0.192269
H15   H     H_    0.306945 0.596801 0.510837 0.192269
H16   H     H_    0.403199 0.306945 0.510837 0.192269
H17   H     H_    0.298852 0.902490 0.012879 0.188433
H18   H     H_    0.097510 0.298852 0.012879 0.188433
H19   H     H_    0.701148 0.097510 0.012879 0.188433
H20   H     H_    0.902490 0.701148 0.012879 0.188433
H21   H     H_    0.798852 0.402490 0.512879 0.188433
H22   H     H_    0.597510 0.798852 0.512879 0.188433
H23   H     H_    0.201148 0.597510 0.512879 0.188433
H24   H     H_    0.091183 0.694956 0.977851 0.192783
H25   H     H_    0.402490 0.201148 0.512879 0.188433
H26   H     H_    0.196400 0.031151 0.955256 0.183600
H27   H     H_    0.968849 0.196400 0.955256 0.183600
H28   H     H_    0.803600 0.968849 0.955256 0.183600
H29   H     H_    0.031151 0.803600 0.955256 0.183600
H30   H     H_    0.696400 0.531151 0.455256 0.183600
H31   H     H_    0.468849 0.696400 0.455256 0.183600
H32   H     H_    0.303600 0.468849 0.455256 0.183600
H33   H     H_    0.531151 0.303600 0.455256 0.183600
H34   H     H_    0.199117 0.094816 0.979855 0.192267
H35   H     H_    0.805044 0.591183 0.477851 0.192783
H36   H     H_    0.905184 0.199117 0.979855 0.192267
H37   H     H_    0.800883 0.905184 0.979855 0.192267
H38   H     H_    0.094816 0.800883 0.979855 0.192267
H39   H     H_    0.699117 0.594816 0.479855 0.192267
H40   H     H_    0.405184 0.699117 0.479855 0.192267
H41   H     H_    0.300883 0.405184 0.479855 0.192267
H42   H     H_    0.594816 0.300883 0.479855 0.192267
H43   H     H_    0.233249 0.088613 0.075632 0.140185
H44   H     H_    0.152338 0.063446 0.074258 0.143181
H45   H     H_    0.119151 0.169631 0.061267 0.239849
H46   H     H_    0.408817 0.805044 0.477851 0.192783
H47   H     H_    0.163666 0.170639 0.093761 0.211054
H48   H     H_    0.199395 0.195705 0.060945 0.258580
H49   H     H_    0.911386 0.233249 0.075632 0.140185
H50   H     H_    0.936554 0.152338 0.074258 0.143181
H51   H     H_    0.830369 0.119152 0.061267 0.239849
H52   H     H_    0.829361 0.163666 0.093761 0.211054
H53   H     H_    0.804295 0.199395 0.060945 0.258580
H54   H     H_    0.766751 0.911386 0.075632 0.140185
H55   H     H_    0.847662 0.936554 0.074258 0.143181
H56   H     H_    0.880848 0.830369 0.061267 0.239849
H57   H     H_    0.194956 0.408817 0.477851 0.192783
H58   H     H_    0.836334 0.829361 0.093761 0.211054
H59   H     H_    0.800605 0.804295 0.060945 0.258580
H60   H     H_    0.088613 0.766751 0.075632 0.140185
H61   H     H_    0.063446 0.847662 0.074258 0.143181
H62   H     H_    0.169631 0.880848 0.061267 0.239849
H63   H     H_    0.170639 0.836334 0.093761 0.211054
H64   H     H_    0.195705 0.800605 0.060945 0.258580
H65   H     H_    0.733249 0.588614 0.575632 0.140185
H66   H     H_    0.652338 0.563446 0.574258 0.143181
H67   H     H_    0.619152 0.669631 0.561267 0.239849
H68   H     H_    0.591183 0.194956 0.477851 0.192783
H69   H     H_    0.663666 0.670639 0.593761 0.211054
H70   H     H_    0.699395 0.695705 0.560945 0.258580
H71   H     H_    0.411386 0.733249 0.575632 0.140185
H72   H     H_    0.436554 0.652338 0.574258 0.143181
H73   H     H_    0.330369 0.619152 0.561267 0.239849
H74   H     H_    0.329361 0.663666 0.593761 0.211054
H75   H     H_    0.304295 0.699395 0.560945 0.258580
H76   H     H_    0.266751 0.411386 0.575632 0.140185
H77   H     H_    0.347662 0.436554 0.574258 0.143181
H78   H     H_    0.380848 0.330369 0.561267 0.239849
H79   H     H_    0.301997 0.024957 0.954613 0.164778
H80   H     H_    0.336334 0.329361 0.593761 0.211054
H81   H     H_    0.300605 0.304295 0.560945 0.258580
H82   H     H_    0.588614 0.266751 0.575632 0.140185
H83   H     H_    0.563446 0.347662 0.574258 0.143181
H84   H     H_    0.669631 0.380848 0.561267 0.239849
H85   H     H_    0.670639 0.336334 0.593761 0.211054
H86   H     H_    0.695705 0.300605 0.560945 0.258580
H87   H     H_    0.975043 0.301997 0.954613 0.164778
H88   H     H_    0.698003 0.975043 0.954613 0.164778
H89   H     H_    0.388875 0.888148 0.775868 0.190984
H90   H     H_    0.024957 0.698003 0.954613 0.164778
H91   H     H_    0.801996 0.524957 0.454613 0.164778
H92   H     H_    0.475043 0.801996 0.454613 0.164778
H93   H     H_    0.198003 0.475043 0.454613 0.164778
H94   H     H_    0.524957 0.198003 0.454613 0.164778
H95   H     H_    0.195403 0.919236 0.973531 0.201334
H96   H     H_    0.080764 0.195403 0.973531 0.201334
H97   H     H_    0.804596 0.080764 0.973531 0.201334
H98   H     H_    0.919236 0.804596 0.973531 0.201334
H99   H     H_    0.695403 0.419236 0.473531 0.201334
H100  H     H_    0.111852 0.388875 0.775868 0.190984
H101  H     H_    0.580764 0.695403 0.473531 0.201334
H102  H     H_    0.304596 0.580764 0.473531 0.201334
H103  H     H_    0.419236 0.304596 0.473531 0.201334
H104  H     H_    0.301152 0.913475 0.975060 0.190201
H105  H     H_    0.086524 0.301152 0.975060 0.190201
H106  H     H_    0.698848 0.086524 0.975060 0.190201
H107  H     H_    0.913475 0.698848 0.975060 0.190201
H108  H     H_    0.801152 0.413475 0.475060 0.190201
H109  H     H_    0.586524 0.801152 0.475060 0.190201
H110  H     H_    0.198848 0.586524 0.475060 0.190201
H111  H     H_    0.611124 0.111852 0.775868 0.190984
H112  H     H_    0.413475 0.198848 0.475060 0.190201
H113  H     H_    0.904024 0.470616 0.857760 0.147312
H114  H     H_    0.529384 0.904024 0.857760 0.147312
H115  H     H_    0.095976 0.529384 0.857760 0.147311
H116  H     H_    0.470616 0.095976 0.857760 0.147312
H117  H     H_    0.404024 0.970616 0.357760 0.147312
H118  H     H_    0.029384 0.404024 0.357760 0.147312
H119  H     H_    0.595976 0.029384 0.357760 0.147311
H120  H     H_    0.970616 0.595976 0.357760 0.147312
H121  H     H_    0.903444 0.471174 0.909747 0.161830
H122  H     H_    0.388148 0.111124 0.275868 0.190984
H123  H     H_    0.528826 0.903444 0.909747 0.161830
H124  H     H_    0.096556 0.528826 0.909747 0.161830
H125  H     H_    0.471174 0.096556 0.909747 0.161830
H126  H     H_    0.403444 0.971174 0.409747 0.161830
H127  H     H_    0.028826 0.403444 0.409747 0.161830
H128  H     H_    0.596556 0.028826 0.409747 0.161830
H129  H     H_    0.971174 0.596556 0.409747 0.161830
H130  H     H_    0.387482 0.110450 0.224325 0.190400
H131  H     H_    0.889549 0.387482 0.224325 0.190400
H132  H     H_    0.612518 0.889549 0.224325 0.190400
H133  H     H_    0.888876 0.388148 0.275868 0.190984
H134  H     H_    0.110450 0.612518 0.224325 0.190400
H135  H     H_    0.887482 0.610451 0.724325 0.190400
H136  H     H_    0.389549 0.887482 0.724325 0.190400
H137  H     H_    0.112518 0.389549 0.724325 0.190400
H138  H     H_    0.610451 0.112518 0.724325 0.190400
H139  H     H_    0.471694 0.903702 0.142438 0.146926
H140  H     H_    0.096298 0.471694 0.142438 0.146926
H141  H     H_    0.528306 0.096298 0.142438 0.146926
H142  H     H_    0.903702 0.528306 0.142438 0.146926
H143  H     H_    0.971694 0.403702 0.642438 0.146926
H144  H     H_    0.611852 0.888876 0.275868 0.190984
H145  H     H_    0.596298 0.971694 0.642438 0.146926
H146  H     H_    0.028306 0.596298 0.642438 0.146926
H147  H     H_    0.403702 0.028306 0.642438 0.146926
H148  H     H_    0.472251 0.903125 0.090454 0.161897
H149  H     H_    0.096875 0.472251 0.090454 0.161897
H150  H     H_    0.527749 0.096875 0.090454 0.161897
H151  H     H_    0.903125 0.527749 0.090454 0.161897
H152  H     H_    0.972251 0.403125 0.590454 0.161897
H153  H     H_    0.596875 0.972251 0.590454 0.161897
H154  H     H_    0.027749 0.596875 0.590454 0.161897
H155  H     H_    0.111124 0.611852 0.275868 0.190984
H156  H     H_    0.403125 0.027749 0.590454 0.161897
H157  H     H_    0.200746 0.990833 0.045838 0.051807
H158  H     H_    0.009167 0.200746 0.045838 0.051807
H159  H     H_    0.799254 0.009167 0.045838 0.051807
H160  H     H_    0.990833 0.799254 0.045838 0.051807
H161  H     H_    0.700746 0.490833 0.545838 0.051807
H162  H     H_    0.509167 0.700746 0.545838 0.051807
H163  H     H_    0.299254 0.509167 0.545838 0.051807
H164  H     H_    0.490833 0.299254 0.545838 0.051807
H165  H     H_    0.305179 0.074363 0.031640 0.206658
H166  H     H_    0.305044 0.091183 0.977851 0.192783
H167  H     H_    0.925637 0.305179 0.031640 0.206658
H168  H     H_    0.694821 0.925637 0.031640 0.206658
H169  H     H_    0.074363 0.694821 0.031640 0.206658
H170  H     H_    0.805179 0.574363 0.531640 0.206658
H171  H     H_    0.425637 0.805179 0.531640 0.206658
H172  H     H_    0.194821 0.425637 0.531640 0.206658
H173  H     H_    0.574363 0.194821 0.531640 0.206658
H174  H     H_    0.306087 0.997187 0.046156 0.119378
H175  H     H_    0.002813 0.306087 0.046156 0.119378
H176  H     H_    0.693913 0.002813 0.046156 0.119378
N1    N     N_R   0.500000 1.000000 0.176337 -0.355251
N2    N     N_R   1.000000 0.500000 0.176337 -0.355251
N3    N     N_R   1.000000 0.500000 0.676337 -0.355251
N4    N     N_R   0.500000 1.000000 0.676337 -0.355251
N5    N     N_R   1.000000 0.500000 0.823858 -0.355658
N6    N     N_R   0.500000 1.000000 0.823858 -0.355658
N7    N     N_R   0.500000 1.000000 0.323858 -0.355658
N8    N     N_R   1.000000 0.500000 0.323858 -0.355658
O1    O     O_R   0.999860 0.092630 0.023790 -0.621817
O2    O     O_R   0.907310 0.999880 0.976450 -0.637083
O3    O     O_R   0.000120 0.907310 0.976450 -0.637083
O4    O     O_R   0.092690 0.000120 0.976450 -0.637083
O5    O     O_R   0.499880 0.592690 0.476450 -0.637083
O6    O     O_R   0.407310 0.499880 0.476450 -0.637083
O7    O     O_R   0.500120 0.407310 0.476450 -0.637083
O8    O     O_R   0.592690 0.500120 0.476450 -0.637083
O9    O     O_2   0.076082 0.420828 0.824279 -0.564513
O10   O     O_2   0.579171 0.076082 0.824279 -0.564513
O11   O     O_2   0.923917 0.579171 0.824279 -0.564513
O12   O     O_R   0.907370 0.999860 0.023790 -0.621817
O13   O     O_2   0.420828 0.923918 0.824279 -0.564513
O14   O     O_2   0.576082 0.920829 0.324279 -0.564513
O15   O     O_2   0.079171 0.576082 0.324279 -0.564513
O16   O     O_2   0.423918 0.079171 0.324279 -0.564513
O17   O     O_2   0.920829 0.423918 0.324279 -0.564513
O18   O     O_2   0.419888 0.075090 0.175913 -0.567944
O19   O     O_2   0.924910 0.419888 0.175913 -0.567944
O20   O     O_2   0.580112 0.924910 0.175913 -0.567944
O21   O     O_2   0.075090 0.580112 0.175913 -0.567944
O22   O     O_2   0.919888 0.575090 0.675913 -0.567944
O23   O     O_R   0.000140 0.907370 0.023790 -0.621817
O24   O     O_2   0.424910 0.919888 0.675913 -0.567944
O25   O     O_2   0.080112 0.424910 0.675913 -0.567944
O26   O     O_2   0.575090 0.080112 0.675913 -0.567944
O27   O     O_R   0.499860 0.052350 0.042020 -0.621505
O28   O     O_R   0.947650 0.499860 0.042020 -0.621505
O29   O     O_R   0.500140 0.947650 0.042020 -0.621505
O30   O     O_R   0.052350 0.500140 0.042020 -0.621505
O31   O     O_R   0.999860 0.552350 0.542020 -0.621505
O32   O     O_R   0.447650 0.999860 0.542020 -0.621505
O33   O     O_R   0.000140 0.447650 0.542020 -0.621505
O34   O     O_R   0.092630 0.000140 0.023790 -0.621817
O35   O     O_R   0.552350 0.000140 0.542020 -0.621505
O36   O     O_R   0.407270 0.052320 0.000100 -0.628062
O37   O     O_R   0.947680 0.407270 0.000100 -0.628062
O38   O     O_R   0.592730 0.947680 0.000100 -0.628062
O39   O     O_R   0.052320 0.592730 0.000100 -0.628062
O40   O     O_R   0.907270 0.552320 0.500100 -0.628062
O41   O     O_R   0.447680 0.907270 0.500100 -0.628062
O42   O     O_R   0.092730 0.447680 0.500100 -0.628062
O43   O     O_R   0.552320 0.092730 0.500100 -0.628062
O44   O     O_R   0.407290 0.947770 0.000130 -0.629798
O45   O     O_R   0.499860 0.592630 0.523790 -0.621817
O46   O     O_R   0.052230 0.407290 0.000130 -0.629798
O47   O     O_R   0.592710 0.052230 0.000130 -0.629798
O48   O     O_R   0.947770 0.592710 0.000130 -0.629798
O49   O     O_R   0.907290 0.447770 0.500130 -0.629798
O50   O     O_R   0.552230 0.907290 0.500130 -0.629798
O51   O     O_R   0.092710 0.552230 0.500130 -0.629798
O52   O     O_R   0.447770 0.092710 0.500130 -0.629798
O53   O     O_R   0.499890 0.052320 0.958180 -0.623343
O54   O     O_R   0.947680 0.499890 0.958180 -0.623343
O55   O     O_R   0.500110 0.947680 0.958180 -0.623343
O56   O     O_R   0.407370 0.499860 0.523790 -0.621817
O57   O     O_R   0.052320 0.500110 0.958180 -0.623343
O58   O     O_R   0.999890 0.552320 0.458180 -0.623343
O59   O     O_R   0.447680 0.999890 0.458180 -0.623343
O60   O     O_R   0.000110 0.447680 0.458180 -0.623343
O61   O     O_R   0.552320 0.000110 0.458180 -0.623343
O62   O     O_3   0.192596 0.086288 0.035399 -0.619289
O63   O     O_3   0.913712 0.192596 0.035399 -0.619289
O64   O     O_3   0.807404 0.913712 0.035399 -0.619289
O65   O     O_3   0.086288 0.807404 0.035399 -0.619289
O66   O     O_3   0.692596 0.586288 0.535399 -0.619289
O67   O     O_R   0.500140 0.407370 0.523790 -0.621817
O68   O     O_3   0.413712 0.692596 0.535399 -0.619289
O69   O     O_3   0.307404 0.413712 0.535399 -0.619289
O70   O     O_3   0.586288 0.307404 0.535399 -0.619289
O71   O     O_R   0.592630 0.500140 0.523790 -0.621817
O72   O     O_R   0.999880 0.092690 0.976450 -0.637083
Zn1   Zn    Zn3+2 1.000000 1.000000 0.031720 0.939892
Zn2   Zn    Zn3+2 0.430130 0.999870 0.500100 0.944263
Zn3   Zn    Zn3+2 0.000130 0.430130 0.500100 0.944263
Zn4   Zn    Zn3+2 0.569870 0.000130 0.500100 0.944263
Zn5   Zn    Zn3+2 0.500000 0.500000 0.531720 0.939892
Zn6   Zn    Zn3+2 0.000000 0.000000 0.968510 0.939308
Zn7   Zn    Zn3+2 0.500000 0.500000 0.468510 0.939308
Zn8   Zn    Zn3+2 0.499870 0.069870 0.000100 0.944263
Zn9   Zn    Zn3+2 0.930130 0.499870 0.000100 0.944263
Zn10  Zn    Zn3+2 0.500130 0.930130 0.000100 0.944263
Zn11  Zn    Zn3+2 0.069870 0.500130 0.000100 0.944263
Zn12  Zn    Zn3+2 0.999870 0.569870 0.500100 0.944263

loop_
_geom_bond_atom_site_label_1
_geom_bond_atom_site_label_2
_ccdc_geom_bond_type
C154  O45   A    
C31   C42   A    
C204  O47   A    
C31   O15   S    
C73   C82   S    
C8    C145  A    
C32   O16   S    
C142  H57   S    
C176  O67   A    
C74   C83   S    
C114  H63   S    
C6    C196  S    
C68   C176  S    
C62   C190  A    
C8    H139  S    
C161  H138  S    
C4    C194  S    
C150  C163  A    
C124  C133  S    
C98   C138  S    
C107  H50   S    
C57   C76   S    
C118  H74   S    
C13   C112  S    
C135  H112  S    
C72   O64   S    
C78   H174  S    
O47   Zn8   S    
C89   C129  S    
C88   H9    S    
C73   H160  S    
C66   C159  A    
C79   C127  S    
C36   C53   A    
C158  H135  S    
O60   Zn3   S    
C141  H92   S    
C38   C55   A    
C143  O34   A    
C64   C157  A    
C17   C48   A    
C102  C141  S    
C22   H153  S    
C103  C142  S    
C130  H20   S    
C206  O49   A    
C77   O70   S    
C65   C175  A    
C61   C189  A    
C33   N8    A    
C120  H81   S    
C27   O10   S    
O55   Zn10  S    
C110  H59   S    
C63   C173  A    
C83   H170  S    
C52   C158  A    
C200  O31   A    
C11   C20   A    
C53   C159  A    
C68   C95   S    
C104  H42   S    
C121  H83   S    
C137  H87   S    
C122  H84   S    
C98   H37   S    
C109  O64   S    
C129  H106  S    
C25   H156  S    
C179  N4    A    
C152  C170  A    
C115  H65   S    
C39   C56   A    
C101  C138  S    
C3    O52   A    
C122  H85   S    
C99   H38   S    
C181  C194  A    
C41   C59   A    
C46   C154  S    
C92   H99   S    
C208  O51   A    
C143  O4    A    
C142  H93   S    
C36   C44   A    
C64   C174  A    
C2    C71   S    
C184  C195  A    
C71   H158  S    
O31   Zn12  S    
C11   H142  S    
C85   H172  S    
C16   C25   A    
C3    O43   A    
O2    Zn6   S    
O72   Zn6   S    
C19   C48   A    
C21   H152  S    
O39   Zn11  S    
C65   C158  A    
C169  C186  A    
O8    Zn7   S    
C13   C72   S    
C203  O37   A    
C77   H164  S    
C188  H129  S    
C8    C17   A    
C115  H66   S    
C137  H2    S    
C144  H68   S    
C116  H70   S    
C29   N6    A    
C72   H159  S    
C133  H109  S    
O61   Zn4   S    
C44   C192  A    
C86   H173  S    
O34   Zn1   S    
C151  C167  A    
C12   C21   A    
C170  H120  S    
C56   H122  S    
C205  O48   A    
C98   H28   S    
C128  H18   S    
C100  H39   S    
C41   C45   A    
C149  C162  A    
C74   O66   S    
C87   C198  S    
C109  H54   S    
C74   H161  S    
C76   C85   S    
C18   C49   A    
C18   H149  S    
C97   H27   S    
C26   O9    S    
C70   H157  S    
C86   C126  S    
C87   H95   S    
O44   Zn10  S    
C88   H96   S    
C205  O39   A    
C75   H162  S    
C81   C101  S    
C76   O69   S    
C178  O25   S    
C206  O40   A    
C79   C136  S    
C102  H31   S    
C148  N4    S    
C141  H46   S    
C149  N5    S    
C105  O62   S    
O6    Zn7   S    
C93   C133  S    
C147  N3    S    
C177  N4    A    
C75   C84   S    
C165  O6    A    
C15   H146  S    
C7    O59   A    
C115  C116  S    
C150  C166  A    
C58   H133  S    
C9    C146  A    
O71   Zn5   S    
C183  C194  A    
C62   C155  A    
C5    O57   A    
C57   C165  S    
C65   C191  A    
C176  O7    A    
C103  H32   S    
C66   C192  A    
C107  C108  S    
C113  C139  S    
C16   H147  S    
C100  H30   S    
C61   C171  A    
C156  H132  S    
O37   Zn9   S    
C75   O68   S    
C162  C180  A    
O4    Zn6   S    
C39   C45   A    
C70   C198  S    
C26   N5    A    
C154  O5    A    
C174  O21   S    
C99   C139  S    
C168  H118  S    
C97   C137  S    
C46   C75   S    
C187  O8    A    
C68   C77   S    
C66   C177  A    
C33   C40   A    
C113  C130  S    
C103  H41   S    
C106  H48   S    
C184  H126  S    
C60   C157  A    
C55   C161  A    
C139  H90   S    
C30   N7    A    
C172  O19   S    
C197  O27   A    
C113  C205  S    
C20   C49   A    
C167  C184  A    
C151  N7    S    
C169  H119  S    
C131  H108  S    
C78   H165  S    
C96   C198  S    
C149  C164  A    
C181  H123  S    
C81   H168  S    
C95   H103  S    
C104  H33   S    
C90   C203  S    
O29   Zn10  S    
C5    O54   A    
C57   C94   S    
C124  C141  S    
C35   C100  S    
C115  O66   S    
C84   H5    S    
O7    Zn7   S    
C49   C199  S    
C120  H80   S    
O67   Zn5   S    
C34   C43   A    
C72   C81   S    
C105  H44   S    
C67   C178  A    
C114  H64   S    
C59   C156  A    
C11   C146  A    
C119  O69   S    
C82   H169  S    
O23   Zn1   S    
C107  H49   S    
C14   C22   A    
C47   C190  A    
C167  H117  S    
C118  H75   S    
C117  C118  S    
C97   H36   S    
C73   O65   S    
C150  N6    S    
C126  C144  S    
C166  H116  S    
C172  N2    A    
C28   N5    A    
C51   C201  S    
C9    C18   A    
C170  C188  A    
C108  H51   S    
C23   H154  S    
C199  O30   A    
C180  C193  A    
C112  O12   A    
C101  C129  S    
C125  C134  S    
C107  O63   S    
C207  O41   A    
C35   C74   S    
C201  O35   A    
C202  O36   A    
C106  H45   S    
O5    Zn7   S    
C155  H131  S    
C3    C126  S    
C96   C136  S    
C127  H104  S    
C60   H155  S    
C121  H82   S    
C12   C147  A    
C63   C156  A    
C117  H72   S    
C24   C73   S    
C163  C181  A    
C27   C38   A    
C24   C99   S    
C14   H145  S    
C32   C39   A    
C28   O11   S    
C89   H10   S    
C27   N6    A    
O52   Zn2   S    
C4    O53   A    
C2    C97   S    
O49   Zn3   S    
C93   H14   S    
C122  H86   S    
C80   H175  S    
C83   H4    S    
C119  H77   S    
C35   C92   S    
C131  H21   S    
C164  H115  S    
C28   C34   A    
C152  N8    S    
C183  H125  S    
C114  H62   S    
C69   C192  A    
C152  C168  A    
C140  H91   S    
O51   Zn12  S    
C57   C103  S    
C17   H148  S    
C146  N2    S    
C85   H6    S    
C40   C58   A    
C82   C113  S    
C118  H73   S    
C23   C50   A    
C93   H101  S    
O43   Zn4   S    
C123  C206  S    
C55   H111  S    
O41   Zn2   S    
C174  N2    A    
C116  H67   S    
C120  H78   S    
C38   C44   A    
O53   Zn8   S    
C89   H97   S    
O27   Zn8   S    
C24   C132  S    
C186  H128  S    
C10   C19   A    
C79   C202  S    
C200  O33   A    
C111  O65   S    
C6    O60   A    
C95   C135  S    
C108  H53   S    
C182  C193  A    
C132  O3    A    
C121  C122  S    
C126  C135  S    
C124  C207  S    
C52   H1    S    
C33   O17   S    
C178  N3    A    
C111  H61   S    
C185  C196  A    
C7    C195  S    
O54   Zn9   S    
O56   Zn5   S    
C110  H58   S    
C165  O56   A    
C202  O44   A    
C5    C193  S    
C180  H121  S    
C144  H94   S    
O57   Zn11  S    
C143  C198  S    
C123  C131  S    
C166  C183  A    
C68   C104  S    
C54   H100  S    
C56   C153  A    
C175  O22   S    
C151  C169  A    
C119  C120  S    
C26   C37   A    
C119  H76   S    
C207  O50   A    
C90   C137  S    
C105  C106  S    
C34   C52   A    
C160  H137  S    
C140  H35   S    
C70   O62   S    
C109  C110  S    
C69   C179  A    
C15   C147  A    
O35   Zn4   S    
C4    O55   A    
C157  H134  S    
C121  O70   S    
C182  H124  S    
C9    H140  S    
C111  C114  S    
C21   C50   A    
C153  H130  S    
C132  O23   A    
C164  C182  A    
C54   C160  A    
C99   H29   S    
C112  O2    A    
C117  H71   S    
C179  O26   S    
C35   C187  S    
C59   H144  S    
C127  H17   S    
C96   H26   S    
C159  H136  S    
C83   C123  S    
O36   Zn8   S    
C145  N1    S    
O30   Zn11  S    
C128  H105  S    
O33   Zn3   S    
O28   Zn9   S    
C7    O61   A    
C40   C47   A    
C177  O24   S    
C37   C43   A    
O50   Zn4   S    
C70   C78   S    
C171  O18   S    
C85   C125  S    
C53   H89   S    
C134  H110  S    
C87   C127  S    
C91   C130  S    
C46   C102  S    
C29   C36   A    
C201  O32   A    
C116  H69   S    
C69   C161  A    
C111  H60   S    
C81   H176  S    
C67   C191  A    
C199  O28   A    
O3    Zn6   S    
C14   C148  A    
C171  N1    A    
C1    O1    A    
C1    C2    S    
C13   C98   S    
C92   H12   S    
C86   H7    S    
C100  C140  S    
C133  H22   S    
C175  N3    A    
C31   N8    A    
C208  O42   A    
C32   N7    A    
C104  C144  S    
C2    C88   S    
C139  H24   S    
O38   Zn10  S    
C109  H55   S    
C135  H25   S    
C185  H127  S    
C110  H56   S    
C15   C23   A    
C43   C191  A    
O46   Zn11  S    
C173  O20   S    
C91   H11   S    
C129  H19   S    
C71   C80   S    
C29   O13   S    
O32   Zn2   S    
C186  C195  A    
C92   C131  S    
C102  H40   S    
C105  H43   S    
O59   Zn2   S    
C138  H88   S    
C42   C60   A    
C20   H151  S    
C50   C200  S    
C78   C79   S    
O58   Zn12  S    
C138  H13   S    
C63   C189  A    
C123  C140  S    
O1    Zn1   S    
C25   C51   A    
C125  C142  S    
C87   H8    S    
C204  O38   A    
C30   C41   A    
C134  H23   S    
C84   H171  S    
C71   O63   S    
C96   H34   S    
C67   C160  A    
C37   C54   A    
C162  H113  S    
C45   C189  A    
O48   Zn9   S    
C77   C86   S    
C94   H15   S    
C19   H150  S    
C197  O29   A    
C108  H52   S    
C24   C91   S    
C187  O71   A    
C76   H163  S    
C82   H3    S    
C1    O72   A    
C130  H107  S    
C168  C185  A    
C94   H102  S    
C163  H114  S    
C13   C89   S    
C203  O46   A    
C106  H47   S    
C101  C204  S    
C61   C153  A    
C64   C190  A    
C12   H143  S    
C173  N1    A    
C84   C124  S    
C117  O68   S    
C62   C172  A    
C125  C208  S    
C95   H16   S    
C48   C197  S    
C16   C148  A    
C80   H167  S    
C88   C128  S    
C6    O58   A    
O12   Zn1   S    
C136  H79   S    
C46   C93   S    
C94   C134  S    
O42   Zn3   S    
C42   C47   A    
C80   C90   S    
C30   O14   S    
C58   C155  A    
C10   C145  A    
C136  H166  S    
C91   H98   S    
C188  C196  A    
O40   Zn12  S    
C90   C128  S    
O45   Zn5   S    
C10   H141  S    
C22   C51   A    
