data_mof_unit_19573.cif
_audit_creation_date              2012-10-26T19:45:13-0400
_audit_creation_method            fapswitch 2.2
_symmetry_space_group_name_H-M    P1
_symmetry_Int_Tables_number       1
_space_group_crystal_system       triclinic
_cell_length_a                    9.526054
_cell_length_b                    10.817611
_cell_length_c                    13.908539
_cell_angle_alpha                 90.274817
_cell_angle_beta                  84.871392
_cell_angle_gamma                 90.290012
_cell_volume                      1427.49322068

loop_
_atom_site_label
_atom_site_type_symbol
_atom_type_description
_atom_site_fract_x
_atom_site_fract_y
_atom_site_fract_z
_atom_type_partial_charge
C1    C     C_R   0.500260 0.737904 0.499379 0.542684
C2    C     C_R   0.932082 0.421745 0.441092 -0.046675
C3    C     C_1   0.536758 0.502073 0.214307 -0.034676
C4    C     C_1   0.463230 0.497952 0.785702 -0.028910
C5    C     C_2   0.558492 0.507141 0.023826 0.021599
C6    C     C_2   0.441478 0.492972 0.976193 0.023348
C7    C     C_1   0.452062 0.495773 0.872303 -0.038453
C8    C     C_1   0.547914 0.504292 0.127711 -0.040588
C9    C     C_R   0.625806 0.936636 0.474456 -0.151313
C10   C     C_R   0.373092 0.063444 0.519952 -0.140947
C11   C     C_R   0.625684 0.064520 0.475168 -0.145446
C12   C     C_R   0.499748 0.262113 0.499423 0.545434
C13   C     C_R   0.373408 0.935549 0.520018 -0.144849
C14   C     C_3   0.881572 0.776417 0.625278 -0.004441
C15   C     C_3   0.933012 0.808012 0.723677 -0.274203
C16   C     C_3   0.984917 0.941564 0.726860 -0.480940
C17   C     C_3   0.106730 0.270058 0.313670 -0.011565
C18   C     C_3   0.049656 0.148676 0.359067 -0.280360
C19   C     C_3   0.964676 0.076121 0.289793 -0.483796
C20   C     C_3   0.297389 0.473412 0.028635 -0.389335
C21   C     C_3   0.702577 0.526751 0.971397 -0.385735
C22   C     C_R   0.499437 0.128286 0.498199 0.024935
C23   C     C_R   0.500017 0.871762 0.498045 0.022180
C24   C     C_R   0.477223 0.499848 0.682893 0.547731
C25   C     C_R   0.522776 0.500147 0.317109 0.546407
C26   C     C_R   0.917886 0.579314 0.559097 0.376117
C27   C     C_R   0.083410 0.421293 0.439541 0.378485
C28   C     C_R   0.067563 0.576789 0.559762 -0.032967
Cu1   Cu    Cu3+1 0.359340 0.499980 0.500000 0.990833
Cu2   Cu    Cu3+1 0.640660 0.500020 0.500000 0.984227
H1    H     H_    0.119933 0.635613 0.608440 0.116209
H2    H     H_    0.020000 0.745457 0.739367 0.154854
H3    H     H_    0.075344 0.956208 0.671874 0.141841
H4    H     H_    0.019967 0.962160 0.799275 0.150011
H5    H     H_    0.898809 0.006206 0.713002 0.150994
H6    H     H_    0.189645 0.245694 0.255464 0.151935
H7    H     H_    0.027536 0.322249 0.276231 0.102460
H8    H     H_    0.139509 0.091269 0.378061 0.169017
H9    H     H_    0.981896 0.167152 0.426659 0.146656
H10   H     H_    0.871601 0.130367 0.272367 0.149440
H11   H     H_    0.927176 0.988027 0.324045 0.143727
H12   H     H_    0.876063 0.359541 0.397134 0.116225
H13   H     H_    0.031097 0.054537 0.222114 0.150174
H14   H     H_    0.215362 0.463948 0.977027 0.126262
H15   H     H_    0.296667 0.387817 0.072477 0.128873
H16   H     H_    0.269631 0.553505 0.076745 0.136189
H17   H     H_    0.784597 0.536204 0.023012 0.124399
H18   H     H_    0.730359 0.446685 0.923265 0.138923
H19   H     H_    0.703279 0.612376 0.927592 0.137007
H20   H     H_    0.723930 0.888757 0.455086 0.116159
H21   H     H_    0.274571 0.111330 0.538039 0.132096
H22   H     H_    0.723904 0.113330 0.457059 0.123027
H23   H     H_    0.275019 0.886821 0.538147 0.117345
H24   H     H_    0.789305 0.835748 0.615617 0.162465
H25   H     H_    0.963055 0.800949 0.565591 0.089990
H26   H     H_    0.845025 0.794637 0.780833 0.170594
N1    N     N_R   0.147930 0.499970 0.499980 -0.240601
N2    N     N_R   0.852070 0.500030 0.500020 -0.241468
O1    O     O_R   0.381260 0.680340 0.500000 -0.522151
O2    O     O_3   0.171836 0.342425 0.382123 -0.525228
O3    O     O_R   0.618740 0.319660 0.500000 -0.524648
O4    O     O_R   0.618830 0.680370 0.500010 -0.475902
O5    O     O_R   0.381170 0.319630 0.499990 -0.456309
O6    O     O_R   0.364420 0.499960 0.637840 -0.513872
O7    O     O_R   0.635580 0.500040 0.362160 -0.514340
O8    O     O_R   0.601990 0.499990 0.637850 -0.441455
O9    O     O_R   0.398010 0.500010 0.362150 -0.448588
O10   O     O_3   0.835028 0.651790 0.624146 -0.531094

loop_
_geom_bond_atom_site_label_1
_geom_bond_atom_site_label_2
_ccdc_geom_bond_type
C5    C8    S    
C18   H9    S    
C2    N2    A    
C6    C7    S    
C17   H6    S    
C16   H3    S    
C6    C20   S    
Cu2   O4    S    
C16   H5    S    
C11   C22   A    
C26   C28   A    
C20   H15   S    
C25   O9    A    
C24   O8    A    
C21   H18   S    
C26   O10   S    
C1    O4    A    
C16   H4    S    
C21   H19   S    
C14   H25   S    
C18   H8    S    
Cu1   O6    S    
C25   O7    A    
C15   H2    S    
C24   O6    A    
Cu2   O8    S    
C28   N1    A    
C10   C22   A    
C12   O3    A    
C9    C11   A    
Cu1   Cu2   S    
C2    H12   S    
C4    C7    T    
C10   H21   S    
Cu2   N2    S    
Cu1   O5    S    
C14   H24   S    
C19   H13   S    
C10   C13   A    
C1    C23   S    
C13   H23   S    
C27   O2    S    
C1    O1    A    
C2    C27   A    
C5    C6    D    
C4    C24   S    
C15   H26   S    
C3    C8    T    
Cu2   O7    S    
C19   H10   S    
C17   O2    S    
C15   C16   S    
C12   C22   S    
C3    C25   S    
C5    C21   S    
C13   C23   A    
C17   C18   S    
C18   C19   S    
C27   N1    A    
Cu2   O3    S    
C12   O5    A    
C14   O10   S    
C14   C15   S    
C9    C23   A    
C17   H7    S    
C11   H22   S    
C20   H14   S    
Cu1   O9    S    
C26   N2    A    
C28   H1    S    
C20   H16   S    
C9    H20   S    
C19   H11   S    
Cu1   N1    S    
C21   H17   S    
Cu1   O1    S    
