data_mof_unit_26597.cif
_audit_creation_date              2013-03-05T15:39:52-0500
_audit_creation_method            fapswitch 2.2
_symmetry_space_group_name_H-M    P1
_symmetry_Int_Tables_number       1
_space_group_crystal_system       triclinic
_cell_length_a                    8.194819
_cell_length_b                    15.172687
_cell_length_c                    19.344811
_cell_angle_alpha                 97.522224
_cell_angle_beta                  94.808065
_cell_angle_gamma                 98.832616
_cell_volume                      2343.01095062

loop_
_atom_site_label
_atom_site_type_symbol
_atom_site_description
_atom_site_fract_x
_atom_site_fract_y
_atom_site_fract_z
_atom_type_partial_charge
P1    P     P_3+3 0.028530 0.430100 0.340790 0.553545
O1    O     O_2   0.860810 0.457220 0.330270 -0.380419
O2    O     O_3   0.115570 0.454630 0.416610 -0.330417
O3    O     O_3   0.655480 0.619980 0.374380 -0.399193
O4    O     O_2   0.763547 0.567019 0.252273 -0.391535
O5    O     O_3   0.967894 0.313666 0.316286 -0.501329
O6    O     O_3   0.673497 0.727006 0.266361 -0.510812
H1    H     H_    0.725934 0.785803 0.370468 0.158295
C1    C     C_3   0.643853 0.880107 0.307843 -0.956017
H2    H     H_    0.775035 0.913012 0.310298 0.308467
H3    H     H_    0.578816 0.880174 0.255128 0.271139
P2    P     P_3+3 0.683360 0.705380 0.556640 0.467690
P3    P     P_3+3 0.118770 0.781504 0.414216 0.484020
O7    O     O_2   0.857830 0.719490 0.535920 -0.362314
O8    O     O_3   0.080900 0.665060 0.409740 -0.381024
O9    O     O_2   0.987912 0.820097 0.456891 -0.379867
O10   O     O_3   0.714192 0.732174 0.648076 -0.560335
O11   O     O_3   0.074121 0.804592 0.328935 -0.469135
C2    C     C_3   0.184000 0.767895 0.285504 0.245407
H4    H     H_    0.228105 0.708065 0.303524 -0.008559
H5    H     H_    0.292954 0.820450 0.283762 0.087552
C3    C     C_3   0.098033 0.735752 0.211503 0.169981
H6    H     H_    0.977887 0.691690 0.213370 0.144583
C4    C     C_3   0.256121 0.727760 0.624804 0.431448
H7    H     H_    0.368916 0.703625 0.607728 0.084194
H8    H     H_    0.156017 0.713213 0.580591 0.120514
C5    C     C_3   0.294663 0.829204 0.647865 -0.950854
H9    H     H_    0.402312 0.846137 0.688891 0.273385
H10   H     H_    0.324516 0.864530 0.602952 0.219563
H11   H     H_    0.185164 0.853342 0.669260 0.270241
Ba1   Ba    Ba6+2 0.852120 0.544010 0.466690 1.606675
C6    C     C_3   0.088388 0.273656 0.281463 0.188739
H12   H     H_    0.174435 0.253361 0.321215 0.179552
H13   H     H_    0.159442 0.318685 0.250014 0.042422
C7    C     C_3   0.999830 0.189289 0.232102 0.180051
H14   H     H_    0.920672 0.144964 0.261411 0.148044
H15   H     H_    0.917820 0.209026 0.190220 0.151575
C8    C     C_3   0.743459 0.656705 0.678440 0.339837
H16   H     H_    0.858609 0.635525 0.661496 0.098051
H17   H     H_    0.637825 0.600153 0.664293 0.134156
C9    C     C_3   0.763923 0.683012 0.757649 -0.791843
H18   H     H_    0.870095 0.739051 0.773334 0.281901
H19   H     H_    0.787330 0.625018 0.783951 0.225828
H20   H     H_    0.649053 0.705159 0.775132 0.267927
P4    P     P_3+3 0.161190 0.569970 0.659220 0.490491
O12   O     O_2   0.328890 0.542810 0.669780 -0.366841
O13   O     O_3   0.074140 0.545440 0.583400 -0.410034
O14   O     O_3   0.534240 0.380100 0.625630 -0.417436
O15   O     O_3   0.206213 0.687231 0.682104 -0.535931
P5    P     P_3+3 0.068817 0.218829 0.595642 0.534408
O16   O     O_3   0.605420 0.392640 0.463580 -0.404315
O17   O     O_3   0.108810 0.335010 0.590270 -0.353955
O18   O     O_2   0.199802 0.176221 0.555432 -0.345182
O19   O     O_3   0.114279 0.203640 0.683082 -0.537340
Ba2   Ba    Ba6+2 0.337720 0.456070 0.533320 1.636397
P6    P     P_3+3 0.627811 0.615556 0.283475 0.463998
C10   C     C_3   0.635564 0.784203 0.324159 0.513852
H21   H     H_    0.509073 0.761005 0.337848 -0.024222
H22   H     H_    0.583684 0.919962 0.347591 0.219872
O20   O     O_3   0.584290 0.607440 0.536430 -0.415781
C11   C     C_3   0.551729 0.321502 0.320580 0.377411
H23   H     H_    0.496867 0.383589 0.333315 0.050445
H24   H     H_    0.682822 0.332696 0.341347 0.207896
C12   C     C_3   0.544373 0.298734 0.241503 -0.771040
H25   H     H_    0.423883 0.309563 0.216794 0.249874
H26   H     H_    0.643240 0.344727 0.222003 0.243750
H27   H     H_    0.563360 0.228127 0.226458 0.282826
P7    P     P_3+3 0.511204 0.277475 0.441304 0.530778
O21   O     O_2   0.331880 0.280530 0.464130 -0.275867
O22   O     O_3   0.469534 0.249893 0.349966 -0.531657
H28   H     H_    0.178191 0.696194 0.181505 0.012964
C13   C     C_3   0.060262 0.272492 0.727034 0.322675
H29   H     H_    0.155325 0.334289 0.735053 0.152888
H30   H     H_    0.943399 0.290369 0.704133 -0.066963
C14   C     C_3   0.025644 0.241793 0.797417 0.050047
H31   H     H_    0.943711 0.284666 0.823121 0.052647
H32   H     H_    0.958804 0.171164 0.788824 0.099871
P8    P     P_3+3 0.563325 0.386307 0.716624 0.491389
C15   C     C_3   0.548754 0.214885 0.685337 0.505044
H33   H     H_    0.681798 0.230408 0.677763 -0.047076
O23   O     O_2   0.436303 0.441211 0.748105 -0.356390
O24   O     O_3   0.506466 0.277913 0.738014 -0.444080
H34   H     H_    0.472941 0.214159 0.634972 0.125433
H35   H     H_    0.561454 0.071881 0.668214 0.196691
C16   C     C_3   0.515459 0.120995 0.706149 -0.857251
H36   H     H_    0.379934 0.098969 0.706201 0.283678
H37   H     H_    0.580118 0.120879 0.758931 0.270386
C17   C     C_R   0.312096 0.526852 0.296907 -0.483089
C18   C     C_R   0.147899 0.487698 0.275764 0.220014
C19   C     C_R   0.085075 0.483316 0.204393 -0.193633
C20   C     C_R   0.189892 0.511875 0.153280 0.125040
C21   C     C_R   0.357232 0.549636 0.177628 -0.266915
C22   C     C_R   0.416213 0.558693 0.248968 0.239607
C23   C     C_R   0.183278 0.581566 0.041041 -0.319466
C24   C     C_R   0.142328 0.582203 0.968463 0.565917
C25   C     C_R   0.048276 0.504247 0.926027 -0.081404
C26   C     C_R   0.993946 0.430359 0.960548 -0.299466
C27   C     C_R   0.030696 0.430454 0.033170 0.558430
C28   C     C_R   0.129873 0.507135 0.075476 -0.110462
C29   C     C_R   0.829695 0.454518 0.822157 -0.297445
C30   C     C_R   0.776008 0.439803 0.750314 0.229070
C31   C     C_R   0.041912 0.514723 0.724804 0.263439
C32   C     C_R   0.100260 0.525789 0.797347 -0.127481
C33   C     C_R   0.993863 0.496465 0.847674 0.112874
C34   C     C_R   0.882499 0.468647 0.702328 -0.536905
H38   H     H_    0.227232 0.556886 0.813791 0.202291
H39   H     H_    0.257541 0.641263 0.071528 0.210956
H40   H     H_    0.955438 0.457997 0.189629 0.203698
H41   H     H_    0.921562 0.370382 0.929956 0.179130
H42   H     H_    0.742302 0.433148 0.858089 0.186991
H43   H     H_    0.441925 0.573161 0.141377 0.171236
H44   H     H_    0.838146 0.459149 0.647150 0.175427
H45   H     H_    0.360052 0.531251 0.351308 0.166948
C35   C     C_R   0.784122 0.209863 0.504058 0.206088
C36   C     C_R   0.852882 0.168856 0.556748 0.124138
C37   C     C_R   0.772210 0.082479 0.564227 -0.319240
C38   C     C_R   0.613134 0.047616 0.526248 0.098873
C39   C     C_R   0.527221 0.110800 0.495790 -0.296345
C40   C     C_R   0.612141 0.195806 0.488350 0.071087
C41   C     C_R   0.388152 0.914828 0.473976 -0.294935
C42   C     C_R   0.329606 0.822756 0.456754 0.229375
C43   C     C_R   0.578327 0.789056 0.516640 0.309795
C44   C     C_R   0.638926 0.882166 0.533950 -0.246271
C45   C     C_R   0.545134 0.947475 0.512716 0.088264
C46   C     C_R   0.425764 0.760248 0.476795 -0.521972
H46   H     H_    0.306220 0.958709 0.457287 0.170455
H47   H     H_    0.837228 0.043243 0.596332 0.156928
H48   H     H_    0.758124 0.901743 0.564600 0.151235
H49   H     H_    0.399744 0.094704 0.473522 0.198804
H50   H     H_    0.377898 0.688839 0.464759 0.169758
S1    S     S_3+6 0.138986 0.122351 0.193313 0.059637
O25   O     O_2   0.037775 0.043029 0.145935 -0.156391
O26   O     O_2   0.251347 0.174925 0.150345 -0.225085
O27   O     O_3   0.252814 0.085862 0.256833 -0.486448
H51   H     H_    0.339794 0.059182 0.232928 0.385804
S2    S     S_3+6 0.211175 0.250339 0.855459 0.051239
O28   O     O_2   0.167372 0.237876 0.927689 -0.176090
O29   O     O_2   0.315842 0.341575 0.859083 -0.233414
O30   O     O_3   0.320113 0.170107 0.827656 -0.458626
H52   H     H_    0.244205 0.112460 0.827051 0.347373
S3    S     S_3+6 0.205349 0.684570 0.935864 -0.008255
O31   O     O_2   0.366752 0.681011 0.904853 -0.293269
O32   O     O_2   0.075769 0.699707 0.881006 -0.300023
O33   O     O_3   0.234526 0.771458 0.001653 -0.447200
H53   H     H_    0.269639 0.825576 0.979492 0.403825
S4    S     S_3+6 0.957407 0.329912 0.066126 -0.004589
O34   O     O_2   0.092936 0.309496 0.115392 -0.260701
O35   O     O_2   0.807998 0.341003 0.104396 -0.350694
O36   O     O_3   0.902167 0.242034 0.001466 -0.427927
H54   H     H_    0.785733 0.244296 0.984323 0.363953
S5    S     S_3+6 0.896987 0.204915 0.432034 -0.009397
O37   O     O_2   0.012244 0.292700 0.441619 -0.206243
O38   O     O_2   0.997628 0.129772 0.429952 -0.277685
O39   O     O_3   0.767917 0.187131 0.357768 -0.571549
H55   H     H_    0.712428 0.123581 0.353639 0.346720
S6    S     S_3+6 0.064059 0.826969 0.165940 0.080193
O40   O     O_2   0.227857 0.881488 0.156582 -0.218564
O41   O     O_2   0.971977 0.789845 0.095061 -0.218737
O42   O     O_3   0.951857 0.892929 0.211715 -0.441896
H56   H     H_    0.841310 0.882800 0.184293 0.377721

loop_
_geom_bond_atom_site_label_1
_geom_bond_atom_site_label_2
_geom_bond_distance
_ccdc_geom_bond_type
C11   O22   1.399473 S    
O14   Ba2   2.781703 S    
O5    C6    1.409208 S    
C29   H42   1.082742 S    
C5    H10   1.104202 S    
C9    H18   1.110425 S    
O4    P6    1.546514 D    
C2    H4    1.112970 S    
C4    C5    1.521562 S    
P1    Ba1   3.356210 S    
O7    Ba1   2.811108 S    
S1    O27   1.682589 S    
C35   C36   1.385981 A    
C10   H21   1.107642 S    
C44   C45   1.424400 A    
C3    S6    1.779443 S    
P4    O12   1.499687 D    
P5    O19   1.753832 S    
P3    O11   1.751493 S    
C35   S5    1.735610 S    
S6    O40   1.502582 D    
C7    H15   1.109877 S    
C38   C45   1.516267 S    
C4    H8    1.109311 S    
P5    C36   1.867543 S    
S3    O32   1.502110 D    
P7    C40   1.879304 S    
C8    H16   1.103878 S    
C41   H46   1.074952 S    
C36   C37   1.405419 A    
C29   C33   1.414955 A    
C26   H41   1.079158 S    
C37   C38   1.429990 A    
C31   C34   1.388920 A    
P1    O1    1.499507 D    
S5    O39   1.676793 S    
O14   P8    1.744588 S    
C17   H45   1.081957 S    
C11   H24   1.094571 S    
C39   C40   1.399375 A    
C21   C22   1.405411 A    
O2    Ba2   2.774498 S    
C46   H50   1.081720 S    
C24   C25   1.423627 A    
P7    O21   1.575118 D    
C37   H47   1.078307 S    
O12   Ba2   2.803116 S    
P5    O17   1.761211 S    
S5    O37   1.490018 D    
C1    H2    1.107964 S    
O16   Ba2   2.891959 S    
C35   C40   1.393922 A    
O17   Ba2   2.815067 S    
O10   C8    1.396625 S    
C11   H23   1.112697 S    
P4    O13   1.548813 S    
C8    H17   1.109588 S    
Ba1   O13   2.773902 S    
Ba2   O20   2.807048 S    
O3    P6    1.745256 S    
P8    C30   1.832457 S    
C9    H19   1.105726 S    
C31   C32   1.423843 A    
O6    P6    1.755617 S    
C13   C14   1.530167 S    
C26   C27   1.411640 A    
S4    O35   1.502703 D    
C16   H37   1.110589 S    
C30   C34   1.392721 A    
P6    C22   1.841870 S    
C23   H39   1.081332 S    
P5    O18   1.548083 D    
P1    O5    1.750485 S    
C6    C7    1.534793 S    
C2    C3    1.525150 S    
C4    H7    1.105021 S    
C8    C9    1.520389 S    
C13   H30   1.107739 S    
S3    O33   1.681588 S    
C20   C21   1.417890 A    
C5    H11   1.110909 S    
C14   S2    1.790048 S    
O33   H53   0.990507 S    
C27   S4    1.769679 S    
C16   H36   1.109690 S    
O1    Ba1   2.802496 S    
P1    O2    1.548786 S    
C7    H14   1.105474 S    
S2    O30   1.676595 S    
Ba1   O20   2.892863 S    
P2    O10   1.750165 S    
C11   C12   1.517508 S    
C14   H31   1.107518 S    
C12   H27   1.110743 S    
C42   C46   1.394726 A    
H1    C10   1.108655 S    
S4    O36   1.682364 S    
P3    C42   1.829962 S    
P8    O24   1.751655 S    
O42   H56   0.990474 S    
P4    O15   1.749963 S    
C25   C26   1.411945 A    
O19   C13   1.408104 S    
H35   C16   1.106958 S    
O2    Ba1   2.888661 S    
C14   H32   1.110808 S    
C12   H26   1.110051 S    
O39   H55   0.990953 S    
Ba2   O21   2.811462 S    
S2    O29   1.502247 D    
C34   H44   1.082054 S    
P2    O7    1.508382 D    
C24   S3    1.772425 S    
C1    H3    1.110539 S    
P2    Ba1   3.356030 S    
C9    H20   1.110936 S    
C19   C20   1.429513 A    
S1    O25   1.501203 D    
C7    S1    1.787325 S    
C3    H28   1.105564 S    
C15   C16   1.521551 S    
C41   C42   1.392223 A    
O13   Ba2   2.889481 S    
S4    O34   1.497758 D    
C4    O15   1.396885 S    
C25   C33   1.527703 S    
C17   C22   1.394542 A    
P1    C18   1.880045 S    
C2    H5    1.107979 S    
S6    O42   1.678749 S    
Ba1   O16   2.807679 S    
C13   H29   1.107898 S    
S1    O26   1.500465 D    
C15   O24   1.406715 S    
O30   H52   0.990518 S    
C21   H43   1.082554 S    
O8    Ba1   2.814339 S    
O27   H51   0.990273 S    
C38   C39   1.430909 A    
Ba1   Ba2   4.527513 S    
C12   H25   1.105301 S    
C43   C46   1.389483 A    
P3    O8    1.735609 S    
C43   C44   1.409738 A    
C19   H40   1.073697 S    
C39   H49   1.074783 S    
O36   H54   0.990742 S    
C6    H12   1.105064 S    
C15   H34   1.108583 S    
P8    O23   1.545328 D    
C44   H48   1.077793 S    
C23   C28   1.415864 A    
S6    O41   1.503510 D    
C29   C30   1.400369 A    
C32   H38   1.077467 S    
C1    C10   1.521545 S    
O16   P7    1.779846 S    
S5    O38   1.504654 D    
C23   C24   1.417573 A    
O3    Ba1   2.782284 S    
P4    C31   1.871478 S    
C15   H33   1.105706 S    
P2    O20   1.563455 S    
P2    C43   1.852739 S    
C17   C18   1.389030 A    
P4    Ba2   3.356694 S    
P7    O22   1.753585 S    
C27   C28   1.425756 A    
P3    O9    1.545650 D    
C32   C33   1.429183 A    
O11   C2    1.408891 S    
C3    H6    1.108056 S    
S2    O28   1.499797 D    
C20   C28   1.532672 S    
C18   C19   1.421961 A    
S3    O31   1.502895 D    
C1    H22   1.110602 S    
O6    C10   1.409587 S    
C41   C45   1.416833 A    
C6    H13   1.105438 S    
C5    H9    1.110733 S    
