data_mof_unit_66667.cif
_audit_creation_date              2012-12-10T17:41:01-0500
_audit_creation_method            fapswitch 2.2
_symmetry_space_group_name_H-M    P1
_symmetry_Int_Tables_number       1
_space_group_crystal_system       triclinic
_cell_length_a                    14.680778
_cell_length_b                    16.549312
_cell_length_c                    10.207462
_cell_angle_alpha                 90.545154
_cell_angle_beta                  94.538168
_cell_angle_gamma                 90.943099
_cell_volume                      2471.716497

loop_
_atom_site_label
_atom_site_type_symbol
_atom_type_description
_atom_site_fract_x
_atom_site_fract_y
_atom_site_fract_z
_atom_type_partial_charge
Br1   Br    Br    0.174228 0.135151 0.823226 -0.435713
Br2   Br    Br    0.189521 0.500266 0.183228 -0.534700
Br3   Br    Br    0.674221 0.635153 0.823239 -0.435737
Br4   Br    Br    0.269609 0.983577 0.704052 -0.558969
Br5   Br    Br    0.769615 0.483612 0.704011 -0.558894
Br6   Br    Br    0.504755 0.264125 0.641522 -0.575153
Br7   Br    Br    0.533165 0.720406 0.569321 -0.538812
Br8   Br    Br    0.004758 0.764118 0.641551 -0.575248
Br9   Br    Br    0.033169 0.220410 0.569347 -0.538780
Br10  Br    Br    0.689522 0.000280 0.183224 -0.534704
C1    C     C_R   0.388334 0.875015 0.495506 0.950161
C2    C     C_R   0.697812 0.231424 0.386793 0.426184
C3    C     C_R   0.233281 0.298446 0.389431 0.396129
C4    C     C_R   0.197805 0.731430 0.386794 0.426168
C5    C     C_R   0.707083 0.830957 0.505584 -0.128892
C6    C     C_R   0.689988 0.189365 0.506940 -0.128360
C7    C     C_R   0.207084 0.330957 0.505580 -0.128857
C8    C     C_R   0.189983 0.689368 0.506942 -0.128414
C9    C     C_R   0.328674 0.012357 0.115003 0.470011
C10   C     C_R   0.828674 0.512357 0.115004 0.469997
C11   C     C_R   0.252246 0.038112 0.032749 0.329297
C12   C     C_R   0.378883 0.119537 0.497507 0.969592
C13   C     C_R   0.752244 0.538109 0.032752 0.329295
C14   C     C_R   0.268044 0.072796 0.914310 0.179343
C15   C     C_R   0.768039 0.572794 0.914314 0.179262
C16   C     C_R   0.336455 0.039768 0.847268 0.261640
C17   C     C_R   0.836453 0.539772 0.847270 0.261601
C18   C     C_R   0.418740 0.014078 0.918786 -0.097744
C19   C     C_R   0.918739 0.514080 0.918786 -0.097725
C20   C     C_R   0.417369 0.009355 0.062206 -0.114081
C21   C     C_R   0.917369 0.509356 0.062206 -0.114084
C22   C     C_R   0.576238 0.991953 0.079915 0.194024
C23   C     C_R   0.888337 0.375014 0.495506 0.950187
C24   C     C_R   0.076237 0.491950 0.079915 0.193986
C25   C     C_R   0.620665 0.120908 0.503741 0.956133
C26   C     C_R   0.628120 0.887921 0.502975 0.974695
C27   C     C_R   0.120664 0.620909 0.503741 0.956147
C28   C     C_R   0.128120 0.387921 0.502974 0.974717
C29   C     C_R   0.574710 0.985450 0.939249 0.406806
C30   C     C_R   0.074710 0.485449 0.939249 0.406830
C31   C     C_R   0.392242 0.237996 0.711933 0.238114
C32   C     C_R   0.423155 0.728901 0.654799 0.175827
C33   C     C_R   0.892240 0.738002 0.711951 0.238140
C34   C     C_R   0.878887 0.619541 0.497508 0.969610
C35   C     C_R   0.923154 0.228901 0.654815 0.175853
C36   C     C_R   0.382272 0.273143 0.834362 0.367192
C37   C     C_R   0.421320 0.704205 0.783832 0.438416
C38   C     C_R   0.882271 0.773155 0.834380 0.367171
C39   C     C_R   0.921314 0.204202 0.783847 0.438422
C40   C     C_R   0.824893 0.840473 0.837063 0.277520
C41   C     C_R   0.837287 0.182389 0.831610 0.244801
C42   C     C_R   0.324910 0.340469 0.837052 0.277575
C43   C     C_R   0.337298 0.682390 0.831602 0.244884
C44   C     C_R   0.781238 0.866585 0.718327 0.535528
C45   C     C_R   0.264406 0.219063 0.385744 0.429395
C46   C     C_R   0.756162 0.189011 0.746155 0.383025
C47   C     C_R   0.281250 0.366585 0.718320 0.535466
C48   C     C_R   0.256169 0.689009 0.746157 0.382981
C49   C     C_R   0.762623 0.810237 0.617327 -0.150073
C50   C     C_R   0.761717 0.201595 0.610169 -0.179622
C51   C     C_R   0.262628 0.310238 0.617320 -0.150073
C52   C     C_R   0.261715 0.701598 0.610169 -0.179640
C53   C     C_R   0.320414 0.242239 0.613285 -0.124082
C54   C     C_R   0.341573 0.741526 0.579707 -0.199031
C55   C     C_R   0.820414 0.742242 0.613294 -0.124084
C56   C     C_R   0.273115 0.783712 0.373134 0.379999
C57   C     C_R   0.841576 0.241524 0.579712 -0.199106
C58   C     C_R   0.318133 0.192036 0.498033 -0.172141
C59   C     C_R   0.336245 0.797905 0.480623 -0.176682
C60   C     C_R   0.818140 0.692042 0.498037 -0.172149
C61   C     C_R   0.836251 0.297902 0.480624 -0.176644
C62   C     C_3   0.162544 0.183873 0.209975 -0.254097
C63   C     C_3   0.358104 0.782325 0.195826 -0.238944
C64   C     C_3   0.662551 0.683878 0.209985 -0.254136
C65   C     C_3   0.858092 0.282343 0.195800 -0.239136
C66   C     C_3   0.706477 0.034381 0.880263 0.023876
C67   C     C_R   0.764418 0.719071 0.385745 0.429436
C68   C     C_3   0.206483 0.534374 0.880273 0.023868
C69   C     C_3   0.461680 0.275599 0.038831 -0.247795
C70   C     C_3   0.501672 0.798956 0.907042 -0.246330
C71   C     C_3   0.961634 0.775663 0.038912 -0.247591
C72   C     C_3   0.001673 0.298937 0.907080 -0.246398
C73   C     C_3   0.733489 0.817811 0.998892 -0.101561
C74   C     C_3   0.898814 0.115780 0.018769 -0.290157
C75   C     C_3   0.233502 0.317814 0.998878 -0.101527
C76   C     C_3   0.398831 0.615772 0.018742 -0.290194
C77   C     C_3   0.865874 0.977839 0.673339 -0.401876
C78   C     C_R   0.773118 0.283711 0.373136 0.380065
C79   C     C_3   0.682611 0.291718 0.832094 -0.203092
C80   C     C_3   0.365871 0.477848 0.673334 -0.401763
C81   C     C_3   0.182570 0.791692 0.832066 -0.202891
C82   C     C_3   0.841222 0.874223 0.299971 -0.211145
C83   C     C_3   0.655044 0.199611 0.169763 -0.142555
C84   C     C_3   0.341229 0.374161 0.299887 -0.211066
C85   C     C_3   0.155020 0.699606 0.169771 -0.142538
C86   C     C_3   0.236037 0.983500 0.295139 0.005602
C87   C     C_3   0.736040 0.483504 0.295147 0.005645
C88   C     C_3   0.118085 0.966349 0.000197 -0.351267
C89   C     C_R   0.733287 0.798453 0.389435 0.396127
C90   C     C_3   0.618074 0.466356 0.000205 -0.351284
H1    H     H_    0.133436 0.245174 0.210822 0.148443
H2    H     H_    0.851257 0.295661 0.089871 0.204631
H3    H     H_    0.858506 0.215948 0.209802 0.162077
H4    H     H_    0.925796 0.306527 0.233993 0.191792
H5    H     H_    0.701486 0.053575 0.778412 0.218013
H6    H     H_    0.777540 0.017943 0.908107 0.218622
H7    H     H_    0.688774 0.085854 0.944402 0.163976
H8    H     H_    0.201485 0.553577 0.778424 0.218043
H9    H     H_    0.277548 0.517930 0.908103 0.218615
H10   H     H_    0.188792 0.585841 0.944431 0.163992
H11   H     H_    0.439581 0.338394 0.052233 0.170126
H12   H     H_    0.114437 0.143151 0.257272 0.178708
H13   H     H_    0.532034 0.278020 0.011151 0.156143
H14   H     H_    0.461009 0.245513 0.135311 0.225722
H15   H     H_    0.433619 0.827224 0.912722 0.125159
H16   H     H_    0.540425 0.833165 0.836311 0.237110
H17   H     H_    0.537312 0.804521 0.006503 0.135183
H18   H     H_    0.939538 0.838467 0.052205 0.170097
H19   H     H_    0.032020 0.778081 0.011388 0.156052
H20   H     H_    0.960875 0.745608 0.135406 0.225700
H21   H     H_    0.933622 0.327199 0.912808 0.125146
H22   H     H_    0.040406 0.333156 0.836339 0.237095
H23   H     H_    0.160640 0.170403 0.104214 0.249314
H24   H     H_    0.037336 0.304493 0.006525 0.135192
H25   H     H_    0.768808 0.769963 0.057036 0.233759
H26   H     H_    0.686577 0.790874 0.919276 0.174818
H27   H     H_    0.688971 0.850568 0.061769 0.236255
H28   H     H_    0.955882 0.151657 0.069357 0.217210
H29   H     H_    0.925939 0.074008 0.945802 0.178867
H30   H     H_    0.869704 0.077997 0.094833 0.186067
H31   H     H_    0.268806 0.269961 0.057029 0.233780
H32   H     H_    0.186590 0.290882 0.919256 0.174819
H33   H     H_    0.188984 0.350576 0.061747 0.236251
H34   H     H_    0.358382 0.715920 0.209623 0.162212
H35   H     H_    0.455905 0.651641 0.069334 0.217226
H36   H     H_    0.425949 0.574004 0.945762 0.178855
H37   H     H_    0.369721 0.577984 0.094800 0.186052
H38   H     H_    0.902550 0.940662 0.603700 0.194487
H39   H     H_    0.906677 0.981493 0.769623 0.176598
H40   H     H_    0.860704 0.039796 0.633358 0.198398
H41   H     H_    0.695998 0.328358 0.744814 0.216410
H42   H     H_    0.735466 0.305107 0.913591 0.144704
H43   H     H_    0.616695 0.312233 0.862355 0.178741
H44   H     H_    0.402524 0.440701 0.603632 0.194498
H45   H     H_    0.425817 0.806361 0.234251 0.191656
H46   H     H_    0.406698 0.481462 0.769599 0.176565
H47   H     H_    0.360695 0.539821 0.633424 0.198361
H48   H     H_    0.195757 0.828327 0.744674 0.216526
H49   H     H_    0.235540 0.805153 0.913415 0.144724
H50   H     H_    0.116677 0.812137 0.862539 0.178694
H51   H     H_    0.853879 0.915890 0.385506 0.170657
H52   H     H_    0.856705 0.908487 0.211507 0.218418
H53   H     H_    0.889374 0.822935 0.308242 0.154177
H54   H     H_    0.599479 0.162159 0.119231 0.186088
H55   H     H_    0.716613 0.161747 0.181153 0.189789
H56   H     H_    0.351405 0.795770 0.089942 0.204523
H57   H     H_    0.669155 0.250974 0.105569 0.188852
H58   H     H_    0.353967 0.415778 0.385472 0.170572
H59   H     H_    0.356685 0.408463 0.211448 0.218458
H60   H     H_    0.389342 0.322841 0.308024 0.154237
H61   H     H_    0.099432 0.662182 0.119233 0.186140
H62   H     H_    0.216557 0.661707 0.181177 0.189725
H63   H     H_    0.169180 0.750956 0.105571 0.188903
H64   H     H_    0.192236 0.937285 0.241565 0.186416
H65   H     H_    0.201578 0.040985 0.302967 0.185961
H66   H     H_    0.245460 0.962596 0.397783 0.142914
H67   H     H_    0.633442 0.745179 0.210829 0.148440
H68   H     H_    0.692235 0.437294 0.241575 0.186417
H69   H     H_    0.701588 0.540991 0.302980 0.185956
H70   H     H_    0.745465 0.462598 0.397789 0.142927
H71   H     H_    0.153467 0.909106 0.024991 0.147242
H72   H     H_    0.111589 0.974913 0.892102 0.236297
H73   H     H_    0.047972 0.960911 0.032756 0.179165
H74   H     H_    0.653441 0.409108 0.025012 0.147231
H75   H     H_    0.611589 0.474917 0.892110 0.236277
H76   H     H_    0.547957 0.460932 0.032754 0.179191
H77   H     H_    0.614447 0.643158 0.257292 0.178719
H78   H     H_    0.660641 0.670403 0.104224 0.249315
N1    N     N_R   0.498810 0.000000 0.142780 -0.118764
N2    N     N_R   0.998810 0.500000 0.142780 -0.118777
N3    N     N_R   0.498740 0.000000 0.857170 -0.131970
N4    N     N_R   0.998740 0.500000 0.857170 -0.131952
O1    O     O_R   0.408390 0.908380 0.614690 -0.593406
O2    O     O_R   0.591620 0.908390 0.614640 -0.576228
O3    O     O_R   0.091620 0.591610 0.614640 -0.583095
O4    O     O_R   0.091620 0.408390 0.614640 -0.576213
O5    O     O_R   0.591610 0.091610 0.385310 -0.560807
O6    O     O_R   0.591610 0.908390 0.385310 -0.588698
O7    O     O_R   0.091610 0.591610 0.385310 -0.560826
O8    O     O_R   0.091610 0.408390 0.385310 -0.588698
O9    O     O_3   0.254175 0.176333 0.267900 -0.610830
O10   O     O_3   0.284863 0.819468 0.253857 -0.624456
O11   O     O_3   0.754184 0.676342 0.267901 -0.610829
O12   O     O_R   0.408390 0.091620 0.614690 -0.570073
O13   O     O_3   0.784858 0.319476 0.253864 -0.624464
O14   O     O_3   0.652395 0.964772 0.884794 -0.600659
O15   O     O_3   0.152395 0.464767 0.884795 -0.600683
O16   O     O_3   0.407683 0.228855 0.945350 -0.602628
O17   O     O_3   0.497521 0.716582 0.869496 -0.557135
O18   O     O_3   0.907733 0.728883 0.945370 -0.602617
O19   O     O_3   0.997516 0.216566 0.869513 -0.557125
O20   O     O_3   0.798180 0.872060 0.952608 -0.614864
O21   O     O_3   0.829664 0.167448 0.964291 -0.651318
O22   O     O_3   0.298208 0.372053 0.952607 -0.614901
O23   O     O_R   0.908390 0.408380 0.614690 -0.593427
O24   O     O_3   0.329684 0.667451 0.964285 -0.651246
O25   O     O_3   0.776746 0.947356 0.687753 -0.624091
O26   O     O_3   0.676471 0.208120 0.800998 -0.559320
O27   O     O_3   0.276747 0.447357 0.687758 -0.624085
O28   O     O_3   0.176478 0.708086 0.801019 -0.559373
O29   O     O_3   0.748487 0.848155 0.286479 -0.592572
O30   O     O_3   0.625782 0.228307 0.289958 -0.616888
O31   O     O_3   0.248473 0.348146 0.286469 -0.592584
O32   O     O_3   0.125771 0.728321 0.289963 -0.616885
O33   O     O_3   0.322935 0.992415 0.245231 -0.538189
O34   O     O_R   0.908390 0.591620 0.614690 -0.570054
O35   O     O_3   0.822936 0.492415 0.245233 -0.538201
O36   O     O_3   0.163033 0.032453 0.067173 -0.621393
O37   O     O_3   0.663033 0.532455 0.067184 -0.621391
O38   O     O_R   0.408370 0.908380 0.385360 -0.553152
O39   O     O_R   0.408370 0.091620 0.385360 -0.541612
O40   O     O_R   0.908370 0.408380 0.385360 -0.553180
O41   O     O_R   0.908370 0.591620 0.385360 -0.541607
O42   O     O_R   0.591620 0.091610 0.614640 -0.583120
Zn1   Zn    Zn3+2 0.500010 0.000000 0.653130 1.051854
Zn2   Zn    Zn3+2 0.000010 0.500000 0.653130 1.051874
Zn3   Zn    Zn3+2 0.499980 1.000000 0.346870 1.062488
Zn4   Zn    Zn3+2 0.999980 0.500000 0.346870 1.062469

loop_
_geom_bond_atom_site_label_1
_geom_bond_atom_site_label_2
_ccdc_geom_bond_type
C74   H28   S    
C27   O7    A    
C62   H12   S    
C48   C52   A    
C84   H59   S    
C17   C19   A    
C10   O35   S    
C4    C8    A    
C24   N2    A    
Br8   C33   S    
C77   H40   S    
O6    Zn3   S    
O42   Zn1   S    
C76   O24   S    
C71   O18   S    
C45   C58   A    
C12   C58   S    
C89   O29   S    
Br9   C35   S    
C64   H77   S    
C71   H20   S    
C23   O23   A    
C40   C44   A    
C86   O33   S    
C38   O18   S    
C24   C30   A    
O12   Zn1   S    
C19   C21   A    
C83   H54   S    
C9    C11   A    
C8    C27   S    
C14   C16   A    
C85   H61   S    
C6    C25   S    
C36   O16   S    
C56   C59   A    
C62   H1    S    
C79   H42   S    
C36   C42   A    
C74   H29   S    
C87   H69   S    
C4    O32   S    
C68   H8    S    
C41   C46   A    
C6    C50   A    
C22   C29   A    
C3    O31   S    
C47   C51   A    
C51   C53   A    
C67   O11   S    
C64   H67   S    
C52   C54   A    
C66   O14   S    
C75   O22   S    
C7    C51   A    
Br5   C17   S    
C27   O3    A    
C70   H16   S    
C90   O37   S    
C39   C41   A    
Br6   C31   S    
C46   O26   S    
C90   H76   S    
C65   H2    S    
C66   H6    S    
C31   C36   A    
C70   H15   S    
C22   N1    A    
C34   C60   S    
C82   H53   S    
C26   O2    A    
C68   O15   S    
O40   Zn4   S    
C33   C38   A    
C62   O9    S    
C30   N4    A    
C76   H37   S    
C13   O37   S    
C37   C43   A    
C88   H72   S    
C23   O40   A    
Br2   C24   S    
C38   C40   A    
C64   O11   S    
C84   H58   S    
C69   O16   S    
C60   C67   A    
C65   H3    S    
C78   O13   S    
C37   O17   S    
O2    Zn1   S    
C83   O30   S    
C81   O28   S    
C72   H24   S    
C81   H48   S    
C41   O21   S    
C69   H14   S    
C49   C55   A    
C39   O19   S    
C44   C49   A    
C48   O28   S    
C12   O39   A    
C47   O27   S    
C19   N4    A    
C2    C78   A    
C2    C6    A    
C83   H55   S    
C1    O1    A    
C50   C57   A    
C73   H25   S    
C85   H62   S    
C73   H27   S    
C81   H49   S    
C88   H73   S    
O41   Zn4   S    
N4    Zn2   S    
C72   O19   S    
C28   O8    A    
C79   H43   S    
C70   O17   S    
C71   H18   S    
N2    Zn4   S    
O34   Zn2   S    
C87   H70   S    
C86   H64   S    
O38   Zn3   S    
C56   O10   S    
C42   O22   S    
C45   O9    S    
C32   C37   A    
C18   N3    A    
Br7   C32   S    
C82   H52   S    
C80   H47   S    
C86   H66   S    
C85   H63   S    
C81   H50   S    
O5    Zn3   S    
C64   H78   S    
C10   C13   A    
C35   C39   A    
C33   C55   A    
C77   O25   S    
C90   H75   S    
C43   O24   S    
C4    C56   A    
O23   Zn2   S    
C68   H10   S    
C34   O41   A    
C54   C59   A    
C83   H57   S    
C2    O30   S    
C29   N3    A    
C88   H71   S    
C74   O21   S    
C76   H36   S    
C74   H30   S    
C82   H51   S    
C66   H7    S    
C11   O36   S    
C88   O36   S    
C62   H23   S    
C90   H74   S    
C65   H4    S    
O8    Zn4   S    
C11   C14   A    
O7    Zn4   S    
C31   C53   A    
C73   H26   S    
C32   C54   A    
C5    C26   S    
C80   H46   S    
C87   O35   S    
O39   Zn3   S    
C70   H17   S    
C84   O31   S    
C84   H60   S    
C72   H21   S    
C53   C58   A    
C34   O34   A    
C5    C49   A    
O4    Zn2   S    
C8    C52   A    
C77   H39   S    
C80   O27   S    
Br4   C16   S    
C43   C48   A    
C1    C59   S    
C40   O20   S    
C35   C57   A    
C3    C7    A    
C15   C17   A    
C87   H68   S    
C29   O14   S    
C71   H19   S    
C57   C61   A    
C16   C18   A    
C69   H11   S    
C21   N2    A    
N3    Zn1   S    
C69   H13   S    
C75   H32   S    
C28   O4    A    
C25   O42   A    
C75   H31   S    
C5    C89   A    
C20   N1    A    
C79   H41   S    
O3    Zn2   S    
C63   H56   S    
C18   C20   A    
C67   C89   A    
C68   H9    S    
C9    O33   S    
C7    C28   S    
C13   C15   A    
N1    Zn3   S    
C63   O10   S    
C42   C47   A    
C23   C61   S    
C61   C78   A    
C79   O26   S    
Br10  C22   S    
C76   H35   S    
Br3   C15   S    
C46   C50   A    
C63   H34   S    
Br1   C14   S    
C25   O5    A    
C44   O25   S    
C30   O15   S    
C73   O20   S    
C63   H45   S    
C85   O32   S    
C86   H65   S    
C12   O12   A    
C82   O29   S    
C77   H38   S    
C26   O6    A    
C9    C20   A    
C1    O38   A    
C72   H22   S    
C66   H5    S    
C80   H44   S    
C55   C60   A    
C75   H33   S    
O1    Zn1   S    
C3    C45   A    
C10   C21   A    
C65   O13   S    
