data_mof_unit_54452.cif
_audit_creation_date              2012-12-10T17:50:14-0500
_audit_creation_method            fapswitch 2.2
_symmetry_space_group_name_H-M    P1
_symmetry_Int_Tables_number       1
_space_group_crystal_system       triclinic
_cell_length_a                    10.693605
_cell_length_b                    14.790372
_cell_length_c                    14.668077
_cell_angle_alpha                 64.744132
_cell_angle_beta                  105.402615
_cell_angle_gamma                 103.090056
_cell_volume                      2005.71098389

loop_
_atom_site_label
_atom_site_type_symbol
_atom_type_description
_atom_site_fract_x
_atom_site_fract_y
_atom_site_fract_z
_atom_type_partial_charge
C1    C     C_R   0.483972 0.119212 0.312110 0.762934
C2    C     C_R   0.516704 0.880548 0.688079 0.859980
C3    C     C_R   0.440094 0.279677 0.162191 -0.067819
C4    C     C_R   0.553789 0.717062 0.837596 -0.046283
C5    C     C_R   0.481784 0.357969 0.073819 0.088132
C6    C     C_R   0.507284 0.639462 0.924112 0.000850
C7    C     C_R   0.529498 0.329939 0.009775 0.079112
C8    C     C_R   0.460509 0.668177 0.987953 0.096259
C9    C     C_R   0.480066 0.462688 0.047334 0.109057
C10   C     C_R   0.506705 0.534553 0.950134 0.049298
C11   C     C_R   0.525187 0.498813 0.880045 -0.213139
C12   C     C_R   0.460785 0.498550 0.117059 -0.137287
C13   C     C_R   0.544117 0.399358 0.911445 -0.197242
C14   C     C_R   0.443205 0.598418 0.085651 -0.197912
C15   C     C_R   0.716028 0.285040 0.673387 -0.335369
C16   C     C_R   0.283677 0.715080 0.326495 -0.339204
C17   C     C_R   0.681813 0.202752 0.645227 0.184176
C18   C     C_R   0.318271 0.797410 0.354657 0.189289
C19   C     C_R   0.520254 0.286943 0.505704 -0.007440
C20   C     C_R   0.479525 0.712965 0.494102 -0.007493
C21   C     C_R   0.549420 0.372132 0.533878 -0.016198
C22   C     C_R   0.449984 0.627724 0.466020 -0.022691
C23   C     C_R   0.259049 0.001919 0.496839 0.773000
C24   C     C_R   0.741121 0.998156 0.503235 0.811969
C25   C     C_R   0.650300 0.368803 0.619395 0.142752
C26   C     C_R   0.349050 0.631107 0.380559 0.151173
C27   C     C_R   0.481981 0.459311 0.482148 0.085431
C28   C     C_R   0.517251 0.540476 0.517810 0.077975
C29   C     C_R   0.618696 0.531800 0.603711 -0.227726
C30   C     C_R   0.380327 0.467910 0.396385 -0.235765
C31   C     C_R   0.683872 0.447770 0.653013 -0.188643
C32   C     C_R   0.315199 0.552018 0.347072 -0.194838
C33   C     C_3   0.015410 0.912373 0.500046 -0.131247
C34   C     C_3   0.985287 0.088202 0.500116 -0.214722
C35   C     C_3   0.920792 0.986673 0.417427 -0.173988
C36   C     C_3   0.079905 0.014179 0.582465 -0.255653
C37   C     C_3   0.878252 0.998136 0.503813 -0.055478
C38   C     C_3   0.122376 0.002463 0.496414 -0.053531
C39   C     C_3   0.971637 0.925049 0.585239 0.029257
C40   C     C_3   0.029406 0.075748 0.415012 0.033148
C41   C     C_R   0.490038 0.186438 0.204161 -0.203693
C42   C     C_R   0.509174 0.812766 0.795869 -0.159408
C43   C     C_R   0.562751 0.232972 0.044680 -0.151317
C44   C     C_R   0.431891 0.766340 0.953754 -0.153032
C45   C     C_R   0.555045 0.163783 0.145127 -0.010469
C46   C     C_R   0.443940 0.836280 0.854302 -0.035743
Cu1   Cu    Cu3+1 0.465750 0.918270 0.475680 0.971741
Cu2   Cu    Cu3+1 0.534250 0.081730 0.524320 0.934804
H1    H     H_    0.853633 0.974981 0.350305 0.151901
H2    H     H_    0.147154 0.025854 0.649575 0.148443
H3    H     H_    0.555925 0.716669 0.557349 0.180564
H4    H     H_    0.444138 0.283252 0.442088 0.115585
H5    H     H_    0.791892 0.281945 0.740352 0.154204
H6    H     H_    0.207859 0.718317 0.259474 0.146800
H7    H     H_    0.650190 0.588647 0.635420 0.172648
H8    H     H_    0.348622 0.410895 0.364875 0.132013
H9    H     H_    0.028101 0.838932 0.502567 0.161972
H10   H     H_    0.972649 0.161736 0.497412 0.143214
H11   H     H_    0.569865 0.376616 0.858324 0.152323
H12   H     H_    0.417594 0.621425 0.138625 0.146130
H13   H     H_    0.604619 0.214375 0.996094 0.183562
H14   H     H_    0.390220 0.785604 0.001962 0.179530
H15   H     H_    0.527495 0.547240 0.800618 0.162039
H16   H     H_    0.457290 0.450094 0.196265 0.138525
H17   H     H_    0.761015 0.444155 0.719220 0.160695
H18   H     H_    0.237928 0.555620 0.280947 0.151554
N1    N     N_R   0.585750 0.204560 0.560800 -0.192317
N2    N     N_R   0.414250 0.795440 0.439200 -0.198309
O1    O     O_R   0.454850 0.022100 0.338110 -0.588172
O2    O     O_R   0.545150 0.977900 0.661890 -0.606216
O3    O     O_R   0.512700 0.160150 0.379180 -0.589984
O4    O     O_R   0.487300 0.839850 0.620820 -0.530550
O5    O     O_R   0.287930 0.931000 0.479440 -0.579732
O6    O     O_R   0.712070 0.069000 0.520560 -0.582792
O7    O     O_R   0.345780 0.069050 0.520520 -0.603512
O8    O     O_R   0.654220 0.930950 0.479480 -0.575337
C47   C     C_R   0.253660 0.886918 0.283773 0.158290
C48   C     C_R   0.298252 0.949451 0.191861 -0.140166
C49   C     C_R   0.228837 0.027281 0.117272 -0.150083
C50   C     C_R   0.110996 0.040061 0.131554 -0.062693
C51   C     C_R   0.061906 0.974217 0.219767 -0.111699
C52   C     C_R   0.132456 0.897489 0.295341 -0.167522
H19   H     H_    0.386641 0.937515 0.178167 0.149822
H20   H     H_    0.265305 0.076525 0.047733 0.165229
H21   H     H_    0.056212 0.099410 0.073228 0.173894
H22   H     H_    0.967829 0.981404 0.228389 0.178499
H23   H     H_    0.090997 0.844302 0.361079 0.128984
C53   C     C_R   0.747147 0.113548 0.715939 0.156395
C54   C     C_R   0.868976 0.104032 0.704468 -0.130082
C55   C     C_R   0.940838 0.028330 0.780465 -0.168139
C56   C     C_R   0.892277 0.962323 0.868875 -0.126745
C57   C     C_R   0.773623 0.973912 0.882917 -0.123709
C58   C     C_R   0.703026 0.050847 0.807999 -0.128362
H24   H     H_    0.909955 0.157372 0.638542 0.126950
H25   H     H_    0.035204 0.021695 0.771819 0.149652
H26   H     H_    0.947976 0.903680 0.927445 0.143517
H27   H     H_    0.737518 0.924562 0.952590 0.156236
H28   H     H_    0.614308 0.062205 0.821712 0.151291
C59   C     C_2   0.946997 0.840821 0.683652 0.424727
H29   H     H_    0.919521 0.856178 0.741046 0.083629
O9    O     O_2   0.959600 0.754795 0.700569 -0.526748
C60   C     C_2   0.060090 0.164830 0.321508 0.348561
H30   H     H_    0.128233 0.228313 0.330323 0.067558
O10   O     O_2   0.005228 0.168404 0.235971 -0.520389
C61   C     C_2   0.668034 0.703271 0.806802 0.287324
H31   H     H_    0.732711 0.649130 0.862388 0.108844
O11   O     O_2   0.690595 0.749394 0.720407 -0.561631
C62   C     C_2   0.327699 0.286406 0.199900 0.345571
H32   H     H_    0.316662 0.242229 0.278556 0.056870
O12   O     O_2   0.242653 0.338362 0.141546 -0.512506
C63   C     C_2   0.382701 0.930394 0.812758 0.313173
H33   H     H_    0.367183 0.977251 0.731645 0.098249
O13   O     O_2   0.346255 0.956286 0.869161 -0.565577
C64   C     C_2   0.619548 0.071185 0.186936 0.359466
H34   H     H_    0.634405 0.024022 0.267967 0.088262
O14   O     O_2   0.659326 0.046890 0.130916 -0.556730

loop_
_geom_bond_atom_site_label_1
_geom_bond_atom_site_label_2
_ccdc_geom_bond_type
C25   C31   A    
C38   C40   S    
C26   C32   A    
C34   C37   S    
C63   H33   S    
C64   H34   S    
C55   H25   S    
C47   C48   A    
C61   O11   D    
C1    O3    A    
C34   C40   S    
C15   H5    S    
Cu2   O2    S    
C28   C29   A    
C35   C37   S    
Cu1   O8    S    
C19   H4    S    
C20   H3    S    
C11   H15   S    
C49   H20   S    
C12   H16   S    
C15   C25   A    
C18   N2    A    
C52   H23   S    
C17   C53   S    
C62   H32   S    
C31   H17   S    
C42   C46   A    
C54   H24   S    
Cu1   O1    S    
C56   H26   S    
C45   C64   S    
C59   H29   S    
C35   H1    S    
C33   H9    S    
C19   N1    A    
C7    C43   A    
C9    C10   A    
C51   H22   S    
C21   C27   A    
C22   C28   A    
C46   C63   S    
C27   C30   A    
Cu2   O7    S    
C23   O5    A    
C2    O4    A    
C48   H19   S    
C44   C46   A    
C57   H27   S    
C51   C52   A    
C16   C26   A    
C17   N1    A    
Cu2   O6    S    
Cu1   O5    S    
C4    C6    A    
C23   O7    A    
C56   C57   A    
C5    C7    A    
C48   C49   A    
C24   O8    A    
C6    C8    A    
C29   H7    S    
C44   H14   S    
C30   H8    S    
C1    O1    A    
C5    C9    A    
C50   H21   S    
C39   C59   S    
Cu1   Cu2   S    
C24   C37   S    
C63   O13   D    
C16   C18   A    
C33   C39   S    
C60   O10   D    
C43   C45   A    
C1    C41   S    
C59   O9    D    
C20   C22   A    
Cu2   O3    S    
Cu1   N2    S    
C36   H2    S    
C43   H13   S    
C32   H18   S    
C61   H31   S    
C15   C17   A    
C21   C25   A    
C53   C58   A    
C3    C41   A    
C8    C14   A    
C19   C21   A    
C20   N2    A    
C36   C39   S    
C8    C44   A    
C12   C14   A    
C50   C51   A    
C3    C5    A    
C6    C10   A    
C64   O14   D    
C13   H11   S    
C3    C62   S    
C23   C38   S    
C14   H12   S    
C4    C61   S    
C33   C38   S    
C36   C38   S    
C35   C40   S    
C37   C39   S    
C30   C32   A    
C11   C13   A    
C24   O6    A    
C55   C56   A    
C4    C42   A    
C47   C52   A    
C2    C42   S    
C18   C47   S    
C57   C58   A    
C33   C35   S    
C62   O12   D    
C34   C36   S    
Cu2   N1    S    
C60   H30   S    
C9    C12   A    
C16   H6    S    
Cu1   O4    S    
C10   C11   A    
C40   C60   S    
C49   C50   A    
C7    C13   A    
C53   C54   A    
C29   C31   A    
C22   C26   A    
C27   C28   A    
C34   H10   S    
C41   C45   A    
C54   C55   A    
C2    O2    A    
C58   H28   S    
