data_mof_unit_35199.cif
_audit_creation_date              2013-03-05T16:21:41-0500
_audit_creation_method            fapswitch 2.2
_symmetry_space_group_name_H-M    P1
_symmetry_Int_Tables_number       1
_space_group_crystal_system       triclinic
_cell_length_a                    8.429936
_cell_length_b                    19.066407
_cell_length_c                    18.692384
_cell_angle_alpha                 104.986005
_cell_angle_beta                  91.385895
_cell_angle_gamma                 92.982791
_cell_volume                      2896.07878768

loop_
_atom_site_label
_atom_site_type_symbol
_atom_site_description
_atom_site_fract_x
_atom_site_fract_y
_atom_site_fract_z
_atom_type_partial_charge
P1    P     P_3+3 0.058010 0.429760 0.330690 0.466495
O1    O     O_2   0.885040 0.450540 0.321170 -0.383819
O2    O     O_3   0.133000 0.456200 0.410860 -0.346741
O3    O     O_3   0.639000 0.584840 0.375630 -0.330989
O4    O     O_2   0.755131 0.528071 0.245151 -0.376640
O5    O     O_3   0.040223 0.334972 0.296805 -0.600302
O6    O     O_3   0.666712 0.659901 0.265274 -0.524159
H1    H     H_    0.678806 0.718950 0.375232 0.142647
C1    C     C_3   0.618502 0.786141 0.303820 -0.996928
H2    H     H_    0.744477 0.801732 0.296090 0.289236
H3    H     H_    0.547703 0.782374 0.251927 0.257685
P2    P     P_3+3 0.631910 0.669560 0.569730 0.505410
P3    P     P_3+3 0.078323 0.716857 0.423886 0.491239
O7    O     O_2   0.804950 0.679010 0.548920 -0.356559
O8    O     O_3   0.051170 0.624120 0.414780 -0.283660
O9    O     O_2   0.949808 0.753591 0.475783 -0.396460
O10   O     O_3   0.640794 0.706584 0.666363 -0.605516
O11   O     O_3   0.024387 0.730308 0.337719 -0.503156
C2    C     C_3   0.143139 0.704101 0.287891 0.399557
H4    H     H_    0.183281 0.650696 0.292749 0.088302
H5    H     H_    0.245788 0.744805 0.297794 0.051200
C3    C     C_3   0.077756 0.693461 0.209029 -0.901341
H6    H     H_    0.978525 0.650907 0.196781 0.282645
H7    H     H_    0.033766 0.745209 0.201836 0.259342
C4    C     C_3   0.202573 0.690548 0.632850 0.313476
H8    H     H_    0.306465 0.662166 0.607424 0.048198
H9    H     H_    0.103036 0.681828 0.590935 0.144850
C5    C     C_3   0.249006 0.771801 0.660302 0.032851
H10   H     H_    0.346027 0.781245 0.703587 0.152805
H11   H     H_    0.291290 0.793302 0.614374 0.053085
Ba1   Ba    Ba6+2 0.844980 0.532260 0.467660 1.620284
C6    C     C_3   0.943937 0.298610 0.336755 0.592146
H12   H     H_    0.837958 0.328529 0.353925 0.138645
C7    C     C_3   0.902609 0.222462 0.285664 -0.894315
H13   H     H_    0.867757 0.226565 0.229666 0.238345
H14   H     H_    0.807016 0.193115 0.308178 0.257794
H15   H     H_    0.008507 0.189252 0.278848 0.262876
C8    C     C_3   0.683900 0.657822 0.706926 0.977465
H16   H     H_    0.698179 0.601836 0.672238 -0.017816
C9    C     C_3   0.559184 0.657152 0.763913 -1.004896
H17   H     H_    0.576210 0.705389 0.812353 0.267014
H18   H     H_    0.565075 0.607159 0.783348 0.228088
H19   H     H_    0.440843 0.660828 0.739585 0.263644
P4    P     P_3+3 0.131690 0.570300 0.669320 0.528469
O12   O     O_2   0.304650 0.549490 0.678880 -0.368669
O13   O     O_3   0.056690 0.543860 0.589150 -0.386784
O14   O     O_3   0.550690 0.415220 0.624380 -0.341914
O15   O     O_3   0.157369 0.665319 0.693658 -0.515555
P5    P     P_3+3 0.108038 0.283700 0.582583 0.471778
O16   O     O_3   0.632900 0.410750 0.456460 -0.392057
O17   O     O_3   0.138520 0.375940 0.585230 -0.329924
O18   O     O_2   0.218313 0.243816 0.522396 -0.361824
O19   O     O_3   0.192962 0.268819 0.663466 -0.537652
Ba2   Ba    Ba6+2 0.344840 0.467800 0.532350 1.607385
P6    P     P_3+3 0.619241 0.574554 0.280559 0.470003
C10   C     C_3   0.607091 0.713423 0.323166 0.515502
H20   H     H_    0.480448 0.700158 0.331982 -0.008466
H21   H     H_    0.571381 0.828747 0.349300 0.224861
O20   O     O_3   0.556800 0.589310 0.543550 -0.330930
C11   C     C_3   0.513934 0.300007 0.277986 0.929237
C12   C     C_3   0.512499 0.238878 0.204951 -0.899266
H22   H     H_    0.455437 0.187574 0.212562 0.280174
H23   H     H_    0.446341 0.253863 0.159373 0.212575
H24   H     H_    0.633101 0.227527 0.185446 0.225568
P7    P     P_3+3 0.565801 0.317550 0.431209 0.471218
O21   O     O_2   0.384750 0.321010 0.451130 -0.328559
O22   O     O_3   0.582975 0.272984 0.335010 -0.562498
H25   H     H_    0.172931 0.676036 0.169371 0.212642
C13   C     C_3   0.091838 0.290096 0.722895 1.080448
H26   H     H_    0.964475 0.286825 0.705421 -0.158441
C14   C     C_3   0.111072 0.241381 0.775072 -1.048680
H27   H     H_    0.235109 0.246175 0.797249 0.270645
H28   H     H_    0.033711 0.258298 0.822889 0.245302
H29   H     H_    0.079719 0.183737 0.745573 0.228675
P8    P     P_3+3 0.569748 0.427087 0.719874 0.509378
C15   C     C_3   0.634988 0.298656 0.729981 0.275677
H30   H     H_    0.730707 0.324225 0.771899 0.043386
O23   O     O_2   0.438357 0.477389 0.753766 -0.328842
O24   O     O_3   0.507253 0.344149 0.737243 -0.473941
H31   H     H_    0.683324 0.289182 0.673728 0.069813
C16   C     C_3   0.575945 0.225528 0.743906 0.137262
H32   H     H_    0.500804 0.237862 0.793079 0.178478
C17   C     C_R   0.992842 0.476791 0.049085 0.002344
C18   C     C_R   0.903631 0.439855 0.092300 0.126728
C19   C     C_R   0.750702 0.409634 0.066836 -0.178962
C20   C     C_R   0.687453 0.415410 0.998868 -0.196284
C21   C     C_R   0.777493 0.449829 0.954066 0.136903
C22   C     C_R   0.930596 0.480864 0.979138 0.023044
C23   C     C_R   0.718603 0.451154 0.883640 -0.270033
C24   C     C_R   0.813810 0.479231 0.835104 0.002193
C25   C     C_R   0.964859 0.513912 0.861384 0.067016
C26   C     C_R   0.022335 0.514616 0.933804 0.000777
C27   C     C_R   0.765803 0.470583 0.760078 0.117377
C28   C     C_R   0.868200 0.495638 0.712662 -0.457233
C29   C     C_R   0.014033 0.533810 0.738074 0.329250
C30   C     C_R   0.062067 0.544585 0.814305 0.017009
C31   C     C_R   0.145652 0.507701 0.074782 -0.012991
C32   C     C_R   0.207090 0.504381 0.145392 0.005997
C33   C     C_R   0.113936 0.469580 0.190542 -0.054131
C34   C     C_R   0.967553 0.433846 0.160429 -0.131584
H33   H     H_    0.679580 0.381661 0.099632 0.129708
H34   H     H_    0.569211 0.391454 0.980571 0.142272
H35   H     H_    0.831171 0.487188 0.655082 0.160739
H36   H     H_    0.600554 0.427005 0.866164 0.185833
H37   H     H_    0.900788 0.401441 0.189640 0.157806
C35   C     C_R   0.207828 0.581278 0.844185 -0.114312
C36   C     C_R   0.266798 0.580102 0.914921 0.122438
C37   C     C_R   0.174914 0.545776 0.959569 0.023103
C38   C     C_R   0.236637 0.542180 0.029821 0.019468
C39   C     C_R   0.418900 0.611010 0.941018 -0.169140
C40   C     C_R   0.480881 0.606348 0.009574 -0.180604
C41   C     C_R   0.390722 0.572084 0.054395 0.117217
C42   C     C_R   0.362036 0.535239 0.170081 -0.040610
C43   C     C_R   0.452866 0.567532 0.123237 -0.233972
C44   C     C_R   0.421652 0.532457 0.240672 0.165118
C45   C     C_R   0.326855 0.499575 0.285089 -0.434692
C46   C     C_R   0.171635 0.470812 0.263496 0.264352
H38   H     H_    0.279082 0.609058 0.812018 0.161274
H39   H     H_    0.491329 0.638130 0.908159 0.143404
H40   H     H_    0.599622 0.629775 0.027629 0.142860
H41   H     H_    0.573148 0.589131 0.139234 0.188048
H42   H     H_    0.376951 0.494274 0.336944 0.211897
C47   C     C_R   0.684969 0.954937 0.549906 0.010915
C48   C     C_R   0.771638 0.909118 0.582673 -0.190541
C49   C     C_R   0.893924 0.056962 0.579586 -0.196728
C50   C     C_R   0.741900 0.027339 0.550465 0.075759
C51   C     C_R   0.946035 0.127535 0.579776 -0.202133
C52   C     C_R   0.849266 0.172584 0.551458 0.059549
C53   C     C_R   0.699648 0.143300 0.517194 -0.022347
C54   C     C_R   0.645987 0.070815 0.517763 0.028876
C55   C     C_R   0.898663 0.245713 0.555861 0.100635
C56   C     C_R   0.794181 0.289420 0.529736 -0.486230
C57   C     C_R   0.657389 0.259309 0.485930 0.307463
C58   C     C_R   0.607306 0.184603 0.479154 -0.189717
C59   C     C_R   0.533402 0.927484 0.516792 0.064074
C60   C     C_R   0.479762 0.853719 0.509735 0.007030
C61   C     C_R   0.576067 0.807021 0.537152 -0.137446
C62   C     C_R   0.716763 0.837593 0.577604 0.028959
H43   H     H_    0.831417 0.345705 0.534632 0.165728
H44   H     H_    0.063557 0.146203 0.603272 0.167172
H45   H     H_    0.789147 0.806633 0.604859 0.217404
C63   C     C_R   0.471419 0.147293 0.436282 0.556142
C64   C     C_R   0.415711 0.080019 0.442821 -0.260188
C65   C     C_R   0.495656 0.042237 0.485607 -0.039504
C66   C     C_R   0.434650 0.973140 0.489849 0.089164
C67   C     C_R   0.276135 0.948241 0.467652 -0.218873
C68   C     C_R   0.327704 0.827387 0.476587 -0.050375
C69   C     C_R   0.225144 0.876580 0.459463 -0.108606
C70   C     C_R   0.281380 0.752964 0.462091 0.018869
C71   C     C_R   0.388427 0.705248 0.479879 0.061063
C72   C     C_R   0.528122 0.731741 0.523334 0.124640
H46   H     H_    0.104493 0.860768 0.438620 0.174724
H47   H     H_    0.977087 0.026701 0.602347 0.141178
H48   H     H_    0.882712 0.926978 0.613275 0.162485
H49   H     H_    0.313698 0.054692 0.407871 0.177099
H50   H     H_    0.187914 0.983449 0.456326 0.141860
Cl1   Cl    Cl    0.084036 0.821932 0.697366 -0.549112
C73   C     C_3   0.031668 0.289749 0.404674 -0.768278
H51   H     H_    0.040889 0.341494 0.448604 0.243945
H52   H     H_    0.971417 0.245456 0.423510 0.198330
H53   H     H_    0.149152 0.270961 0.390411 0.302057
Cl2   Cl    Cl    0.861993 0.693733 0.758721 -0.596888
C74   C     C_3   0.345349 0.317924 0.290571 -0.719952
H54   H     H_    0.274655 0.267877 0.291504 0.267092
H55   H     H_    0.336857 0.361750 0.341859 0.237270
H56   H     H_    0.298148 0.336918 0.243232 0.181806
C75   C     C_3   0.607542 0.366193 0.266695 -0.933025
H57   H     H_    0.611336 0.410815 0.318292 0.276754
H58   H     H_    0.726946 0.349976 0.249121 0.239668
H59   H     H_    0.552189 0.386101 0.221656 0.200550
Cl3   Cl    Cl    0.150366 0.379956 0.772943 -0.642258
C76   C     C_3   0.713643 0.184226 0.764158 -1.024791
H60   H     H_    0.773849 0.216141 0.816768 0.251919
H61   H     H_    0.668399 0.131346 0.772760 0.286085
H62   H     H_    0.799414 0.173665 0.719158 0.272369
C77   C     C_3   0.475970 0.177312 0.677363 -0.752850
H63   H     H_    0.536010 0.127390 0.650924 0.234093
H64   H     H_    0.360684 0.159164 0.696003 0.233654
H65   H     H_    0.452228 0.206179 0.634053 0.270329
Cl4   Cl    Cl    0.366327 0.170559 0.364767 -0.695050
Cl5   Cl    Cl    0.347771 0.611408 0.446842 -0.597946

loop_
_geom_bond_atom_site_label_1
_geom_bond_atom_site_label_2
_geom_bond_distance
_ccdc_geom_bond_type
O5    C6    1.391286 S    
C21   C22   1.408326 A    
C27   C28   1.404262 A    
C48   H48   1.077077 S    
C7    H15   1.112087 S    
C37   C38   1.420242 A    
C74   H54   1.102681 S    
C15   O24   1.404873 S    
O6    P6    1.751565 S    
O7    Ba1   2.859185 S    
O19   C13   1.405014 S    
C52   C53   1.419670 A    
H1    C10   1.111591 S    
P5    O17   1.751795 S    
C41   C43   1.402781 A    
C66   C67   1.410111 A    
C47   C48   1.411969 A    
C75   H58   1.101162 S    
C19   C20   1.398652 A    
C45   C46   1.400395 A    
C4    C5    1.527278 S    
C55   C56   1.405250 A    
P5    C55   1.877916 S    
C34   H37   1.072299 S    
O16   Ba2   2.955638 S    
C45   H42   1.078616 S    
P3    O11   1.748448 S    
C17   C18   1.408023 A    
C48   C62   1.395755 A    
C5    H10   1.110546 S    
C74   H55   1.103493 S    
C76   H60   1.108692 S    
C7    H13   1.103607 S    
C8    H16   1.110649 S    
O2    Ba2   2.810357 S    
C58   C63   1.427040 A    
C35   C36   1.407327 A    
C50   C54   1.422121 A    
C64   C65   1.391100 A    
P1    Ba1   3.405790 S    
C11   C74   1.488926 S    
C10   H20   1.110336 S    
C12   H23   1.112645 S    
P1    O1    1.548808 D    
C13   Cl3   1.764894 S    
C16   C76   1.529335 S    
Ba1   O20   2.956499 S    
C13   C14   1.522080 S    
C39   C40   1.398021 A    
C73   H53   1.086541 S    
C25   C30   1.427976 A    
C43   H41   1.079502 S    
C26   C37   1.407785 A    
C9    H19   1.099428 S    
C63   Cl4   1.748975 S    
C2    H4    1.114343 S    
C11   O22   1.423238 S    
C49   H47   1.077031 S    
C56   C57   1.404327 A    
P7    O22   1.792100 S    
Ba1   O13   2.809688 S    
P2    O10   1.759309 S    
C36   C37   1.409198 A    
C2    C3    1.520655 S    
C75   H59   1.111423 S    
C54   C65   1.409291 A    
C1    H2    1.110757 S    
C6    C73   1.505253 S    
P2    Ba1   3.433868 S    
C76   H62   1.108084 S    
O3    Ba1   2.812112 S    
C12   H22   1.111213 S    
C77   H64   1.108772 S    
C17   C22   1.419312 A    
C35   H38   1.073287 S    
C73   H52   1.101329 S    
P2    O20   1.574316 S    
P2    C72   1.877810 S    
C13   H26   1.108543 S    
O6    C10   1.404848 S    
P8    O23   1.542164 D    
P4    O13   1.558807 S    
C31   C32   1.424026 A    
C71   Cl5   1.747724 S    
C67   C69   1.379328 A    
Ba2   O20   2.811432 S    
C77   H65   1.110153 S    
C69   H46   1.079492 S    
C11   C75   1.517194 S    
C68   C69   1.398544 A    
P1    O5    1.750728 S    
C18   C34   1.404969 A    
C16   C77   1.542677 S    
C22   C26   1.411454 A    
C59   C60   1.426491 A    
C74   H56   1.111828 S    
C15   H30   1.110689 S    
C38   C41   1.407807 A    
C75   H57   1.107428 S    
C14   H28   1.108712 S    
C20   C21   1.404021 A    
O11   C2    1.405633 S    
C32   C42   1.419753 A    
C59   C66   1.409358 A    
C4    H8    1.105536 S    
C16   H32   1.110525 S    
C47   C59   1.419231 A    
O1    Ba1   2.816514 S    
P1    O2    1.558776 S    
C6    C7    1.534782 S    
C39   H39   1.080262 S    
C12   H24   1.101541 S    
C56   H43   1.082280 S    
C33   C46   1.430709 A    
C57   C58   1.436890 A    
C31   C38   1.411097 A    
C64   H49   1.079801 S    
C33   C34   1.408670 A    
P5    O18   1.545915 D    
O13   Ba2   2.970834 S    
C1    C10   1.519683 S    
P1    C46   1.896386 S    
C18   C19   1.404184 A    
O2    Ba1   2.969902 S    
C1    H3    1.110747 S    
C4    O15   1.397568 S    
C3    H25   1.110306 S    
O14   Ba2   2.811433 S    
C9    H17   1.111593 S    
P2    O7    1.532309 D    
O12   Ba2   2.817149 S    
P7    O21   1.580413 D    
P3    O8    1.734381 S    
O3    P6    1.739643 S    
C49   C50   1.410541 A    
C36   C39   1.404191 A    
C3    H7    1.110550 S    
C51   H44   1.078188 S    
Ba1   O16   2.812029 S    
C51   C52   1.403765 A    
C20   H34   1.083736 S    
C52   C55   1.415215 A    
C25   C26   1.423258 A    
C19   H33   1.083205 S    
P4    O12   1.549039 D    
P8    C27   1.859836 S    
C24   C27   1.415527 A    
C42   C43   1.412194 A    
C30   C35   1.409426 A    
C77   H63   1.106964 S    
C40   C41   1.403033 A    
C68   C70   1.406341 A    
C71   C72   1.407607 A    
O4    P6    1.541015 D    
C3    H6    1.111078 S    
C61   C72   1.425861 A    
C15   H31   1.111072 S    
C60   C61   1.416180 A    
C47   C50   1.435053 A    
C62   H45   1.076261 S    
C15   C16   1.543145 S    
C28   H35   1.081970 S    
C14   H29   1.109564 S    
O8    Ba1   2.779824 S    
Ba2   O21   2.859438 S    
C4    H9    1.109902 S    
C61   C62   1.405333 A    
C65   C66   1.411343 A    
O17   Ba2   2.780482 S    
C6    H12   1.094888 S    
C5    H11   1.101705 S    
C53   C54   1.434411 A    
P3    C70   1.864956 S    
C14   H27   1.105896 S    
C23   H36   1.080661 S    
P4    C29   1.889910 S    
C70   C71   1.407110 A    
C8    C9    1.516585 S    
C24   C25   1.419178 A    
C73   H51   1.106178 S    
C42   C44   1.415402 A    
P6    C44   1.861678 S    
P5    O19   1.751995 S    
C9    H18   1.107303 S    
C5    Cl1   1.780468 S    
C76   H61   1.111162 S    
C7    H14   1.109440 S    
O10   C8    1.399190 S    
C40   H40   1.083758 S    
Ba1   Ba2   4.667952 S    
C28   C29   1.402326 A    
O16   P7    1.774586 S    
C60   C68   1.418741 A    
O14   P8    1.742624 S    
C53   C58   1.434690 A    
P4    Ba2   3.406372 S    
C8    Cl2   1.772008 S    
C67   H50   1.080005 S    
C1    H21   1.110484 S    
C32   C33   1.427114 A    
C17   C31   1.407881 A    
P3    O9    1.543934 D    
C29   C30   1.431312 A    
C49   C51   1.392662 A    
C21   C23   1.402489 A    
C63   C64   1.379088 A    
C11   C12   1.548274 S    
C44   C45   1.403620 A    
C23   C24   1.412627 A    
P8    O24   1.752324 S    
P7    C57   1.874535 S    
P4    O15   1.750471 S    
C2    H5    1.110599 S    
