data_mof_unit_6435.cif
_audit_creation_date              2012-12-10T20:53:07-0500
_audit_creation_method            fapswitch 2.2
_symmetry_space_group_name_H-M    P1
_symmetry_Int_Tables_number       1
_space_group_crystal_system       triclinic
_cell_length_a                    18.305941
_cell_length_b                    18.276068
_cell_length_c                    18.336366
_cell_angle_alpha                 60.334807
_cell_angle_beta                  60.191284
_cell_angle_gamma                 60.089291
_cell_volume                      4357.94343899

loop_
_atom_site_label
_atom_site_type_symbol
_atom_type_description
_atom_site_fract_x
_atom_site_fract_y
_atom_site_fract_z
_atom_type_partial_charge
C1    C     C_R   0.389758 0.110116 0.110195 0.485026
C2    C     C_R   0.338543 0.802570 0.811441 -0.127983
C3    C     C_R   0.983238 0.593119 0.966058 0.011492
C4    C     C_R   0.477114 0.094247 0.960778 0.007991
C5    C     C_R   0.522873 0.905751 0.039222 0.007987
C6    C     C_R   0.946107 0.945851 0.554578 0.002045
C7    C     C_R   0.053891 0.054150 0.445424 0.002032
C8    C     C_R   0.963342 0.553990 0.930678 -0.024478
C9    C     C_R   0.036658 0.446009 0.069322 -0.024479
C10   C     C_R   0.554304 0.945953 0.945922 0.011171
C11   C     C_R   0.445695 0.054045 0.054079 0.011170
C12   C     C_1   0.964795 0.680477 0.278415 0.165574
C13   C     C_R   0.176037 0.001603 0.667971 -0.112947
C14   C     C_1   0.035206 0.319517 0.721583 0.165566
C15   C     C_1   0.593935 0.272199 0.964764 0.191294
C16   C     C_1   0.406060 0.727798 0.035237 0.191289
C17   C     C_1   0.386659 0.897409 0.462371 0.166160
C18   C     C_1   0.613277 0.102555 0.537726 0.166138
C19   C     C_R   0.823929 0.998537 0.332021 -0.112960
C20   C     C_R   0.195566 0.554237 0.296477 -0.078092
C21   C     C_R   0.804433 0.445764 0.703524 -0.078089
C22   C     C_R   0.613429 0.286477 0.151943 -0.107712
C23   C     C_R   0.386573 0.713526 0.848051 -0.107713
C24   C     C_R   0.258924 0.011320 0.635352 -0.095805
C25   C     C_R   0.741065 0.988774 0.364635 -0.095826
C26   C     C_R   0.102411 0.581334 0.320302 0.045684
C27   C     C_R   0.610242 0.889883 0.889805 0.485028
C28   C     C_R   0.897589 0.418665 0.679698 0.045684
C29   C     C_R   0.589386 0.312513 0.078683 0.038509
C30   C     C_R   0.410614 0.687487 0.921313 0.038508
C31   C     C_R   0.329438 0.977847 0.567067 0.036963
C32   C     C_R   0.670540 0.022188 0.432954 0.036979
C33   C     C_R   0.060145 0.650972 0.257440 0.020162
C34   C     C_R   0.939856 0.349025 0.742559 0.020159
C35   C     C_R   0.614987 0.247883 0.041686 0.041719
C36   C     C_R   0.385011 0.752116 0.958312 0.041721
C37   C     C_R   0.315990 0.933484 0.532111 0.024375
C38   C     C_R   0.110224 0.110051 0.389649 0.480437
C39   C     C_R   0.683956 0.066539 0.467950 0.024377
C40   C     C_R   0.111437 0.691785 0.172402 -0.119653
C41   C     C_R   0.888564 0.308211 0.827596 -0.119657
C42   C     C_R   0.662391 0.158558 0.079539 -0.100208
C43   C     C_R   0.337609 0.841442 0.920460 -0.100208
C44   C     C_R   0.232640 0.923852 0.565580 -0.107814
C45   C     C_R   0.767283 0.076216 0.434488 -0.107829
C46   C     C_R   0.203910 0.663699 0.149436 -0.107515
C47   C     C_R   0.796091 0.336298 0.850564 -0.107519
C48   C     C_R   0.685531 0.133518 0.152689 -0.117143
C49   C     C_R   0.889775 0.889950 0.610351 0.480439
C50   C     C_R   0.314470 0.866484 0.847307 -0.117139
C51   C     C_R   0.162854 0.958127 0.633004 -0.102228
C52   C     C_R   0.837079 0.042000 0.367028 -0.102235
C53   C     C_R   0.993816 0.589162 0.467500 -0.134258
C54   C     C_R   0.006184 0.410838 0.532500 -0.134257
C55   C     C_R   0.591373 0.464733 0.986558 -0.158956
C56   C     C_R   0.408627 0.535267 0.013438 -0.158953
C57   C     C_R   0.469954 0.941856 0.584984 -0.143219
C58   C     C_R   0.530047 0.058143 0.415016 -0.143226
C59   C     C_R   0.943892 0.552472 0.555169 0.023004
C60   C     C_R   0.102884 0.389912 0.116805 0.494152
C61   C     C_R   0.056107 0.447528 0.444831 0.023005
C62   C     C_R   0.551818 0.555733 0.946291 0.025026
C63   C     C_R   0.448182 0.444267 0.053706 0.025026
C64   C     C_R   0.554016 0.948836 0.553546 0.038217
C65   C     C_R   0.445985 0.051163 0.446455 0.038205
C66   C     C_R   0.949978 0.462063 0.588306 -0.025201
C67   C     C_R   0.050022 0.537936 0.411694 -0.025202
C68   C     C_R   0.458802 0.591792 0.960579 -0.029381
C69   C     C_R   0.541198 0.408208 0.039417 -0.029382
C70   C     C_R   0.584213 0.008308 0.467929 -0.020199
C71   C     C_R   0.897116 0.610088 0.883195 0.494153
C72   C     C_R   0.415785 0.991696 0.532074 -0.020205
C73   C     C_R   0.111203 0.390445 0.389587 0.497246
C74   C     C_R   0.888797 0.609554 0.610413 0.497244
C75   C     C_R   0.390588 0.389625 0.110166 0.507595
C76   C     C_R   0.609412 0.610375 0.889833 0.507592
C77   C     C_R   0.390041 0.108835 0.390053 0.512159
C78   C     C_R   0.609959 0.891164 0.609947 0.512169
C79   C     C_R   0.175089 0.931309 0.388035 -0.102667
C80   C     C_R   0.824908 0.068693 0.611964 -0.102687
C81   C     C_R   0.020402 0.316505 0.073126 -0.077419
C82   C     C_R   0.246040 0.595053 0.211212 -0.093333
C83   C     C_R   0.979598 0.683495 0.926874 -0.077418
C84   C     C_R   0.454536 0.188201 0.920468 -0.070805
C85   C     C_R   0.545427 0.811800 0.079531 -0.070806
C86   C     C_R   0.207393 0.844733 0.386956 -0.119743
C87   C     C_R   0.792602 0.155270 0.613040 -0.119763
C88   C     C_R   0.016678 0.275945 0.028286 -0.121312
C89   C     C_R   0.983322 0.724055 0.971714 -0.121311
C90   C     C_R   0.485607 0.226867 0.828297 -0.095740
C91   C     C_R   0.514346 0.773135 0.171702 -0.095737
C92   C     C_R   0.154142 0.791026 0.441194 -0.121017
C93   C     C_R   0.753960 0.404946 0.788788 -0.093335
C94   C     C_R   0.845853 0.208976 0.558805 -0.121021
C95   C     C_R   0.008539 0.324548 0.944311 -0.110242
C96   C     C_R   0.991461 0.675452 0.055689 -0.110241
C97   C     C_R   0.539517 0.173197 0.774563 -0.109557
C98   C     C_R   0.460456 0.826804 0.225436 -0.109583
C99   C     C_R   0.068220 0.823656 0.496728 -0.097073
C100  C     C_R   0.931778 0.176344 0.503275 -0.097081
C101  C     C_R   0.995479 0.415668 0.908968 -0.070894
C102  C     C_R   0.004520 0.584332 0.091032 -0.070893
C103  C     C_R   0.562838 0.080544 0.812684 -0.084361
C104  C     C_R   0.661460 0.197434 0.188553 -0.127991
C105  C     C_R   0.437159 0.919455 0.187316 -0.084377
C106  C     C_R   0.033106 0.912036 0.498065 0.004011
C107  C     C_R   0.966893 0.087965 0.501938 0.004005
C108  C     C_R   0.991190 0.459637 0.957305 0.007789
C109  C     C_R   0.008810 0.540363 0.042694 0.007790
C110  C     C_R   0.531952 0.039709 0.906190 0.007634
C111  C     C_R   0.468045 0.960289 0.093810 0.007635
C112  C     C_R   0.087374 0.966637 0.442974 -0.000811
C113  C     C_R   0.912625 0.033365 0.557028 -0.000802
C114  C     C_R   0.016763 0.406881 0.033942 0.011492
H1    H     H_    0.820250 0.276524 0.559210 0.116516
H2    H     H_    0.337794 0.563027 0.022964 0.142798
H3    H     H_    0.447499 0.895283 0.650054 0.137213
H4    H     H_    0.552500 0.104719 0.349948 0.137211
H5    H     H_    0.220136 0.969426 0.346072 0.126280
H6    H     H_    0.779860 0.030577 0.653924 0.126272
H7    H     H_    0.023139 0.276900 0.139691 0.146233
H8    H     H_    0.976861 0.723100 0.860309 0.146234
H9    H     H_    0.412666 0.232668 0.959575 0.124757
H10   H     H_    0.587281 0.767333 0.040423 0.124769
H11   H     H_    0.274290 0.818946 0.344323 0.119637
H12   H     H_    0.179743 0.723479 0.440787 0.116514
H13   H     H_    0.725700 0.181061 0.655668 0.119633
H14   H     H_    0.021833 0.206260 0.058088 0.112281
H15   H     H_    0.978167 0.793740 0.941912 0.112283
H16   H     H_    0.467715 0.298803 0.798475 0.126450
H17   H     H_    0.532210 0.701201 0.201524 0.126466
H18   H     H_    0.030368 0.778367 0.538941 0.123266
H19   H     H_    0.969632 0.221631 0.461065 0.123270
H20   H     H_    0.991426 0.450373 0.842571 0.149321
H21   H     H_    0.008574 0.549627 0.157429 0.149321
H22   H     H_    0.604944 0.041509 0.768177 0.121035
H23   H     H_    0.989493 0.707964 0.092687 0.120854
H24   H     H_    0.395067 0.958490 0.231822 0.121027
H25   H     H_    0.242687 0.695332 0.083503 0.115222
H26   H     H_    0.757314 0.304665 0.916496 0.115222
H27   H     H_    0.722566 0.064545 0.181282 0.112788
H28   H     H_    0.277437 0.935457 0.818714 0.112802
H29   H     H_    0.098513 0.950894 0.658191 0.119929
H30   H     H_    0.901402 0.049270 0.341844 0.119927
H31   H     H_    0.317829 0.573514 0.193040 0.128334
H32   H     H_    0.682171 0.426487 0.806961 0.128331
H33   H     H_    0.679950 0.178009 0.244854 0.120886
H34   H     H_    0.010506 0.292037 0.907313 0.120854
H35   H     H_    0.320053 0.821997 0.755138 0.120878
H36   H     H_    0.121898 0.028034 0.720271 0.113516
H37   H     H_    0.878075 0.972154 0.279692 0.113508
H38   H     H_    0.228958 0.501352 0.343983 0.102954
H39   H     H_    0.771042 0.498650 0.656019 0.102956
H40   H     H_    0.595220 0.335361 0.180416 0.112299
H41   H     H_    0.404783 0.664643 0.819577 0.112301
H42   H     H_    0.267967 0.045880 0.662548 0.121844
H43   H     H_    0.732048 0.954227 0.337404 0.121816
H44   H     H_    0.079971 0.745464 0.123669 0.099608
H45   H     H_    0.436728 0.796483 0.297001 0.129975
H46   H     H_    0.920030 0.254530 0.876328 0.099607
H47   H     H_    0.682015 0.108346 0.052058 0.117270
H48   H     H_    0.317984 0.891653 0.947943 0.117272
H49   H     H_    0.221589 0.889796 0.539515 0.115156
H50   H     H_    0.778307 0.110266 0.460582 0.115155
H51   H     H_    0.563241 0.203518 0.702998 0.129969
H52   H     H_    0.990580 0.657990 0.442395 0.142292
H53   H     H_    0.009420 0.342010 0.557604 0.142288
H54   H     H_    0.662206 0.436973 0.977032 0.142799
N1    N     N_1   0.888368 0.704100 0.295250 -0.305073
N2    N     N_1   0.111634 0.295892 0.704746 -0.305087
N3    N     N_1   0.577130 0.291872 0.903025 -0.331085
N4    N     N_1   0.422863 0.708122 0.096979 -0.331110
N5    N     N_1   0.443388 0.868594 0.406403 -0.322569
N6    N     N_1   0.556536 0.131322 0.593725 -0.322565
O1    O     O_3   0.250000 0.250000 0.250000 -0.442168
O2    O     O_R   0.865800 0.694910 0.573470 -0.547097
O3    O     O_R   0.305090 0.426530 0.134200 -0.546091
O4    O     O_R   0.694910 0.573470 0.865800 -0.546091
O5    O     O_R   0.426530 0.134200 0.305090 -0.541056
O6    O     O_R   0.573470 0.865800 0.694910 -0.541048
O7    O     O_R   0.134190 0.426530 0.134200 -0.547393
O8    O     O_R   0.865810 0.573470 0.865800 -0.547393
O9    O     O_R   0.426530 0.134200 0.134190 -0.534948
O10   O     O_R   0.573470 0.865800 0.865810 -0.534949
O11   O     O_R   0.134200 0.134190 0.426530 -0.538789
O12   O     O_3   0.750000 0.750000 0.750000 -0.442171
O13   O     O_R   0.865800 0.865810 0.573470 -0.538783
O14   O     O_R   0.426530 0.305080 0.134210 -0.534222
O15   O     O_R   0.573470 0.694920 0.865790 -0.534225
O16   O     O_R   0.305080 0.134210 0.426530 -0.529460
O17   O     O_R   0.694920 0.865790 0.573470 -0.529462
O18   O     O_R   0.134210 0.426530 0.305080 -0.541521
O19   O     O_R   0.865790 0.573470 0.694920 -0.541522
O20   O     O_R   0.305080 0.134200 0.134200 -0.543514
O21   O     O_R   0.694920 0.865800 0.865800 -0.543513
O22   O     O_R   0.134200 0.134200 0.305080 -0.555893
O23   O     O_R   0.865800 0.865800 0.694920 -0.555894
O24   O     O_R   0.134200 0.305080 0.134200 -0.549774
O25   O     O_R   0.865800 0.694920 0.865800 -0.549773
O26   O     O_R   0.134200 0.305090 0.426530 -0.547099
Zn1   Zn    Zn3+2 0.206620 0.206630 0.380140 0.937701
Zn2   Zn    Zn3+2 0.793380 0.793370 0.619860 0.937709
Zn3   Zn    Zn3+2 0.206630 0.380140 0.206620 0.929234
Zn4   Zn    Zn3+2 0.793370 0.619860 0.793380 0.929232
Zn5   Zn    Zn3+2 0.380140 0.206620 0.206630 0.949457
Zn6   Zn    Zn3+2 0.619860 0.793380 0.793370 0.949463
Zn7   Zn    Zn3+2 0.206620 0.206620 0.206620 0.918001
Zn8   Zn    Zn3+2 0.793380 0.793380 0.793380 0.918004

loop_
_geom_bond_atom_site_label_1
_geom_bond_atom_site_label_2
_ccdc_geom_bond_type
C10   C27   S    
C24   H42   S    
C80   H6    S    
C22   C29   A    
C23   H41   S    
C75   O14   A    
C1    C11   S    
O1    Zn7   S    
C54   H53   S    
C103  H22   S    
O1    Zn5   S    
O5    Zn5   S    
C1    O9    A    
C42   H47   S    
C22   C104  A    
C85   C91   A    
C106  C112  A    
C101  H20   S    
C84   H9    S    
C40   C46   A    
O20   Zn7   S    
O13   Zn2   S    
C77   O5    A    
O19   Zn4   S    
C21   C93   A    
C99   H18   S    
C103  C110  A    
C78   O6    A    
C26   C67   S    
C40   H44   S    
C73   O26   A    
C45   H50   S    
C3    C109  A    
C13   H36   S    
C80   C87   A    
C76   O4    A    
C59   C66   A    
C97   H51   S    
C91   H17   S    
C96   C102  A    
C108  C114  A    
C48   C104  A    
C87   C94   A    
C58   H4    S    
O10   Zn6   S    
C7    C112  A    
O12   Zn2   S    
C85   H10   S    
C32   C39   A    
O11   Zn1   S    
C15   C35   S    
C35   C42   A    
C16   N4    T    
C27   O10   A    
C107  C113  A    
C76   O15   A    
C2    C50   A    
C105  H24   S    
C13   C51   A    
C19   C52   A    
C7    C38   S    
O21   Zn8   S    
C63   C69   A    
O26   Zn1   S    
C8    C71   S    
C79   H5    S    
C47   H26   S    
O23   Zn8   S    
C19   H37   S    
O3    Zn3   S    
C44   H49   S    
C64   C70   A    
C90   C97   A    
C89   C96   A    
C60   O24   A    
C39   C45   A    
C5    C85   A    
C101  C108  A    
C105  C111  A    
C88   C95   A    
C28   C34   A    
C57   C72   A    
C46   C82   A    
C86   H11   S    
C9    C109  A    
C104  H33   S    
C62   C76   S    
O7    Zn3   S    
C34   C41   A    
C84   C90   A    
C55   H54   S    
O6    Zn6   S    
C8    C108  A    
C87   H13   S    
C41   C47   A    
C17   N5    T    
C29   C69   S    
C53   C59   A    
C83   C89   A    
O14   Zn5   S    
C33   C40   A    
C65   C77   S    
O12   Zn6   S    
C11   C111  A    
C81   C88   A    
C23   C30   A    
O2    Zn2   S    
C93   H32   S    
O1    Zn1   S    
C3    C8    A    
C96   H23   S    
C58   C70   A    
C32   C70   S    
C56   H2    S    
C45   C52   A    
C61   C73   S    
C56   C68   A    
C20   H38   S    
C13   C24   A    
C81   H7    S    
C81   C114  A    
C42   C48   A    
C28   C66   S    
C18   C39   S    
C43   H48   S    
C6    C113  A    
C74   O2    A    
C41   H46   S    
C61   C67   A    
C58   C65   A    
C4    C84   A    
C94   C100  A    
O15   Zn6   S    
C6    C106  A    
C56   C63   A    
C15   N3    T    
C49   O13   A    
O16   Zn1   S    
C52   H30   S    
C49   O23   A    
C4    C11   A    
C98   C105  A    
C59   C74   S    
C97   C103  A    
C79   C112  A    
C44   C51   A    
C55   C62   A    
C31   C72   S    
O17   Zn2   S    
C21   C28   A    
C51   H29   S    
C25   H43   S    
C102  H21   S    
O8    Zn4   S    
C98   H45   S    
C27   O21   A    
C9    C114  A    
C65   C72   A    
C18   N6    T    
O12   Zn4   S    
C82   H31   S    
C100  H19   S    
C63   C75   S    
C57   C64   A    
C57   H3    S    
C22   H40   S    
C60   O7    A    
C99   C106  A    
C4    C110  A    
C100  C107  A    
C47   C93   A    
O24   Zn7   S    
C64   C78   S    
C78   O17   A    
C36   C43   A    
C92   H12   S    
C14   C34   S    
C94   H1    S    
C43   C50   A    
C71   O25   A    
C12   N1    T    
C54   C66   A    
C54   C61   A    
C17   C37   S    
C38   O11   A    
C5    C111  A    
C29   C35   A    
C95   C101  A    
O4    Zn4   S    
C30   C36   A    
C83   H8    S    
C9    C60   S    
C55   C69   A    
O22   Zn7   S    
C71   O8    A    
C1    O20   A    
C24   C31   A    
O1    Zn3   S    
C5    C10   A    
C88   H14   S    
C86   C92   A    
C53   C67   A    
C16   C36   S    
C3    C83   A    
C20   C26   A    
C14   N2    T    
C2    H35   S    
O9    Zn5   S    
C77   O16   A    
O25   Zn8   S    
O18   Zn3   S    
C38   O22   A    
C48   H27   S    
C10   C110  A    
C7    C107  A    
C62   C68   A    
C91   C98   A    
O12   Zn8   S    
C75   O3    A    
C74   O19   A    
C73   O18   A    
C19   C25   A    
C90   H16   S    
C37   C44   A    
C31   C37   A    
C53   H52   S    
C95   H34   S    
C80   C113  A    
C92   C99   A    
C20   C82   A    
C2    C23   A    
C21   H39   S    
C102  C109  A    
C12   C33   S    
C89   H15   S    
C79   C86   A    
C30   C68   S    
C6    C49   S    
C50   H28   S    
C26   C33   A    
C46   H25   S    
C25   C32   A    
