data_mof_unit_48759.cif
_audit_creation_date              2012-12-10T17:15:15-0500
_audit_creation_method            fapswitch 2.2
_symmetry_space_group_name_H-M    P1
_symmetry_Int_Tables_number       1
_space_group_crystal_system       triclinic
_cell_length_a                    15.894501
_cell_length_b                    13.12183
_cell_length_c                    11.81928
_cell_angle_alpha                 100.255378
_cell_angle_beta                  93.265792
_cell_angle_gamma                 92.861895
_cell_volume                      2417.23436074

loop_
_atom_site_label
_atom_site_type_symbol
_atom_type_description
_atom_site_fract_x
_atom_site_fract_y
_atom_site_fract_z
_atom_type_partial_charge
C1    C     C_R   0.500252 0.298990 0.478218 0.822937
C2    C     C_R   0.499976 0.700711 0.521855 0.825357
C3    C     C_R   0.486213 0.012049 0.342369 -0.028391
C4    C     C_R   0.470518 0.983067 0.647950 0.030853
C5    C     C_R   0.486779 0.120872 0.353896 0.107158
C6    C     C_R   0.469509 0.874686 0.637036 0.068792
C7    C     C_R   0.506496 0.136687 0.563256 0.040306
C8    C     C_R   0.509559 0.861679 0.438369 0.084310
C9    C     C_R   0.488710 0.029501 0.551864 0.002900
C10   C     C_R   0.493114 0.966807 0.442588 -0.036893
C11   C     C_R   0.414174 0.403248 0.023543 0.068913
C12   C     C_R   0.583866 0.594355 0.976383 0.062971
C13   C     C_R   0.419949 0.418684 0.145413 0.133203
C14   C     C_R   0.577587 0.583513 0.855305 0.067721
C15   C     C_R   0.541736 0.532413 0.153262 0.310244
C16   C     C_R   0.458878 0.463146 0.841672 0.317241
C17   C     C_R   0.530535 0.531596 0.031944 0.015836
C18   C     C_R   0.466616 0.464789 0.964447 -0.136795
C19   C     C_R   0.340222 0.499734 0.500480 0.812411
C20   C     C_R   0.659784 0.500342 0.499534 0.821750
C21   C     C_3   0.969656 0.410541 0.526537 -0.063795
C22   C     C_3   0.030461 0.590083 0.473552 -0.094483
C23   C     C_3   0.021149 0.420122 0.421173 -0.072289
C24   C     C_3   0.978847 0.580507 0.578902 -0.104393
C25   C     C_1   0.250931 0.499886 0.501355 -0.109824
C26   C     C_1   0.749088 0.500331 0.498670 -0.095473
C27   C     C_3   0.032455 0.490954 0.602763 0.049979
C28   C     C_3   0.967598 0.509676 0.397320 0.049643
C29   C     C_3   0.084115 0.500353 0.498676 0.100084
C30   C     C_3   0.915928 0.500151 0.501373 0.098293
C31   C     C_1   0.175618 0.500063 0.500683 0.116889
C32   C     C_1   0.824411 0.500282 0.499348 0.121407
C33   C     C_R   0.494935 0.814213 0.534315 -0.111523
C34   C     C_R   0.499038 0.184310 0.464722 -0.110918
Cu1   Cu    Cu3+1 0.506200 0.507730 0.615930 0.962045
Cu2   Cu    Cu3+1 0.493800 0.492270 0.384070 0.950664
N1    N     N_R   0.515540 0.519350 0.790140 -0.216251
N2    N     N_R   0.484460 0.480650 0.209860 -0.267887
O1    O     O_R   0.504400 0.354460 0.582000 -0.581967
O2    O     O_R   0.495600 0.645540 0.418000 -0.568044
O3    O     O_R   0.493920 0.341410 0.386200 -0.579771
O4    O     O_R   0.506080 0.658590 0.613800 -0.634080
O5    O     O_R   0.384320 0.506520 0.597880 -0.555912
O6    O     O_R   0.615680 0.493480 0.402120 -0.611981
O7    O     O_R   0.373840 0.493460 0.402080 -0.589978
O8    O     O_R   0.626160 0.506540 0.597920 -0.549038
C35   C     C_2   0.041305 0.331023 0.330740 0.394996
H1    H     H_    0.990386 0.281345 0.281636 0.089339
O9    O     O_2   0.114406 0.313868 0.311901 -0.501279
C36   C     C_2   0.958626 0.669699 0.669173 0.375392
H2    H     H_    0.009515 0.719375 0.718353 0.074647
O10   O     O_2   0.885508 0.686947 0.687776 -0.489142
C37   C     C_2   0.939237 0.310293 0.558649 0.385088
H3    H     H_    0.984430 0.254531 0.575028 0.088642
O11   O     O_2   0.864167 0.290861 0.566519 -0.528136
C38   C     C_2   0.061034 0.690361 0.441640 0.358023
H4    H     H_    0.015923 0.746205 0.425235 0.080254
O12   O     O_2   0.136139 0.709728 0.433978 -0.530706
N3    N     N_3   0.931127 0.519151 0.284040 -0.576388
H5    H     H_    0.981144 0.528252 0.232315 0.245094
H6    H     H_    0.899870 0.588062 0.293754 0.220006
N4    N     N_3   0.068830 0.479820 0.715533 -0.580980
H7    H     H_    0.019276 0.479274 0.769890 0.246283
H8    H     H_    0.107465 0.546680 0.747665 0.218760
N5    N     N_3   0.554284 0.807462 0.345837 -0.580869
H9    H     H_    0.512142 0.775400 0.276191 0.237029
H10   H     H_    0.600144 0.857300 0.320676 0.251686
N6    N     N_3   0.546076 0.191049 0.671194 -0.570427
H11   H     H_    0.601969 0.230758 0.656608 0.263928
H12   H     H_    0.505371 0.242193 0.713927 0.230054
N7    N     N_3   0.438930 0.828017 0.729205 -0.514721
H13   H     H_    0.488818 0.797144 0.770520 0.246576
H14   H     H_    0.391599 0.770400 0.696429 0.229681
N8    N     N_3   0.475095 0.167225 0.253196 -0.563714
H15   H     H_    0.418447 0.136988 0.207412 0.241189
H16   H     H_    0.525606 0.151143 0.201342 0.282692
C39   C     C_2   0.464463 0.946175 0.227460 0.337784
H17   H     H_    0.416968 0.882458 0.218971 0.085095
O13   O     O_2   0.500125 0.960871 0.142483 -0.512517
C40   C     C_2   0.441679 0.046205 0.754708 0.480531
H18   H     H_    0.406226 0.113838 0.749103 0.016972
O14   O     O_2   0.457825 0.024185 0.849384 -0.485014
N9    N     N_3   0.388731 0.411015 0.769843 -0.528905
H19   H     H_    0.332375 0.439964 0.799369 0.211245
H20   H     H_    0.389465 0.330750 0.760222 0.186531
N10   N     N_3   0.618499 0.579904 0.212898 -0.544501
H21   H     H_    0.607135 0.626789 0.290220 0.282710
H22   H     H_    0.659482 0.522226 0.224125 0.240552
C41   C     C_2   0.638517 0.644507 0.800429 0.442436
H23   H     H_    0.618297 0.705592 0.756859 0.076523
O15   O     O_2   0.713436 0.628120 0.806288 -0.505833
C42   C     C_2   0.354623 0.363358 0.200575 0.503849
H24   H     H_    0.370208 0.324624 0.271069 0.104450
O16   O     O_2   0.280348 0.361048 0.166840 -0.500810
N11   N     N_3   0.360694 0.316212 0.964855 -0.561212
H25   H     H_    0.395964 0.263658 0.913234 0.224024
H26   H     H_    0.308250 0.339595 0.921411 0.246650
N12   N     N_3   0.641016 0.674034 0.043064 -0.549430
H27   H     H_    0.702949 0.658125 0.024125 0.270141
H28   H     H_    0.627397 0.745657 0.021567 0.233507

loop_
_geom_bond_atom_site_label_1
_geom_bond_atom_site_label_2
_ccdc_geom_bond_type
C25   C31   T    
C21   C37   S    
C11   C18   A    
C26   C32   T    
C22   C29   S    
C27   C29   S    
N11   H25   S    
C24   C27   S    
C35   O9    D    
C39   H17   S    
C15   N2    A    
N8    H16   S    
C23   C29   S    
Cu1   N1    S    
C4    C40   S    
N10   H22   S    
C38   H4    S    
C7    C9    A    
C5    N8    S    
Cu1   O4    S    
N4    H8    S    
C7    N6    S    
N9    H19   S    
N6    H11   S    
N5    H10   S    
C12   C17   A    
C36   O10   D    
C41   O15   D    
Cu1   O5    S    
C9    C10   A    
C12   N12   S    
C16   N1    A    
C39   O13   D    
C21   C27   S    
N3    H5    S    
C22   C28   S    
Cu2   O3    S    
C20   O6    A    
C19   O5    A    
C1    C34   S    
C36   H2    S    
C37   O11   D    
C24   C36   S    
C6    N7    S    
N3    H6    S    
C23   C35   S    
N8    H15   S    
Cu2   O2    S    
C4    C6    A    
N7    H14   S    
N10   H21   S    
C22   C38   S    
C37   H3    S    
C16   N9    S    
C19   O7    A    
Cu1   Cu2   S    
Cu1   O1    S    
C14   C41   S    
N4    H7    S    
C27   N4    S    
C35   H1    S    
C5    C34   A    
C42   O16   D    
C17   C18   A    
Cu2   O7    S    
C23   C28   S    
C13   N2    A    
C15   N10   S    
C2    C33   S    
C1    O3    A    
N9    H20   S    
C12   C14   A    
N5    H9    S    
N12   H28   S    
C21   C23   S    
C13   C42   S    
C7    C34   A    
C22   C24   S    
Cu2   O6    S    
C3    C39   S    
C28   N3    S    
C11   N11   S    
C15   C17   A    
C8    C10   A    
C40   H18   S    
C3    C5    A    
N11   H26   S    
C21   C30   S    
C6    C33   A    
Cu2   N2    S    
C4    C9    A    
N7    H13   S    
C29   C31   S    
C3    C10   A    
C14   N1    A    
C30   C32   S    
C11   C13   A    
C20   C26   S    
C2    O4    A    
C28   C30   S    
C42   H24   S    
C40   O14   D    
C38   O12   D    
C8    C33   A    
C19   C25   S    
C24   C30   S    
C1    O1    A    
C2    O2    A    
C8    N5    S    
C16   C18   A    
N12   H27   S    
N6    H12   S    
C41   H23   S    
Cu1   O8    S    
C20   O8    A    
