data_mof_unit_9285.cif
_audit_creation_date              2012-12-11T17:43:40-0500
_audit_creation_method            fapswitch 2.2
_symmetry_space_group_name_H-M    P1
_symmetry_Int_Tables_number       1
_space_group_crystal_system       triclinic
_cell_length_a                    15.155287
_cell_length_b                    15.020993
_cell_length_c                    17.062643
_cell_angle_alpha                 108.261527
_cell_angle_beta                  106.489093
_cell_angle_gamma                 108.998394
_cell_volume                      3149.28263489

loop_
_atom_site_label
_atom_site_type_symbol
_atom_type_description
_atom_site_fract_x
_atom_site_fract_y
_atom_site_fract_z
_atom_type_partial_charge
C1    C     C_R   0.083425 0.285680 0.077164 -0.120945
C2    C     C_R   0.078854 0.108855 0.127786 -0.221503
C3    C     C_R   0.989194 0.920908 0.073933 0.051340
C4    C     C_R   0.987523 0.106138 0.074319 0.055767
C5    C     C_R   0.079262 0.017723 0.132816 0.030336
C6    C     C_R   0.892709 0.015409 0.041095 0.032038
C7    C     C_R   0.710479 0.944920 0.927095 -0.179592
C8    C     C_R   0.150571 0.975440 0.260116 -0.132015
C9    C     C_R   0.597756 0.014774 0.967287 -0.100358
C10   C     C_R   0.334332 0.056431 0.354525 -0.102181
C11   C     C_R   0.608645 0.737955 0.319931 -0.087249
C12   C     C_R   0.908447 0.721529 0.976345 -0.115561
C13   C     C_R   0.459886 0.259358 0.673649 -0.117371
C14   C     C_R   0.575076 0.687651 0.225396 -0.138751
C15   C     C_R   0.474008 0.302581 0.764379 -0.122651
C16   C     C_R   0.936844 0.455838 0.735422 -0.104582
C17   C     C_R   0.067060 0.491089 0.256165 -0.134753
C18   C     C_R   0.527387 0.577399 0.178676 0.122553
C19   C     C_R   0.461065 0.393179 0.800203 0.105983
C20   C     C_R   0.512292 0.518017 0.227173 -0.176585
C21   C     C_R   0.431839 0.438214 0.742708 -0.160006
C22   C     C_R   0.543533 0.568612 0.321406 -0.095444
C23   C     C_R   0.028018 0.465937 0.726459 0.105365
C24   C     C_R   0.417277 0.394331 0.651859 -0.067738
C25   C     C_R   0.592352 0.678538 0.367869 -0.096317
C26   C     C_R   0.431585 0.305201 0.617443 -0.116850
C27   C     C_R   0.575326 0.496409 0.060414 -0.229051
C28   C     C_R   0.406397 0.469130 0.918744 -0.235004
C29   C     C_R   0.562651 0.456387 0.969984 0.061292
C30   C     C_R   0.421091 0.511580 0.009912 0.066146
C31   C     C_R   0.477532 0.440433 0.897262 0.019392
C32   C     C_R   0.505167 0.525233 0.081382 0.004912
C33   C     C_R   0.614641 0.945799 0.903241 -0.116327
C34   C     C_R   0.978718 0.442281 0.264846 0.128839
C35   C     C_R   0.233200 0.989653 0.333570 -0.086829
C36   C     C_R   0.979426 0.410296 0.337600 -0.041965
C37   C     C_R   0.041040 0.421632 0.642046 -0.039860
C38   C     C_R   0.153498 0.470103 0.571509 0.771512
C39   C     C_R   0.889733 0.291496 0.387864 0.817026
C40   C     C_R   0.742744 0.203584 0.815895 -0.133364
C41   C     C_R   0.280729 0.781674 0.174629 -0.127254
C42   C     C_R   0.140746 0.464025 0.646793 -0.323735
C43   C     C_R   0.894617 0.320419 0.319384 -0.334501
C44   C     C_R   0.956898 0.352404 0.554685 -0.100023
C45   C     C_R   0.700752 0.197671 0.730300 0.061409
C46   C     C_R   0.067156 0.465035 0.423367 -0.099380
C47   C     C_R   0.970908 0.353202 0.476601 -0.178344
C48   C     C_R   0.066007 0.427754 0.489138 -0.181386
C49   C     C_R   0.640979 0.101643 0.645075 0.114869
C50   C     C_R   0.440546 0.848358 0.319377 0.115819
C51   C     C_R   0.563418 0.031173 0.400622 -0.172925
C52   C     C_R   0.560243 0.912214 0.561454 -0.207862
C53   C     C_R   0.492361 0.943928 0.318632 -0.178904
C54   C     C_R   0.609522 0.002202 0.644018 -0.173248
C55   C     C_R   0.476728 0.834567 0.397664 -0.284815
C56   C     C_R   0.335818 0.775355 0.250889 0.070418
C57   C     C_R   0.625611 0.110036 0.563737 -0.186285
C58   C     C_R   0.542666 0.921854 0.480247 0.162399
C59   C     C_R   0.580195 0.021606 0.481837 0.167240
C60   C     C_R   0.676487 0.082628 0.055465 -0.116390
C61   C     C_R   0.353332 0.107237 0.300767 -0.120265
C62   C     C_R   0.772432 0.082035 0.079551 -0.133289
C63   C     C_R   0.270911 0.093104 0.226972 -0.167831
C64   C     C_R   0.292995 0.578233 0.989183 -0.163716
C65   C     C_R   0.704646 0.411866 0.004735 -0.149014
C66   C     C_R   0.790500 0.014208 0.015206 0.103693
C67   C     C_R   0.340516 0.528337 0.026061 0.069547
C68   C     C_R   0.168444 0.027556 0.206300 0.106725
C69   C     C_R   0.742181 0.299392 0.738706 -0.085572
C70   C     C_R   0.272416 0.685897 0.251081 -0.116800
C71   C     C_R   0.283731 0.477440 0.062460 -0.111401
C72   C     C_R   0.707541 0.506823 0.926743 -0.123809
C73   C     C_R   0.108620 0.535690 0.812854 -0.114064
C74   C     C_R   0.894450 0.409132 0.183163 -0.119614
C75   C     C_R   0.912744 0.201919 0.995906 -0.133114
C76   C     C_R   0.081479 0.805906 0.051308 -0.126732
C77   C     C_R   0.994569 0.193173 0.048618 0.059103
C78   C     C_R   0.649375 0.449720 0.959044 0.052000
C79   C     C_R   0.992865 0.819639 0.039082 0.052450
C80   C     C_2   0.145382 0.573800 0.452559 1.052038
C81   C     C_2   0.851807 0.296092 0.544655 1.088150
C82   C     C_R   0.895196 0.922705 0.037569 -0.219787
F1    F     F_    0.250971 0.520771 0.581333 -0.698756
F2    F     F_    0.804865 0.204286 0.366809 -0.707961
H1    H     H_    0.160160 0.311653 0.127264 0.087180
H2    H     H_    0.494643 0.265059 0.806485 0.110492
H3    H     H_    0.477324 0.432888 0.192132 0.111096
H4    H     H_    0.421535 0.508007 0.768404 0.128875
H5    H     H_    0.531397 0.522678 0.358621 0.120245
H6    H     H_    0.395225 0.429699 0.608189 0.168249
H7    H     H_    0.643812 0.511618 0.115990 0.145074
H8    H     H_    0.337749 0.455421 0.864399 0.135886
H9    H     H_    0.829388 0.274511 0.253074 0.142306
H10   H     H_    0.209487 0.504076 0.710288 0.147023
H11   H     H_    0.859741 0.417424 0.683114 0.105285
H12   H     H_    0.827821 0.702703 0.948909 0.092873
H13   H     H_    0.144425 0.506162 0.295551 0.115677
H14   H     H_    0.553557 0.893215 0.835034 0.125435
H15   H     H_    0.218723 0.949961 0.375036 0.120024
H16   H     H_    0.646399 0.185085 0.563106 0.105721
H17   H     H_    0.443524 0.759267 0.397931 0.139790
H18   H     H_    0.621457 0.993206 0.706055 0.121385
H19   H     H_    0.469752 0.955004 0.257713 0.130212
H20   H     H_    0.595390 0.107104 0.400963 0.157353
H21   H     H_    0.532092 0.835630 0.560801 0.146014
H22   H     H_    0.523592 0.015466 0.948649 0.108686
H23   H     H_    0.722950 0.891752 0.876702 0.121173
H24   H     H_    0.397829 0.069030 0.412711 0.109299
H25   H     H_    0.663160 0.135688 0.105058 0.117814
H26   H     H_    0.431955 0.158282 0.316762 0.117701
H27   H     H_    0.833153 0.134561 0.147825 0.125294
H28   H     H_    0.287114 0.133408 0.186285 0.109359
H29   H     H_    0.724201 0.141460 0.836451 0.096240
H30   H     H_    0.310555 0.834563 0.147424 0.091520
H31   H     H_    0.323197 0.632610 0.963317 0.101469
H32   H     H_    0.679943 0.359707 0.034260 0.099791
H33   H     H_    0.718215 0.326651 0.688872 0.082247
H34   H     H_    0.072494 0.925293 0.246281 0.121424
H35   H     H_    0.292394 0.648394 0.293111 0.108116
H36   H     H_    0.301213 0.433928 0.099318 0.096311
H37   H     H_    0.683421 0.541205 0.882916 0.101553
H38   H     H_    0.189866 0.565173 0.831387 0.093814
H39   H     H_    0.814620 0.355863 0.161098 0.090146
H40   H     H_    0.831668 0.151809 0.967409 0.118289
H41   H     H_    0.161052 0.864549 0.091351 0.115452
H42   H     H_    0.822860 0.851747 0.004798 0.124742
H43   H     H_    0.149630 0.181827 0.166442 0.120942
H44   H     H_    0.173474 0.723374 0.479064 0.318456
H45   H     H_    0.617684 0.717728 0.441004 0.117284
H46   H     H_    0.706825 0.283308 0.503173 0.293558
H47   H     H_    0.420529 0.271520 0.547179 0.115896
H48   H     H_    0.647339 0.823085 0.356070 0.142667
H49   H     H_    0.470605 0.190092 0.646829 0.112844
H50   H     H_    0.589038 0.734433 0.189069 0.121367
N1    N     N_R   0.055660 0.348550 0.045620 -0.040963
N2    N     N_R   0.185200 0.638170 0.176300 -0.042428
N3    N     N_R   0.201680 0.494570 0.045620 -0.040736
N4    N     N_R   0.798320 0.505430 0.954380 -0.042654
N5    N     N_R   0.068420 0.560530 0.871650 -0.047073
N6    N     N_R   0.931580 0.439470 0.128350 -0.044341
N7    N     N_R   0.948070 0.295860 0.997670 -0.041213
N8    N     N_R   0.051930 0.704140 0.002330 -0.045032
N9    N     N_R   0.944340 0.651450 0.954380 -0.043946
N10   N     N_R   0.960830 0.507850 0.823700 -0.049450
N11   N     N_R   0.039170 0.492150 0.176300 -0.045299
N12   N     N_R   0.811290 0.303410 0.871650 -0.039943
N13   N     N_R   0.188710 0.696590 0.128350 -0.042101
N14   N     N_R   0.205200 0.552990 0.997670 -0.037382
N15   N     N_R   0.794800 0.447010 0.002330 -0.037479
N16   N     N_R   0.814800 0.361830 0.823700 -0.042057
Ni1   Ni    Ni4+2 0.119340 0.493420 0.109960 0.216274
Ni2   Ni    Ni4+2 0.880660 0.506580 0.890040 0.221122
Ni3   Ni    Ni4+2 0.872590 0.372590 0.000000 0.213814
Ni4   Ni    Ni4+2 0.127410 0.627410 0.000000 0.214606
O1    O     O_2   0.234699 0.593068 0.466042 -0.605760
O2    O     O_R   0.114600 0.653154 0.460668 -0.801382
O3    O     O_2   0.832666 0.230254 0.573095 -0.648504
O4    O     O_R   0.775747 0.321860 0.504225 -0.796449

loop_
_geom_bond_atom_site_label_1
_geom_bond_atom_site_label_2
_ccdc_geom_bond_type
C9    C33   A    
C12   C79   A    
C6    C82   A    
C38   F1    S    
C27   C29   A    
C1    C77   A    
C14   C18   A    
N3    N14   A    
C10   H24   S    
C76   C79   A    
C41   H30   S    
C19   C31   S    
C11   H48   S    
C8    H34   S    
C71   N3    A    
C15   C19   A    
C6    C66   S    
C71   H36   S    
C69   N16   A    
C19   C21   A    
C24   C26   A    
C39   F2    S    
C38   C42   A    
C72   H37   S    
C11   C14   A    
C57   C59   A    
C11   C25   A    
C49   C54   A    
C20   H3    S    
C63   H28   S    
C49   C57   A    
C60   C62   A    
C33   H14   S    
C37   C42   A    
C61   C63   A    
N13   Ni4   S    
N15   Ni3   S    
C82   H42   S    
C72   C78   A    
C60   H25   S    
C75   N7    A    
N12   N16   A    
C29   C78   S    
C47   C48   A    
C22   C25   A    
C36   C46   A    
C10   C35   A    
C65   C78   A    
C67   C71   A    
C30   C67   S    
C44   C47   A    
N6    Ni3   S    
C2    H43   S    
C72   N4    A    
C74   H39   S    
C21   H4    S    
C25   H45   S    
C64   H31   S    
C64   N14   A    
C7    H23   S    
C70   N2    A    
C76   H41   S    
C7    C33   A    
N14   Ni4   S    
C23   C73   A    
C5    C68   S    
C35   H15   S    
C61   H26   S    
C52   C54   A    
C80   O2    S    
N4    N15   A    
C1    H1    S    
C40   C45   A    
C46   C48   A    
C50   C53   A    
C81   O3    D    
C62   C66   A    
C45   C69   A    
C75   H40   S    
C64   C67   A    
C4    C6    A    
C44   C81   S    
C39   C43   A    
C14   H50   S    
N5    Ni4   S    
N4    Ni2   S    
C51   H20   S    
C23   C37   S    
C57   H16   S    
C74   N6    A    
C50   C56   S    
C51   C53   A    
C8    C35   A    
C2    C4    A    
C41   C56   A    
N5    N10   A    
C40   H29   S    
C41   N13   A    
C45   C49   S    
C70   H35   S    
C3    C82   A    
C28   H8    S    
C62   H27   S    
C27   H7    S    
C75   C77   A    
C3    C79   S    
N11   Ni1   S    
C52   C58   A    
C34   C74   A    
C15   H2    S    
N9    Ni2   S    
C20   C22   A    
C52   H21   S    
C8    C68   A    
C16   C23   A    
C56   C70   A    
C13   C15   A    
C17   N11   A    
C65   H32   S    
N16   Ni2   S    
C13   C26   A    
C58   C59   A    
C10   C61   A    
C18   C32   S    
C17   C34   A    
C21   C24   A    
N2    Ni1   S    
C80   O1    D    
C39   C47   A    
C63   C68   A    
C16   H11   S    
C81   O4    S    
C16   N10   A    
C27   C32   A    
C42   H10   S    
C38   C48   A    
C54   H18   S    
C28   C31   A    
N3    Ni1   S    
C3    C5    A    
C24   H6    S    
N6    N11   A    
C73   N5    A    
C55   H17   S    
C50   C55   A    
C12   N9    A    
C40   N12   A    
H46   O4    S    
C9    C60   A    
C37   C44   A    
C28   C30   A    
C9    H22   S    
C4    C77   S    
C29   C31   A    
C7    C66   A    
C30   C32   A    
N7    Ni3   S    
N12   Ni3   S    
C53   H19   S    
N1    Ni1   S    
C69   H33   S    
C43   H9    S    
C22   H5    S    
C18   C20   A    
C65   N15   A    
C13   H49   S    
N2    N13   A    
H44   O2    S    
C2    C5    A    
N1    N7    A    
C51   C59   A    
C34   C36   S    
N10   Ni2   S    
C73   H38   S    
C55   C58   A    
C46   C80   S    
N8    N9    A    
C12   H12   S    
C36   C43   A    
N8    Ni4   S    
C1    N1    A    
C17   H13   S    
C26   H47   S    
C76   N8    A    
