data_mof_unit_23942.cif
_audit_creation_date              2012-12-11T16:34:05-0500
_audit_creation_method            fapswitch 2.2
_symmetry_space_group_name_H-M    P1
_symmetry_Int_Tables_number       1
_space_group_crystal_system       triclinic
_cell_length_a                    8.232389
_cell_length_b                    17.420199
_cell_length_c                    27.016227
_cell_angle_alpha                 95.758265
_cell_angle_beta                  92.490618
_cell_angle_gamma                 83.800408
_cell_volume                      3830.21445439

loop_
_atom_site_label
_atom_site_type_symbol
_atom_type_description
_atom_site_fract_x
_atom_site_fract_y
_atom_site_fract_z
_atom_type_partial_charge
Ba1   Ba    Ba6+2 0.856110 0.463800 0.523550 1.644829
Ba2   Ba    Ba6+2 0.333710 0.536130 0.476450 1.655462
C1    C     C_3   0.653741 0.188934 0.655644 -0.366449
C2    C     C_R   0.941177 0.582970 0.180730 0.587513
C3    C     C_2   0.768115 0.557972 0.272494 -0.089265
C4    C     C_3   0.162268 0.291357 0.659033 0.288305
C5    C     C_3   0.743264 0.580490 0.327348 -0.061366
C6    C     C_1   0.985016 0.489966 0.343466 0.043031
C7    C     C_2   0.026605 0.484617 0.295905 -0.080155
C8    C     C_2   0.911528 0.518990 0.257068 0.210812
C9    C     C_R   0.034807 0.510610 0.103209 -0.080101
C10   C     C_R   0.056078 0.442751 0.128165 -0.035447
C11   C     C_R   0.116918 0.372993 0.101668 -0.057852
C12   C     C_3   0.658599 0.267498 0.636180 0.343334
C13   C     C_R   0.976286 0.581004 0.129821 -0.027587
C14   C     C_2   0.852592 0.532053 0.360788 -0.275848
C15   C     C_2   0.350942 0.480492 0.641806 -0.279623
C16   C     C_3   0.129601 0.273028 0.711254 -0.337882
C17   C     C_R   0.183792 0.436425 0.974980 0.019751
C18   C     C_R   0.072406 0.573501 0.974615 0.019972
C19   C     C_R   0.146675 0.503947 0.949317 0.050443
C20   C     C_R   0.265896 0.370053 0.948741 -0.099805
C21   C     C_R   0.306255 0.369507 0.899061 -0.060577
C22   C     C_R   0.265604 0.434798 0.872861 -0.030946
C23   C     C_3   0.501173 0.656914 0.627313 0.300770
C24   C     C_R   0.184616 0.502021 0.897838 -0.078078
C25   C     C_R   0.142378 0.567503 0.871426 -0.034332
C26   C     C_R   0.180422 0.564835 0.820572 0.590259
C27   C     C_R   0.305257 0.434253 0.822257 0.579992
C28   C     C_3   0.198255 0.300504 0.417301 0.298796
C29   C     C_2   0.458462 0.481922 0.729582 -0.072123
C30   C     C_3   0.500147 0.487385 0.675847 -0.052881
C31   C     C_1   0.209519 0.514680 0.657325 0.037903
C32   C     C_2   0.170666 0.516015 0.704798 -0.105220
C33   C     C_2   0.301256 0.497477 0.744015 0.204754
C34   C     C_3   0.479387 0.686925 0.681736 -0.371805
C35   C     C_R   0.139202 0.437621 0.025787 0.019490
C36   C     C_R   0.072444 0.508256 0.051676 0.050440
C37   C     C_R   0.043081 0.576702 0.026615 0.019946
C38   C     C_R   0.158131 0.370412 0.051868 -0.099261
C39   C     C_R   0.954969 0.648598 0.105176 -0.060989
C40   C     C_3   0.216544 0.212699 0.404314 -0.283050
C41   C     C_R   0.028831 0.637609 0.946660 -0.100609
C42   C     C_R   0.062859 0.634516 0.896382 -0.061198
C43   C     C_R   0.986846 0.646590 0.054861 -0.101363
C44   C     C_R   0.410593 0.279013 0.520777 -0.287380
C45   C     C_3   0.969086 0.755164 0.344470 0.289998
C46   C     C_R   0.551499 0.254539 0.494522 0.062741
C47   C     C_R   0.608011 0.175329 0.488282 -0.113259
C48   C     C_R   0.521783 0.120643 0.508030 -0.005587
C49   C     C_R   0.376044 0.145894 0.533098 -0.131689
C50   C     C_R   0.319651 0.225291 0.538665 0.008276
C51   C     C_R   0.588296 0.835412 0.507236 -0.111601
C52   C     C_3   0.993881 0.698360 0.580371 0.309197
C53   C     C_R   0.640103 0.755808 0.502227 0.045612
C54   C     C_R   0.875610 0.779163 0.457768 -0.015961
C55   C     C_R   0.825141 0.859363 0.462535 -0.134988
C56   C     C_3   0.000523 0.770855 0.291615 -0.302299
C57   C     C_R   0.679108 0.887644 0.486785 0.005666
C58   C     C_1   0.626222 0.970126 0.493743 -0.000900
C59   C     C_1   0.578953 0.038684 0.500284 0.001845
C60   C     C_R   0.778578 0.728012 0.475646 -0.276468
C61   C     C_3   0.970219 0.785787 0.593269 -0.384186
C62   C     C_3   0.680428 0.371769 0.375771 0.301329
C63   C     C_3   0.684044 0.352976 0.319604 -0.339954
C64   C     C_1   0.343026 0.189469 0.367517 0.322202
C65   C     C_3   0.496757 0.741803 0.355326 0.423918
C66   C     C_3   0.454022 0.815487 0.329677 -0.352479
C67   C     C_R   0.014262 0.445854 0.178902 0.594720
H1    H     H_    0.768520 0.264603 0.613344 0.102100
H2    H     H_    0.586203 0.421285 0.384201 0.081569
H3    H     H_    0.765599 0.174680 0.678826 0.133959
H4    H     H_    0.782757 0.305849 0.309970 0.136133
H5    H     H_    0.706811 0.404986 0.301530 0.063214
H6    H     H_    0.564751 0.334171 0.305199 0.142554
H7    H     H_    0.546644 0.279594 0.612816 -0.037728
H8    H     H_    0.647628 0.143517 0.623880 0.077411
H9    H     H_    0.381176 0.641312 0.611475 0.029437
H10   H     H_    0.591984 0.604797 0.624901 0.035143
H11   H     H_    0.395898 0.741596 0.684527 0.139594
H12   H     H_    0.250800 0.182947 0.438126 0.027863
H13   H     H_    0.425375 0.643892 0.701796 0.077332
H14   H     H_    0.599533 0.698191 0.699704 0.124829
H15   H     H_    0.174451 0.317993 0.738812 0.131019
H16   H     H_    0.925724 0.696942 0.343323 0.012012
H17   H     H_    0.094618 0.726202 0.275122 0.168328
H18   H     H_    0.885322 0.769406 0.268774 0.120234
H19   H     H_    0.043251 0.829137 0.291499 0.093162
H20   H     H_    0.632274 0.731220 0.357313 -0.142083
H21   H     H_    0.451379 0.751360 0.393825 0.074746
H22   H     H_    0.514017 0.863771 0.350309 0.064405
H23   H     H_    0.098346 0.193599 0.389110 0.103551
H24   H     H_    0.320098 0.831585 0.328792 0.143659
H25   H     H_    0.106164 0.351277 0.654814 0.080560
H26   H     H_    0.497650 0.806687 0.290988 0.114343
H27   H     H_    0.145796 0.456759 0.285050 0.123517
H28   H     H_    0.133483 0.319543 0.119481 0.123775
H29   H     H_    0.556687 0.471519 0.757005 0.101848
H30   H     H_    0.369756 0.317044 0.881090 0.121490
H31   H     H_    0.304364 0.317600 0.965886 0.069941
H32   H     H_    0.201560 0.314008 0.034508 0.070281
H33   H     H_    0.912270 0.703950 0.124781 0.119566
H34   H     H_    0.875565 0.677346 0.568250 0.003883
H35   H     H_    0.964589 0.691072 0.962281 0.069822
H36   H     H_    0.296395 0.288183 0.654714 -0.015209
H37   H     H_    0.026568 0.685521 0.877037 0.122356
H38   H     H_    0.045000 0.531047 0.715575 0.124169
H39   H     H_    0.969551 0.701680 0.039479 0.069534
H40   H     H_    0.836137 0.544240 0.400541 0.078417
H41   H     H_    0.358776 0.446632 0.605804 0.068843
H42   H     H_    0.481389 0.856751 0.528536 0.078741
H43   H     H_    0.305005 0.104217 0.546900 0.080479
H44   H     H_    0.900644 0.899197 0.448700 0.073133
H45   H     H_    0.080671 0.685154 0.549708 0.071597
H46   H     H_    0.716258 0.156286 0.467100 0.087240
H47   H     H_    0.366031 0.339983 0.524590 0.068576
H48   H     H_    0.996188 0.272614 0.715665 0.143352
H49   H     H_    0.818830 0.666551 0.472799 0.057252
H50   H     H_    0.193185 0.215449 0.718349 0.119800
H51   H     H_    0.318822 0.320638 0.427921 -0.011907
H52   H     H_    0.116131 0.314214 0.449197 0.063048
H53   H     H_    0.544396 0.189743 0.678446 0.125391
H54   H     H_    0.873527 0.800629 0.359290 -0.016810
H55   H     H_    0.680210 0.582816 0.245861 0.107201
H56   H     H_    0.877058 0.800744 0.622164 0.135599
H57   H     H_    0.929024 0.815461 0.559920 0.064348
H58   H     H_    0.087610 0.806911 0.607545 0.123963
H59   H     H_    0.801229 0.387848 0.389743 -0.000397
N1    N     N_R   0.956453 0.515581 0.204809 -0.421995
N2    N     N_R   0.260923 0.498597 0.796337 -0.424864
N3    N     N_1   0.442860 0.171164 0.338544 -0.274157
O1    O     O_2   0.910880 0.540430 0.617910 -0.463858
O2    O     O_2   0.214241 0.772664 0.465888 -0.488187
O3    O     O_3   0.114343 0.757788 0.373371 -0.576605
O4    O     O_3   0.142880 0.540370 0.557740 -0.489317
O5    O     O_3   0.562610 0.408580 0.475460 -0.490163
O6    O     O_2   0.365880 0.685750 0.523280 -0.459096
O7    O     O_3   0.557450 0.715325 0.602587 -0.641902
O8    O     O_2   0.427097 0.528260 0.322621 -0.487004
O9    O     O_3   0.423897 0.679891 0.328611 -0.567033
O10   O     O_2   0.027476 0.386237 0.199678 -0.594736
O11   O     O_2   0.378838 0.376228 0.801269 -0.601127
O12   O     O_3   0.644282 0.306107 0.397281 -0.625699
O13   O     O_2   0.898021 0.645254 0.203765 -0.625445
O14   O     O_2   0.144167 0.622117 0.798123 -0.597106
O15   O     O_3   0.675650 0.402220 0.588450 -0.488212
O16   O     O_2   0.838896 0.439262 0.672897 -0.497569
O17   O     O_3   0.054320 0.664015 0.622916 -0.627236
O18   O     O_3   0.664502 0.324776 0.676447 -0.592492
O19   O     O_2   0.823810 0.314230 0.476690 -0.460341
O20   O     O_3   0.086630 0.363340 0.564170 -0.490284
O21   O     O_2   0.981706 0.226293 0.532824 -0.485668
O22   O     O_3   0.093054 0.237404 0.624523 -0.601354
O23   O     O_2   0.278810 0.459550 0.382060 -0.455474
O24   O     O_3   0.046820 0.459570 0.442260 -0.495823
O25   O     O_3   0.514050 0.597710 0.411540 -0.475402
O26   O     O_3   0.132063 0.336155 0.375798 -0.631235
O27   O     O_3   0.627090 0.591350 0.524530 -0.474810
O28   O     O_3   0.103080 0.636600 0.435820 -0.466226
P1    P     P_3+3 0.078810 0.562990 0.610370 0.998235
P2    P     P_3+3 0.645380 0.325580 0.462150 0.992105
P3    P     P_3+3 0.120391 0.262181 0.564532 0.936145
P4    P     P_3+3 0.110900 0.436950 0.389630 0.999077
P5    P     P_3+3 0.075652 0.737791 0.433610 0.961261
P6    P     P_3+3 0.670653 0.415046 0.653495 0.969004
P7    P     P_3+3 0.550619 0.688577 0.538443 0.951567
P8    P     P_3+3 0.526376 0.593505 0.346827 0.972095

loop_
_geom_bond_atom_site_label_1
_geom_bond_atom_site_label_2
_ccdc_geom_bond_type
C28   O26   S    
C21   H30   S    
C10   C67   A    
Ba2   O24   S    
C16   H48   S    
C29   H29   S    
C19   C24   A    
Ba1   O1    S    
C56   H18   S    
C51   C57   A    
C39   H33   S    
C3    H55   S    
C26   O14   D    
O1    P1    D    
C32   H38   S    
C45   H16   S    
Ba1   O27   S    
C17   C19   A    
C22   C24   A    
C32   C33   S    
C35   C38   A    
C36   C37   A    
C55   C57   A    
C52   C61   S    
C34   H14   S    
C67   O10   D    
C53   C60   A    
C44   C50   A    
C65   H20   S    
C66   H22   S    
C63   H4    S    
C54   C55   A    
C43   H39   S    
Ba1   Ba2   S    
O17   P1    S    
C62   H2    S    
Ba1   O24   S    
C41   H35   S    
C11   C38   A    
C17   C35   A    
C38   H32   S    
C22   C27   A    
C9    C13   A    
C25   C42   A    
C29   C30   S    
C34   H13   S    
C6    C7    D    
C4    H25   S    
C16   H15   S    
C21   C22   A    
Ba1   O20   S    
Ba1   O5    S    
O16   P6    D    
C7    C8    S    
O26   P4    S    
C40   H23   S    
C1    H53   S    
C37   C43   A    
C54   C60   A    
C51   H42   S    
O9    P8    S    
Ba1   P2    S    
C57   C58   S    
C6    C14   D    
C30   P6    S    
C15   H41   S    
C12   H1    S    
Ba1   O15   S    
C40   H12   S    
C15   C31   D    
C56   H17   S    
O6    P7    D    
C14   H40   S    
C31   C32   D    
O5    P2    S    
C51   C53   A    
C4    C16   S    
C44   C46   A    
C66   H26   S    
C20   H31   S    
C65   C66   S    
C4    O22   S    
O23   P4    D    
C17   C20   A    
O18   P6    S    
C13   C39   A    
C34   H11   S    
C3    C5    S    
C18   C37   A    
Ba2   O28   S    
C55   H44   S    
C46   P2    S    
O25   P8    S    
O24   P4    S    
C65   H21   S    
Ba2   O5    S    
C63   H5    S    
C23   H9    S    
C58   C59   T    
C12   H7    S    
C9    C36   A    
C41   C42   A    
C35   C36   A    
C52   H34   S    
C45   H54   S    
C27   N2    Am   
C33   N2    S    
C28   H52   S    
O28   P5    S    
Ba2   O27   S    
O20   P3    S    
C62   H59   S    
C48   C49   A    
C24   C25   A    
Ba1   O19   S    
C10   C11   A    
O8    P8    D    
C65   O9    S    
C7    H27   S    
C61   H56   S    
C1    C12   S    
C67   N1    Am   
C46   C47   A    
C47   H46   S    
O15   P6    S    
C45   O3    S    
C29   C33   D    
C1    H8    S    
O2    P5    D    
C18   C41   A    
O27   P7    S    
C52   O17   S    
C64   N3    T    
C15   C30   S    
O19   P2    D    
C5    P8    S    
C5    C14   S    
Ba2   O25   S    
O4    P1    S    
C23   H10   S    
Ba2   O6    S    
Ba1   P1    S    
Ba2   O4    S    
C6    P4    S    
C56   H19   S    
Ba2   P4    S    
C2    O13   D    
C9    C10   A    
C31   P1    S    
C2    N1    Am   
C62   O12   S    
C42   H37   S    
C54   P5    S    
C66   H24   S    
C63   H6    S    
C44   H47   S    
O22   P3    S    
O7    P7    S    
C62   C63   S    
C2    C13   A    
C23   O7    S    
C8    N1    S    
C49   C50   A    
C45   C56   S    
C28   H51   S    
C27   O11   D    
C52   H45   S    
C12   O18   S    
C4    H36   S    
O3    P5    S    
C1    H3    S    
C26   N2    Am   
C11   H28   S    
O21   P3    D    
C60   H49   S    
C61   H57   S    
C49   H43   S    
C23   C34   S    
C3    C8    D    
C18   C19   A    
Ba2   O23   S    
C47   C48   A    
C25   C26   A    
C40   C64   S    
C48   C59   S    
C39   C43   A    
C20   C21   A    
C28   C40   S    
C53   P7    S    
Ba1   O4    S    
C16   H50   S    
O12   P2    S    
C61   H58   S    
C50   P3    S    
