data_mof_unit_65540.cif
_audit_creation_date              2012-12-10T18:00:46-0500
_audit_creation_method            fapswitch 2.2
_symmetry_space_group_name_H-M    P1
_symmetry_Int_Tables_number       1
_space_group_crystal_system       triclinic
_cell_length_a                    30.763029
_cell_length_b                    30.696983
_cell_length_c                    24.83161
_cell_angle_alpha                 89.995327
_cell_angle_beta                  128.505548
_cell_angle_gamma                 89.999156
_cell_volume                      18350.190641

loop_
_atom_site_label
_atom_site_type_symbol
_atom_type_description
_atom_site_fract_x
_atom_site_fract_y
_atom_site_fract_z
_atom_type_partial_charge
C1    C     C_R   0.809455 0.809423 0.500388 0.797159
C2    C     C_R   0.535784 0.748995 0.069935 0.421308
C3    C     C_R   0.907276 0.093308 0.498634 -0.129491
C4    C     C_R   0.597642 0.596680 0.449672 0.065214
C5    C     C_R   0.350807 0.594215 0.452576 0.059870
C6    C     C_R   0.149213 0.094001 0.547083 0.059522
C7    C     C_R   0.902272 0.096715 0.550150 0.063508
C8    C     C_3   0.580256 0.577319 0.383682 -0.009672
C9    C     C_3   0.300574 0.570951 0.392948 -0.025661
C10   C     C_3   0.199455 0.070463 0.606231 -0.026403
C11   C     C_3   0.919742 0.077422 0.616220 -0.010899
C12   C     C_3   0.617202 0.612249 0.385290 -0.456141
C13   C     C_R   0.964183 0.248995 0.930063 0.421389
C14   C     C_3   0.265877 0.605983 0.395487 -0.434348
C15   C     C_3   0.234142 0.105510 0.603701 -0.433788
C16   C     C_3   0.882742 0.112334 0.614527 -0.454154
C17   C     C_R   0.440437 0.559400 0.499888 0.813936
C18   C     C_R   0.559492 0.559577 0.500223 0.813369
C19   C     C_R   0.940517 0.059598 0.499764 0.814245
C20   C     C_R   0.059568 0.059389 0.500108 0.814341
C21   C     C_R   0.940346 0.940512 0.499869 0.794193
C22   C     C_R   0.059578 0.940491 0.500168 0.796498
C23   C     C_R   0.440427 0.440489 0.499837 0.796682
C24   C     C_R   0.035848 0.249085 0.069868 0.421755
C25   C     C_R   0.559659 0.440514 0.500135 0.794293
C26   C     C_R   0.816256 0.749879 0.632594 0.791508
C27   C     C_R   0.183717 0.749896 0.367391 0.774509
C28   C     C_R   0.316289 0.249896 0.632610 0.774540
C29   C     C_R   0.683762 0.249866 0.367409 0.777487
C30   C     C_R   0.607242 0.783362 0.253823 -0.183508
C31   C     C_R   0.393893 0.782707 0.746235 -0.180649
C32   C     C_R   0.106065 0.282696 0.253756 -0.180365
C33   C     C_R   0.892704 0.283380 0.746167 -0.183011
C34   C     C_R   0.572182 0.783093 0.181957 -0.210564
C35   C     C_R   0.844039 0.846393 0.445677 0.101369
C36   C     C_R   0.428947 0.782470 0.818108 -0.210960
C37   C     C_R   0.071004 0.282459 0.181883 -0.210723
C38   C     C_R   0.927756 0.283112 0.818033 -0.210202
C39   C     C_R   0.574382 0.748896 0.146080 0.064395
C40   C     C_R   0.425483 0.749053 0.853987 0.064350
C41   C     C_R   0.074492 0.249057 0.146011 0.064276
C42   C     C_R   0.925590 0.248895 0.853918 0.064297
C43   C     C_R   0.613271 0.714993 0.183709 0.169832
C44   C     C_R   0.385311 0.715956 0.816364 0.169277
C45   C     C_R   0.114698 0.215977 0.183642 0.169329
C46   C     C_R   0.149822 0.842960 0.549459 0.105377
C47   C     C_R   0.886744 0.214972 0.816297 0.169919
C48   C     C_R   0.648662 0.715763 0.255821 -0.240633
C49   C     C_R   0.349974 0.716683 0.744255 -0.236413
C50   C     C_R   0.150041 0.216703 0.255750 -0.236431
C51   C     C_R   0.851359 0.215741 0.744184 -0.240476
C52   C     C_R   0.350285 0.342912 0.450636 0.105529
C53   C     C_R   0.656093 0.346463 0.554419 0.101161
C54   C     C_R   0.841738 0.843336 0.499845 -0.076819
C55   C     C_R   0.158341 0.843450 0.500490 -0.081296
C56   C     C_R   0.341661 0.343450 0.499509 -0.081441
C57   C     C_R   0.190464 0.809461 0.499514 0.797882
C58   C     C_R   0.658263 0.343335 0.500153 -0.077280
C59   C     C_R   0.865984 0.876410 0.549769 -0.201219
C60   C     C_R   0.140253 0.879740 0.456757 -0.203928
C61   C     C_R   0.359658 0.379778 0.543144 -0.203800
C62   C     C_R   0.633895 0.376348 0.450117 -0.200637
C63   C     C_R   0.898471 0.908521 0.550083 -0.209748
C64   C     C_R   0.107649 0.911810 0.456323 -0.213401
C65   C     C_R   0.392268 0.411845 0.543586 -0.213272
C66   C     C_R   0.601417 0.408464 0.449811 -0.209564
C67   C     C_R   0.905082 0.908587 0.498919 -0.094224
C68   C     C_R   0.309538 0.309462 0.500488 0.797815
C69   C     C_R   0.094718 0.908452 0.501355 -0.087597
C70   C     C_R   0.405298 0.408444 0.498657 -0.087586
C71   C     C_R   0.594933 0.408594 0.501087 -0.094406
C72   C     C_R   0.874719 0.878824 0.444795 0.144135
C73   C     C_R   0.119148 0.875305 0.550524 0.138891
C74   C     C_R   0.380964 0.375254 0.449574 0.138843
C75   C     C_R   0.625415 0.378896 0.555301 0.144484
C76   C     C_3   0.894129 0.848878 0.416255 -0.474890
C77   C     C_3   0.092676 0.843818 0.568094 -0.485096
C78   C     C_3   0.407548 0.343748 0.432189 -0.485270
C79   C     C_R   0.690547 0.309422 0.499614 0.798113
C80   C     C_3   0.606159 0.348989 0.584068 -0.474626
C81   C     C_3   0.860454 0.813220 0.417421 -0.464964
C82   C     C_3   0.126326 0.808248 0.566702 -0.454983
C83   C     C_3   0.373895 0.308181 0.433578 -0.454878
C84   C     C_3   0.639833 0.313327 0.582904 -0.465288
C85   C     C_R   0.683682 0.749996 0.367419 0.789484
C86   C     C_R   0.316297 0.750022 0.632596 0.805404
C87   C     C_R   0.183701 0.250024 0.367403 0.805142
C88   C     C_R   0.816315 0.249994 0.632580 0.790760
C89   C     C_R   0.835941 0.764353 0.745053 -0.175886
C90   C     C_R   0.645871 0.749734 0.291411 -0.053646
C91   C     C_R   0.163485 0.765381 0.254817 -0.184483
C92   C     C_R   0.336579 0.265439 0.745203 -0.184220
C93   C     C_R   0.664186 0.264150 0.254972 -0.184216
C94   C     C_R   0.871717 0.763770 0.816988 -0.158964
C95   C     C_R   0.127679 0.764807 0.182884 -0.154681
C96   C     C_R   0.372400 0.264863 0.817136 -0.154558
C97   C     C_R   0.628424 0.263556 0.183036 -0.156181
C98   C     C_R   0.926774 0.749233 0.853877 0.055870
C99   C     C_R   0.073035 0.749296 0.146056 0.056077
C100  C     C_R   0.427020 0.249291 0.853951 0.055976
C101  C     C_R   0.354041 0.749830 0.708635 -0.052758
C102  C     C_R   0.573307 0.249170 0.146136 0.055817
C103  C     C_R   0.945123 0.734826 0.817346 -0.153527
C104  C     C_R   0.055128 0.733935 0.182647 -0.154841
C105  C     C_R   0.444888 0.233877 0.817345 -0.154871
C106  C     C_R   0.554892 0.234910 0.182660 -0.154374
C107  C     C_R   0.909022 0.734615 0.745410 -0.183681
C108  C     C_R   0.091278 0.733731 0.254586 -0.181782
C109  C     C_R   0.408723 0.233677 0.745405 -0.181807
C110  C     C_R   0.590977 0.234709 0.254594 -0.181366
C111  C     C_R   0.854199 0.749622 0.708598 -0.028495
C112  C     C_R   0.145949 0.249834 0.291363 -0.052854
C113  C     C_R   0.145703 0.749676 0.291357 -0.029636
C114  C     C_R   0.354320 0.249678 0.708647 -0.029739
C115  C     C_R   0.645850 0.249582 0.291413 -0.031697
C116  C     C_R   0.034921 0.749195 0.069925 0.406659
C117  C     C_R   0.964875 0.749165 0.930009 0.406937
C118  C     C_R   0.535204 0.249116 0.070003 0.406548
C119  C     C_R   0.465145 0.249177 0.930085 0.406698
C120  C     C_R   0.630068 0.626967 0.451015 0.002774
C121  C     C_R   0.320125 0.624385 0.454961 0.002765
C122  C     C_R   0.179876 0.124181 0.544683 0.003294
C123  C     C_R   0.854117 0.249732 0.708588 -0.054191
C124  C     C_R   0.869799 0.126966 0.548719 0.012701
C125  C     C_R   0.658957 0.657849 0.502644 -0.061550
C126  C     C_R   0.343890 0.657856 0.502671 -0.068170
C127  C     C_R   0.156087 0.157854 0.497307 -0.068640
C128  C     C_R   0.840894 0.157834 0.497080 -0.080418
C129  C     C_R   0.654866 0.656355 0.556295 0.134400
C130  C     C_R   0.402550 0.659080 0.551626 0.134301
C131  C     C_R   0.097404 0.159270 0.448698 0.134410
C132  C     C_R   0.844839 0.156395 0.443205 0.148115
C133  C     C_R   0.690943 0.690745 0.500349 0.846213
C134  C     C_R   0.464121 0.749082 0.930130 0.421683
C135  C     C_R   0.309610 0.690728 0.500683 0.842669
C136  C     C_R   0.190376 0.190727 0.499296 0.842400
C137  C     C_R   0.809060 0.190745 0.499659 0.826154
C138  C     C_R   0.622245 0.623618 0.555798 -0.251576
C139  C     C_R   0.434440 0.626326 0.550771 -0.253568
C140  C     C_R   0.065521 0.126510 0.449554 -0.251970
C141  C     C_R   0.877729 0.123628 0.444038 -0.233650
C142  C     C_R   0.592703 0.593264 0.501276 -0.122611
C143  C     C_R   0.408266 0.593289 0.500288 -0.119005
C144  C     C_R   0.091732 0.093273 0.499704 -0.118787
Cu1   Cu    Cu3+1 0.780910 0.719090 0.500000 0.944914
Cu2   Cu    Cu3+1 0.534240 0.500000 0.568430 0.948750
Cu3   Cu    Cu3+1 0.965760 0.000000 0.431570 0.948635
Cu4   Cu    Cu3+1 0.034240 1.000000 0.568430 0.935252
Cu5   Cu    Cu3+1 0.219090 0.719090 0.500000 0.940882
Cu6   Cu    Cu3+1 0.280910 0.219090 0.500000 0.940562
Cu7   Cu    Cu3+1 0.719090 0.219090 0.500000 0.941543
Cu8   Cu    Cu3+1 0.719070 0.780890 0.500010 0.960630
Cu9   Cu    Cu3+1 0.280930 0.780890 0.499990 0.959741
Cu10  Cu    Cu3+1 0.219070 0.280890 0.500010 0.961013
Cu11  Cu    Cu3+1 0.780930 0.280890 0.499990 0.966449
Cu12  Cu    Cu3+1 0.465760 0.500000 0.431570 0.934781
H1    H     H_    0.604366 0.810084 0.279939 0.160282
H2    H     H_    0.142580 0.777008 0.156092 0.150859
H3    H     H_    0.357527 0.277107 0.843938 0.151021
H4    H     H_    0.643736 0.274874 0.156300 0.151231
H5    H     H_    0.924223 0.723204 0.718584 0.150881
H6    H     H_    0.076413 0.721557 0.281437 0.151019
H7    H     H_    0.423559 0.221460 0.718545 0.151018
H8    H     H_    0.575722 0.223420 0.281415 0.150911
H9    H     H_    0.535116 0.580768 0.340329 0.166996
H10   H     H_    0.295470 0.537459 0.405401 0.154840
H11   H     H_    0.204258 0.037030 0.593280 0.154740
H12   H     H_    0.397801 0.808797 0.720138 0.160512
H13   H     H_    0.964879 0.080935 0.659535 0.167646
H14   H     H_    0.542656 0.809426 0.154301 0.161067
H15   H     H_    0.459461 0.808183 0.845766 0.160868
H16   H     H_    0.040464 0.308160 0.154219 0.161024
H17   H     H_    0.957248 0.309461 0.845681 0.161223
H18   H     H_    0.678285 0.689518 0.283851 0.154403
H19   H     H_    0.319356 0.691059 0.716266 0.155052
H20   H     H_    0.180684 0.191091 0.283743 0.155017
H21   H     H_    0.821769 0.189481 0.716160 0.154363
H22   H     H_    0.919264 0.932514 0.590888 0.159151
H23   H     H_    0.102138 0.308773 0.279848 0.160729
H24   H     H_    0.091802 0.938617 0.420245 0.156351
H25   H     H_    0.408041 0.438684 0.579588 0.156352
H26   H     H_    0.580527 0.432407 0.408923 0.159306
H27   H     H_    0.939702 0.843064 0.452734 0.186449
H28   H     H_    0.047150 0.840643 0.526500 0.186991
H29   H     H_    0.453067 0.340609 0.473863 0.187009
H30   H     H_    0.560593 0.343129 0.547708 0.186423
H31   H     H_    0.824489 0.802113 0.365199 0.199013
H32   H     H_    0.158381 0.793629 0.618101 0.198184
H33   H     H_    0.341909 0.293514 0.382201 0.198174
H34   H     H_    0.895552 0.310117 0.720044 0.160529
H35   H     H_    0.675876 0.302286 0.635131 0.199047
H36   H     H_    0.793780 0.775871 0.717936 0.155332
H37   H     H_    0.205303 0.777683 0.281852 0.151361
H38   H     H_    0.294779 0.277786 0.718181 0.151648
H39   H     H_    0.706395 0.275548 0.282104 0.156986
H40   H     H_    0.987243 0.723253 0.844367 0.151003
H41   H     H_    0.013332 0.721606 0.155672 0.150534
H42   H     H_    0.486664 0.221500 0.844308 0.150533
H43   H     H_    0.512727 0.223450 0.155635 0.150830
H44   H     H_    0.710932 0.669975 0.657545 0.218147
H45   H     H_    0.886508 0.786727 0.454705 0.211949
H46   H     H_    0.655384 0.703589 0.613163 0.221168
H47   H     H_    0.456962 0.708897 0.598311 0.222520
H48   H     H_    0.453121 0.677643 0.651229 0.216631
H49   H     H_    0.043202 0.209271 0.402803 0.224312
H50   H     H_    0.046518 0.178224 0.349278 0.216613
H51   H     H_    0.772851 0.181653 0.360335 0.204372
H52   H     H_    0.824032 0.182823 0.354042 0.214642
H53   H     H_    0.619609 0.622375 0.597301 0.159322
H54   H     H_    0.479299 0.627017 0.588947 0.156117
H55   H     H_    0.020643 0.127348 0.411644 0.156575
H56   H     H_    0.100297 0.784465 0.524167 0.210780
H57   H     H_    0.880661 0.122137 0.402800 0.154921
H58   H     H_    0.577779 0.512363 0.398745 0.222681
H59   H     H_    0.642401 0.530776 0.436914 0.232408
H60   H     H_    0.321085 0.549978 0.333182 0.241736
H61   H     H_    0.308119 0.603836 0.326170 0.236145
H62   H     H_    0.179289 0.049236 0.666243 0.241744
H63   H     H_    0.192635 0.103045 0.673838 0.236517
H64   H     H_    0.922357 0.012452 0.601383 0.222947
H65   H     H_    0.857699 0.030797 0.563171 0.231743
H66   H     H_    0.654480 0.599262 0.393037 0.211525
H67   H     H_    0.399913 0.284438 0.476192 0.210726
H68   H     H_    0.242957 0.628598 0.350774 0.202273
H69   H     H_    0.257370 0.127920 0.648658 0.202295
H70   H     H_    0.845511 0.099326 0.606870 0.210679
H71   H     H_    0.593229 0.637073 0.343951 0.173874
H72   H     H_    0.241445 0.592937 0.411019 0.184683
H73   H     H_    0.258269 0.092535 0.587691 0.184539
H74   H     H_    0.906678 0.137215 0.655768 0.174279
H75   H     H_    0.658762 0.680142 0.165753 0.217324
H76   H     H_    0.611510 0.650878 0.164330 0.224161
H77   H     H_    0.338491 0.683264 0.834303 0.217108
H78   H     H_    0.613786 0.286787 0.545741 0.211973
H79   H     H_    0.384600 0.652202 0.835788 0.223904
H80   H     H_    0.161542 0.183327 0.165703 0.217076
H81   H     H_    0.115470 0.152230 0.164240 0.223852
H82   H     H_    0.841288 0.180064 0.834252 0.217267
H83   H     H_    0.888584 0.150848 0.835702 0.224106
H84   H     H_    0.862054 0.876134 0.590199 0.152148
H85   H     H_    0.149000 0.882151 0.420811 0.154659
H86   H     H_    0.350834 0.382224 0.579013 0.154782
H87   H     H_    0.637727 0.376020 0.409602 0.152501
H88   H     H_    0.877549 0.858326 0.363354 0.206332
H89   H     H_    0.856460 0.775209 0.843731 0.150648
H90   H     H_    0.105384 0.849726 0.620304 0.206615
H91   H     H_    0.394912 0.349606 0.380001 0.206644
H92   H     H_    0.622818 0.358504 0.636972 0.206380
N1    N     N_R   0.516774 0.711022 0.034229 -0.191116
N2    N     N_R   0.979002 0.748590 0.034060 -0.238710
N3    N     N_R   0.521061 0.248458 0.965943 -0.238570
N4    N     N_R   0.479285 0.249642 0.034143 -0.237849
N5    N     N_R   0.055113 0.749772 0.034428 -0.237770
N6    N     N_R   0.944679 0.748758 0.965505 -0.238683
N7    N     N_R   0.555392 0.248610 0.034499 -0.238781
N8    N     N_R   0.444963 0.249852 0.965591 -0.237744
N9    N     N_3   0.684324 0.687229 0.611478 -0.591198
N10   N     N_3   0.429573 0.692574 0.602883 -0.580897
N11   N     N_3   0.070339 0.192965 0.397771 -0.580033
N12   N     N_R   0.481715 0.711065 0.965771 -0.191230
N13   N     N_3   0.815312 0.187603 0.388138 -0.573394
N14   N     N_3   0.601131 0.532959 0.392051 -0.570576
N15   N     N_3   0.294863 0.573377 0.329904 -0.559189
N16   N     N_3   0.205574 0.072590 0.669569 -0.559123
N17   N     N_3   0.898967 0.033046 0.608016 -0.571077
N18   N     N_3   0.618083 0.680289 0.149135 -0.572820
N19   N     N_3   0.379159 0.682150 0.850945 -0.572804
N20   N     N_3   0.120878 0.182188 0.149069 -0.572806
N21   N     N_3   0.881970 0.180246 0.850879 -0.572842
N22   N     N_R   0.018297 0.211068 0.034241 -0.191214
N23   N     N_R   0.983237 0.211024 0.965783 -0.191091
N24   N     N_R   0.483209 0.787127 0.965780 -0.247286
N25   N     N_R   0.518129 0.787088 0.034349 -0.247478
N26   N     N_R   0.981795 0.287089 0.965634 -0.247323
N27   N     N_R   0.016715 0.287129 0.034203 -0.247136
N28   N     N_R   0.020795 0.749575 0.965875 -0.238045
O1    O     O_R   0.821190 0.768980 0.500000 -0.587009
O2    O     O_R   0.074010 0.954920 0.557790 -0.584774
O3    O     O_R   0.425990 0.454920 0.442210 -0.584635
O4    O     O_R   0.574010 0.454920 0.557790 -0.579929
O5    O     O_R   0.983760 0.954940 0.557800 -0.591309
O6    O     O_R   0.016240 0.954940 0.442200 -0.585186
O7    O     O_R   0.483760 0.454940 0.557800 -0.585136
O8    O     O_R   0.516240 0.454940 0.442200 -0.591287
O9    O     O_R   0.768960 0.821170 0.500020 -0.583363
O10   O     O_R   0.231040 0.821170 0.499980 -0.585080
O11   O     O_R   0.268960 0.321170 0.500020 -0.585019
O12   O     O_R   0.178810 0.768980 0.500000 -0.587005
O13   O     O_R   0.731040 0.321170 0.499980 -0.582693
O14   O     O_R   0.726180 0.723900 0.400140 -0.591169
O15   O     O_R   0.273820 0.723900 0.599860 -0.591621
O16   O     O_R   0.226180 0.223900 0.400140 -0.591719
O17   O     O_R   0.773820 0.223900 0.599860 -0.590612
O18   O     O_R   0.673950 0.776090 0.400160 -0.588623
O19   O     O_R   0.326050 0.776090 0.599840 -0.580896
O20   O     O_R   0.173950 0.276090 0.400160 -0.580712
O21   O     O_R   0.826050 0.276090 0.599840 -0.587571
O22   O     O_R   0.731010 0.678810 0.499990 -0.590703
O23   O     O_R   0.321190 0.268980 0.500000 -0.587066
O24   O     O_R   0.268990 0.678810 0.500010 -0.592425
O25   O     O_R   0.231010 0.178810 0.499990 -0.592654
O26   O     O_R   0.768990 0.178810 0.500010 -0.591836
O27   O     O_R   0.678790 0.731000 0.500010 -0.569172
O28   O     O_R   0.321210 0.731000 0.499990 -0.565103
O29   O     O_R   0.178790 0.231000 0.500010 -0.564359
O30   O     O_R   0.821210 0.231000 0.499990 -0.560799
O31   O     O_R   0.826030 0.723890 0.599860 -0.586709
O32   O     O_R   0.173970 0.723890 0.400140 -0.588075
O33   O     O_R   0.326030 0.223890 0.599860 -0.588179
O34   O     O_R   0.678810 0.268980 0.500000 -0.586489
O35   O     O_R   0.673970 0.223890 0.400140 -0.587442
O36   O     O_R   0.773800 0.776080 0.599870 -0.582771
O37   O     O_R   0.226200 0.776080 0.400130 -0.589476
O38   O     O_R   0.273800 0.276080 0.599870 -0.589297
O39   O     O_R   0.726200 0.276080 0.400130 -0.581198
O40   O     O_R   0.425940 0.545090 0.442170 -0.596758
O41   O     O_R   0.574060 0.545090 0.557830 -0.587168
O42   O     O_R   0.925940 0.045090 0.442170 -0.587881
O43   O     O_R   0.074060 0.045090 0.557830 -0.596499
O44   O     O_R   0.483700 0.545120 0.557760 -0.588941
O45   O     O_R   0.516300 0.545120 0.442240 -0.594945
O46   O     O_R   0.983700 0.045120 0.557760 -0.594097
O47   O     O_R   0.016300 0.045120 0.442240 -0.588937
O48   O     O_R   0.925990 0.954920 0.442210 -0.580040

loop_
_geom_bond_atom_site_label_1
_geom_bond_atom_site_label_2
_ccdc_geom_bond_type
Cu2   O41   S    
C58   C62   A    
Cu5   O15   S    
C95   H2    S    
C51   C123  A    
C20   C144  S    
C23   C70   S    
C79   O34   A    
C37   H16   S    
Cu9   O19   S    
C16   H70   S    
C60   H85   S    
C31   C101  A    
C92   H38   S    
C88   C123  S    
C21   O48   A    
C4    C142  A    
C95   C99   A    
C5    C143  A    
N26   N27   A    
C89   C94   A    
C21   O5    A    
C131  C140  A    
N24   N25   A    
C46   C55   A    
C70   C74   A    
C28   O33   A    
C3    C19   S    
C65   H25   S    
Cu7   Cu11  S    
C22   C69   S    
C48   H18   S    
C30   C90   A    
C83   H67   S    
C20   O43   A    
C66   H26   S    
C14   C121  S    
Cu11  O13   S    
C24   C41   S    
C53   C75   A    
C13   C42   S    
C57   O12   A    
C83   H33   S    
C80   H30   S    
H83   N21   S    
C140  C144  A    
C127  C136  S    
C43   N18   S    
C109  H7    S    
C99   C116  S    
C62   C66   A    
C136  O25   A    
C12   H71   S    
C87   C112  S    
H52   N13   S    
C24   N22   A    
C108  C113  A    
C1    O1    A    
C2    C39   S    
C36   C40   A    
C53   C58   A    
Cu10  O20   S    
C87   O16   A    
C137  O26   A    
Cu7   O26   S    
C58   C79   S    
C11   H13   S    
Cu12  O40   S    
C17   O44   A    
H46   N9    S    
C103  H40   S    
C19   O42   A    
C49   H19   S    
Cu1   O14   S    
Cu7   O17   S    
Cu1   O1    S    
H63   N16   S    
H60   N15   S    
C85   C90   S    
Cu5   O24   S    
C64   C69   A    
C59   C63   A    
C33   C38   A    
C60   C64   A    
C16   C124  S    
Cu9   O28   S    
C45   C50   A    
C94   H89   S    
C127  C131  A    
H65   N17   S    
C118  N7    A    
C61   C65   A    
H75   N18   S    
C126  C130  A    
C31   C36   A    
C103  C107  A    
C26   C111  S    
C140  H55   S    
Cu7   O35   S    
Cu8   O36   S    
Cu6   O16   S    
Cu3   Cu4   S    
C3    C141  A    
C1    C54   S    
C119  N8    A    
Cu4   O43   S    
C62   H87   S    
Cu3   O47   S    
C85   O14   A    
Cu2   O44   S    
C15   H69   S    
C53   C84   S    
C77   C82   S    
C9    H10   S    
C52   C74   A    
C91   H37   S    
C134  N24   A    
C65   C70   A    
C92   C96   A    
Cu6   O25   S    
C27   O32   A    
C88   O17   A    
C122  C127  A    
Cu5   Cu9   S    
C46   C82   S    
C139  C143  A    
C133  O22   A    
C18   O41   A    
C25   C71   S    
C29   C115  S    
C48   C90   A    
H59   N14   S    
Cu2   O4    S    
H64   N17   S    
C130  N10   S    
C44   N19   S    
C82   H56   S    
C54   C59   A    
H79   N19   S    
Cu4   O5    S    
C30   C34   A    
C34   C39   A    
C22   O6    A    
C2    N1    A    
Cu3   O6    S    
C23   O3    A    
C56   C68   S    
C40   C134  S    
C82   H32   S    
C84   H78   S    
C5    C9    S    
C119  N3    A    
C68   O11   A    
C20   O47   A    
C8    C12   S    
C100  C119  S    
C32   C37   A    
C18   O45   A    
C12   H66   S    
Cu9   O37   S    
C109  C114  A    
C27   C113  S    
N1    N12   A    
C6    C144  A    
C93   C97   A    
C132  C141  A    
C105  C109  A    
C41   C45   A    
C86   O15   A    
C56   C61   A    
C107  C111  A    
C29   O39   A    
N5    N28   A    
C22   O2    A    
C23   O7    A    
Cu6   O23   S    
C59   H84   S    
C96   C100  A    
C89   H36   S    
Cu4   O2    S    
C37   C41   A    
Cu1   Cu8   S    
C8    H9    S    
C91   C95   A    
C40   C44   A    
C96   H3    S    
C27   O37   A    
C51   H21   S    
C46   C73   A    
C15   H73   S    
N2    N6    A    
C30   H1    S    
H50   N11   S    
H61   N15   S    
C15   C122  S    
C80   C84   S    
C1    O9    A    
Cu12  O45   S    
H44   N9    S    
C63   H22   S    
C3    C7    A    
C13   N23   A    
C49   C101  A    
C94   C98   A    
C98   C103  A    
C84   H35   S    
C77   H90   S    
C73   C77   S    
H48   N10   S    
C78   C83   S    
C107  H5    S    
C26   O36   A    
C80   H92   S    
C69   C73   A    
C28   O38   A    
C76   H27   S    
C97   C102  A    
C72   C76   S    
C124  C128  A    
Cu1   O31   S    
C99   C104  A    
C55   C60   A    
C135  O28   A    
C35   C54   A    
C133  O27   A    
C25   O4    A    
C130  C139  A    
C116  N5    A    
C139  H54   S    
Cu3   O42   S    
C97   H4    S    
C138  C142  A    
Cu12  O8    S    
Cu8   O9    S    
C81   H45   S    
C125  C129  A    
C33   H34   S    
C52   C83   S    
C9    C14   S    
H77   N19   S    
C11   C16   S    
C47   N21   S    
N3    N7    A    
C66   C71   A    
C78   H29   S    
C13   N26   A    
Cu12  O3    S    
C131  N11   S    
C105  H42   S    
C126  C135  S    
Cu5   O12   S    
C104  C108  A    
C19   O46   A    
Cu10  O29   S    
C61   H86   S    
C110  H8    S    
C32   C112  A    
Cu1   O22   S    
H58   N14   S    
C87   O20   A    
C6    C10   S    
C47   C51   A    
C38   C42   A    
Cu11  O21   S    
C129  N9    S    
C17   C143  S    
C2    N25   A    
Cu10  O38   S    
C116  N2    A    
C16   H74   S    
C120  C125  A    
C86   O19   A    
C121  C126  A    
C75   C80   S    
C31   H12   S    
C74   C78   S    
Cu9   O10   S    
H80   N20   S    
N22   N23   A    
C29   O35   A    
C110  C115  A    
C44   C49   A    
H82   N21   S    
H62   N16   S    
C104  H41   S    
C7    C124  A    
C4    C8    S    
C35   C81   S    
Cu11  O39   S    
C7    C11   S    
C100  C105  A    
H81   N20   S    
C14   H68   S    
C76   H88   S    
C67   C72   A    
C10   C15   S    
C64   H24   S    
C132  N13   S    
C5    C121  A    
C77   H28   S    
C50   H20   S    
C93   C115  A    
C106  C110  A    
C12   C120  S    
C136  O29   A    
C45   N20   S    
C129  C138  A    
C10   N16   S    
C10   H11   S    
C32   H23   S    
C43   C48   A    
C34   H14   S    
H47   N10   S    
N4    N8    A    
C26   O31   A    
C21   C67   S    
C93   H39   S    
C117  N28   A    
C128  C132  A    
Cu4   O46   S    
Cu5   O32   S    
H51   N13   S    
C68   O23   A    
C63   C67   A    
C17   O40   A    
C18   C142  S    
C141  H57   S    
C38   H17   S    
C39   C43   A    
C108  H6    S    
C91   C113  A    
Cu8   O18   S    
C128  C137  S    
C117  N6    A    
Cu11  O30   S    
C50   C112  A    
C78   H91   S    
C11   N17   S    
Cu10  O11   S    
C25   O8    A    
C28   C114  S    
C79   O13   A    
Cu6   O33   S    
C6    C122  A    
C8    N14   S    
C98   C117  S    
H49   N11   S    
C125  C133  S    
C36   H15   S    
C102  C118  S    
C76   C81   S    
C35   C72   A    
C57   O10   A    
C89   C111  A    
C138  H53   S    
C55   C57   S    
Cu3   O48   S    
C118  N4    A    
C135  O24   A    
C71   C75   A    
C86   C101  S    
C14   H72   S    
C85   O18   A    
C9    N15   S    
H76   N18   S    
C102  C106  A    
C42   C47   A    
C137  O30   A    
Cu2   Cu12  S    
Cu7   O34   S    
C134  N12   A    
Cu6   Cu10  S    
C33   C123  A    
C4    C120  A    
C88   O21   A    
Cu8   O27   S    
C92   C114  A    
C81   H31   S    
Cu2   O7    S    
C52   C56   A    
C106  H43   S    
C24   N27   A    
