data_mof_unit_61297.cif
_audit_creation_date              2012-12-10T16:39:49-0500
_audit_creation_method            fapswitch 2.2
_symmetry_space_group_name_H-M    P1
_symmetry_Int_Tables_number       1
_space_group_crystal_system       triclinic
_cell_length_a                    10.870152
_cell_length_b                    10.900498
_cell_length_c                    16.043476
_cell_angle_alpha                 90.820907
_cell_angle_beta                  97.813162
_cell_angle_gamma                 98.657575
_cell_volume                      1860.71045133

loop_
_atom_site_label
_atom_site_type_symbol
_atom_type_description
_atom_site_fract_x
_atom_site_fract_y
_atom_site_fract_z
_atom_type_partial_charge
C1    C     C_R   0.838729 0.525805 0.519232 0.526555
C2    C     C_R   0.526727 0.835472 0.517544 0.479151
C3    C     C_R   0.473524 0.163136 0.482076 0.531382
C4    C     C_R   0.484022 0.515652 0.275883 0.502583
C5    C     C_R   0.516144 0.484027 0.723914 0.496101
C6    C     C_1   0.478702 0.520087 0.186297 0.005207
C7    C     C_2   0.470386 0.523386 0.020729 -0.100795
C8    C     C_2   0.539993 0.457816 0.979134 0.156822
C9    C     C_3   0.671235 0.292073 0.973835 -0.297326
C10   C     C_3   0.911014 0.414096 0.335218 -0.291298
C11   C     C_3   0.700919 0.971327 0.641934 0.003094
C12   C     C_1   0.530638 0.468628 0.888720 -0.032400
C13   C     C_3   0.801598 0.059297 0.697788 -0.359302
C14   C     C_1   0.474653 0.522352 0.110950 -0.048704
C15   C     C_1   0.523454 0.476434 0.813458 -0.015965
C16   C     C_2   0.023726 0.461402 0.475015 0.114610
C17   C     C_2   0.972891 0.534469 0.524119 -0.060631
C18   C     C_2   0.461719 0.028204 0.479016 -0.078964
C19   C     C_2   0.544371 0.969365 0.526882 0.267380
C20   C     C_R   0.160480 0.474366 0.481900 0.504884
H1    H     H_    0.408276 0.580381 0.986296 0.104152
H2    H     H_    0.995571 0.440136 0.303570 0.150238
H3    H     H_    0.861692 0.495659 0.338963 0.176657
H4    H     H_    0.744402 0.892218 0.620923 0.134416
H5    H     H_    0.625307 0.936815 0.680122 0.128404
H6    H     H_    0.760829 0.139142 0.720240 0.168239
H7    H     H_    0.839773 0.009678 0.753090 0.088641
H8    H     H_    0.879402 0.094480 0.661948 0.167409
H9    H     H_    0.030391 0.605310 0.566848 0.085569
H10   H     H_    0.382650 0.975652 0.438183 0.052406
H11   H     H_    0.605225 0.353487 0.081010 0.255512
H12   H     H_    0.736763 0.243521 0.015766 0.136452
H13   H     H_    0.723776 0.338096 0.925160 0.163374
H14   H     H_    0.591959 0.222409 0.943490 0.145924
H15   H     H_    0.982343 0.287760 0.415731 0.267238
H16   H     H_    0.846239 0.339476 0.296770 0.141454
N1    N     N_2   0.624486 0.383127 0.022759 -0.502256
N2    N     N_2   0.946569 0.369955 0.418324 -0.507308
O1    O     O_3   0.500000 0.500000 0.500000 -0.442523
O2    O     O_R   0.566290 0.591070 0.323460 -0.537492
O3    O     O_R   0.580640 0.419420 0.684420 -0.545603
O4    O     O_R   0.407770 0.434760 0.307690 -0.537161
O5    O     O_R   0.445300 0.554750 0.684430 -0.538864
O6    O     O_3   0.653835 0.035860 0.571824 -0.532336
O7    O     O_R   0.452040 0.769470 0.559450 -0.563611
O8    O     O_R   0.554760 0.223750 0.537250 -0.472931
O9    O     O_R   0.782610 0.596300 0.470630 -0.547995
O10   O     O_R   0.210590 0.410470 0.432660 -0.541357
O11   O     O_R   0.777820 0.443700 0.559450 -0.519077
O12   O     O_R   0.228980 0.549520 0.537250 -0.554071
O13   O     O_R   0.592170 0.786730 0.470640 -0.538580
O14   O     O_R   0.401030 0.220040 0.432660 -0.551594
Zn1   Zn    Zn3+2 0.408180 0.591840 0.569080 0.920813
Zn2   Zn    Zn3+2 0.608390 0.616500 0.442190 0.937074
Zn3   Zn    Zn3+2 0.381900 0.393170 0.419650 0.939877
Zn4   Zn    Zn3+2 0.601540 0.398480 0.569080 0.966526

loop_
_geom_bond_atom_site_label_1
_geom_bond_atom_site_label_2
_ccdc_geom_bond_type
O10   Zn3   S    
C20   O12   A    
C3    O14   A    
C12   C15   T    
C13   H8    S    
C18   H10   S    
O4    Zn3   S    
C6    C14   T    
O11   Zn4   S    
C17   H9    S    
C13   H7    S    
C3    O8    A    
C1    C17   S    
O1    Zn4   S    
O14   Zn3   S    
C10   N2    S    
C8    C12   S    
O13   Zn2   S    
C9    N1    S    
C5    O5    A    
O7    Zn1   S    
C11   O6    S    
O3    Zn4   S    
O1    Zn1   S    
C10   H2    S    
C9    H13   S    
C11   C13   S    
C20   O10   A    
C4    O4    A    
O9    Zn2   S    
C16   C20   S    
O2    Zn2   S    
C2    O7    A    
C9    H14   S    
C10   H3    S    
C13   H6    S    
C5    C15   S    
O12   Zn1   S    
C8    N1    S    
C11   H5    S    
O1    Zn2   S    
H11   N1    S    
C11   H4    S    
C7    C8    D    
H15   N2    S    
C19   O6    S    
C3    C18   S    
C4    C6    S    
C18   C19   D    
C2    O13   A    
O8    Zn4   S    
C5    O3    A    
C1    O9    A    
C10   H16   S    
C9    H12   S    
C2    C19   S    
C7    H1    S    
C1    O11   A    
O5    Zn1   S    
C7    C14   S    
O1    Zn3   S    
C4    O2    A    
C16   N2    S    
C16   C17   D    
