data_mof_unit_58004.cif
_audit_creation_date              2012-12-11T17:04:57-0500
_audit_creation_method            fapswitch 2.2
_symmetry_space_group_name_H-M    P1
_symmetry_Int_Tables_number       1
_space_group_crystal_system       triclinic
_cell_length_a                    17.451541
_cell_length_b                    24.488097
_cell_length_c                    15.071139
_cell_angle_alpha                 91.009207
_cell_angle_beta                  125.718137
_cell_angle_gamma                 89.075057
_cell_volume                      5228.27093431

loop_
_atom_site_label
_atom_site_type_symbol
_atom_type_description
_atom_site_fract_x
_atom_site_fract_y
_atom_site_fract_z
_atom_type_partial_charge
Br1   Br    Br    0.477325 0.597661 0.400750 -0.252457
Br2   Br    Br    0.866718 0.801636 0.803138 -0.459342
Br3   Br    Br    0.853685 0.218617 0.333059 -0.272716
Br4   Br    Br    0.366715 0.301623 0.803127 -0.459362
Br5   Br    Br    0.967737 0.384897 0.527622 -0.357861
Br6   Br    Br    0.820983 0.402492 0.252531 -0.469704
Br7   Br    Br    0.467863 0.884907 0.527742 -0.357990
Br8   Br    Br    0.321070 0.902430 0.252617 -0.469700
Br9   Br    Br    0.066088 0.400583 0.376312 -0.393599
Br10  Br    Br    0.853837 0.396824 0.630473 -0.308800
Br11  Br    Br    0.566118 0.900579 0.376316 -0.393494
Br12  Br    Br    0.518134 0.621466 0.676171 -0.236958
Br13  Br    Br    0.353842 0.896821 0.630462 -0.308827
Br14  Br    Br    0.794253 0.305764 0.802311 -0.304932
Br15  Br    Br    0.251546 0.324465 0.213564 -0.356942
Br16  Br    Br    0.294260 0.805764 0.802306 -0.304965
Br17  Br    Br    0.751539 0.824461 0.213562 -0.356924
Br18  Br    Br    0.334637 0.522568 0.614595 -0.340379
Br19  Br    Br    0.623682 0.479949 0.477544 -0.345285
Br20  Br    Br    0.834629 0.022550 0.614584 -0.340327
Br21  Br    Br    0.123695 0.979970 0.477553 -0.345333
Br22  Br    Br    0.977330 0.097682 0.400785 -0.252418
Br23  Br    Br    0.018136 0.121455 0.676208 -0.236936
Br24  Br    Br    0.356371 0.652283 0.141650 -0.401189
Br25  Br    Br    0.673703 0.732121 0.661780 -0.298237
Br26  Br    Br    0.856391 0.152304 0.141686 -0.401174
Br27  Br    Br    0.173687 0.232117 0.661778 -0.298210
Br28  Br    Br    0.353714 0.718601 0.333053 -0.272727
C1    C     C_R   0.854071 0.653225 0.908495 -0.137364
C2    C     C_R   0.944147 0.499267 0.637706 0.062825
C3    C     C_R   0.758060 0.046614 0.302450 0.538907
C4    C     C_R   0.827175 0.360716 0.911558 0.403169
C5    C     C_R   0.185302 0.371002 0.088574 0.346393
C6    C     C_R   0.327180 0.860713 0.911558 0.403161
C7    C     C_R   0.685301 0.871001 0.088574 0.346385
C8    C     C_R   0.944924 0.654014 0.089319 0.497791
C9    C     C_R   0.060844 0.651678 0.911842 0.538431
C10   C     C_R   0.444920 0.154013 0.089319 0.497837
C11   C     C_R   0.560855 0.151674 0.911839 0.538213
C12   C     C_R   0.885504 0.686269 0.997875 -0.023424
C13   C     C_R   0.459418 0.003508 0.283340 -0.022104
C14   C     C_R   0.125583 0.681625 0.004188 0.041386
C15   C     C_R   0.385499 0.186268 0.997874 -0.023414
C16   C     C_R   0.625591 0.181623 0.004183 0.041447
C17   C     C_R   0.444134 0.999271 0.637696 0.062744
C18   C     C_R   0.674112 0.502267 0.725113 -0.132030
C19   C     C_R   0.307090 0.501761 0.362172 -0.113054
C20   C     C_R   0.174112 0.002266 0.725119 -0.132033
C21   C     C_R   0.807096 0.001762 0.362167 -0.113069
C22   C     C_3   0.496003 0.463018 0.621836 -0.311576
C23   C     C_3   0.467536 0.453920 0.504112 -0.260542
C24   C     C_3   0.996004 0.963012 0.621824 -0.311564
C25   C     C_R   0.151338 0.651124 0.093324 -0.185736
C26   C     C_3   0.967543 0.953924 0.504100 -0.260529
C27   C     C_3   0.425593 0.511575 0.581289 0.350324
C28   C     C_3   0.543503 0.493927 0.526314 0.331277
C29   C     C_3   0.925592 0.011567 0.581287 0.350273
C30   C     C_3   0.043510 0.993935 0.526317 0.331272
C31   C     C_3   0.398928 0.502534 0.465889 -0.147076
C32   C     C_3   0.572486 0.503148 0.643052 -0.130951
C33   C     C_3   0.898932 0.002537 0.465886 -0.147082
C34   C     C_3   0.072487 0.003146 0.643055 -0.130933
C35   C     C_3   0.475427 0.542266 0.488499 0.282041
C36   C     C_R   0.354069 0.153224 0.908494 -0.137382
C37   C     C_3   0.503311 0.551557 0.604946 0.328141
C38   C     C_3   0.975430 0.042273 0.488512 0.282077
C39   C     C_3   0.003310 0.051554 0.604959 0.328126
C40   C     C_R   0.796401 0.292319 0.106423 0.103470
C41   C     C_R   0.219388 0.302830 0.893378 0.060407
C42   C     C_R   0.296420 0.792304 0.106418 0.103444
C43   C     C_R   0.719390 0.802827 0.893382 0.060380
C44   C     C_R   0.763631 0.318833 0.009453 -0.062086
C45   C     C_R   0.253819 0.332474 0.989124 -0.108038
C46   C     C_R   0.263643 0.818823 0.009452 -0.062104
C47   C     C_R   0.651340 0.151124 0.093321 -0.185718
C48   C     C_R   0.753819 0.832471 0.989128 -0.108036
C49   C     C_R   0.667091 0.314257 0.921533 0.538393
C50   C     C_R   0.348520 0.324435 0.080022 0.565042
C51   C     C_R   0.167099 0.814254 0.921541 0.538391
C52   C     C_R   0.848520 0.824433 0.080027 0.565050
C53   C     C_R   0.911923 0.369371 0.093130 -0.106678
C54   C     C_R   0.096385 0.377893 0.906053 -0.072792
C55   C     C_R   0.411930 0.869366 0.093131 -0.106687
C56   C     C_R   0.596385 0.877892 0.906053 -0.072816
C57   C     C_R   0.116075 0.771386 0.922818 -0.078443
C58   C     C_R   0.830594 0.348587 0.003176 -0.091903
C59   C     C_R   0.897247 0.778355 0.081242 -0.126199
C60   C     C_R   0.616072 0.271384 0.922808 -0.078535
C61   C     C_R   0.397244 0.278355 0.081238 -0.126207
C62   C     C_R   0.159824 0.735930 0.012522 -0.066526
C63   C     C_R   0.855980 0.743387 0.989528 -0.049087
C64   C     C_R   0.659823 0.235930 0.012516 -0.066504
C65   C     C_R   0.355973 0.243386 0.989526 -0.049083
C66   C     C_R   0.245764 0.751389 0.108484 -0.013199
C67   C     C_R   0.770070 0.758875 0.892431 0.041542
C68   C     C_R   0.745751 0.251398 0.108484 -0.013229
C69   C     C_R   0.184388 0.362250 0.996138 -0.069981
C70   C     C_R   0.270063 0.258874 0.892428 0.041572
C71   C     C_3   0.334691 0.720808 0.192311 0.569049
C72   C     C_3   0.753598 0.779101 0.788503 0.553089
C73   C     C_3   0.834681 0.220825 0.192328 0.569038
C74   C     C_3   0.253592 0.279098 0.788498 0.553072
C75   C     C_3   0.889706 0.266616 0.189036 -0.487265
C76   C     C_3   0.198748 0.326313 0.790994 -0.509375
C77   C     C_3   0.389721 0.766593 0.189012 -0.487249
C78   C     C_3   0.698745 0.826312 0.790998 -0.509334
C79   C     C_R   0.916426 0.552608 0.483341 -0.167615
C80   C     C_R   0.330603 0.848580 0.003176 -0.091889
C81   C     C_R   0.919030 0.555105 0.393510 -0.111879
C82   C     C_R   0.416226 0.052597 0.483197 -0.167344
C83   C     C_R   0.418836 0.055092 0.393370 -0.112195
C84   C     C_R   0.919513 0.501355 0.526903 -0.031626
C85   C     C_R   0.913319 0.507417 0.338007 -0.062560
C86   C     C_R   0.419466 0.001349 0.526874 -0.031556
C87   C     C_R   0.413280 0.007396 0.337975 -0.062457
C88   C     C_R   0.906202 0.453821 0.463732 0.328157
C89   C     C_R   0.882816 0.460166 0.358891 0.320845
C90   C     C_R   0.406247 0.953804 0.463769 0.328130
C91   C     C_R   0.684387 0.862248 0.996139 -0.069983
C92   C     C_R   0.382862 0.960128 0.358923 0.320899
C93   C     C_3   0.984649 0.603102 0.436940 0.731780
C94   C     C_3   0.980713 0.601940 0.535246 0.711646
C95   C     C_3   0.484230 0.103192 0.436652 0.732369
C96   C     C_3   0.480281 0.102028 0.534950 0.711349
C97   C     C_R   0.978223 0.547604 0.243939 -0.047679
C98   C     C_R   0.956837 0.545062 0.699966 -0.069180
C99   C     C_R   0.478232 0.047602 0.243956 -0.047883
C100  C     C_R   0.456831 0.045065 0.699963 -0.069368
C101  C     C_R   0.730523 0.456058 0.748580 0.454385
C102  C     C_R   0.959404 0.503513 0.283319 -0.022040
C103  C     C_R   0.255721 0.456110 0.304557 0.479139
C104  C     C_R   0.230524 0.956057 0.748583 0.454380
C105  C     C_R   0.755725 0.956111 0.304555 0.479136
C106  C     C_R   0.999993 0.457264 0.269888 0.338674
C107  C     C_R   0.944963 0.454680 0.694072 0.305556
C108  C     C_R   0.500005 0.957262 0.269898 0.338714
C109  C     C_R   0.444958 0.954684 0.694068 0.305607
C110  C     C_R   0.730356 0.547002 0.747354 0.497058
C111  C     C_R   0.258058 0.546613 0.302453 0.538950
C112  C     C_R   0.230356 0.047001 0.747359 0.497072
H1    H     H_    0.821910 0.667830 0.827195 0.176051
H2    H     H_    0.965717 0.770077 0.155304 0.193309
H3    H     H_    0.545630 0.264488 0.850984 0.246868
H4    H     H_    0.465713 0.270076 0.155300 0.193308
H5    H     H_    0.929227 0.254901 0.154475 0.226963
H6    H     H_    0.122094 0.325326 0.724249 0.257550
H7    H     H_    0.429226 0.754874 0.154431 0.226960
H8    H     H_    0.622092 0.825318 0.724257 0.257573
H9    H     H_    0.931189 0.290797 0.266255 0.262363
H10   H     H_    0.231844 0.366895 0.804323 0.226020
H11   H     H_    0.431222 0.790769 0.266234 0.262356
H12   H     H_    0.187577 0.665942 0.175759 0.174288
H13   H     H_    0.731832 0.866896 0.804323 0.226022
H14   H     H_    0.939119 0.363695 0.176503 0.191725
H15   H     H_    0.069998 0.375013 0.821171 0.157217
H16   H     H_    0.439130 0.863687 0.176505 0.191734
H17   H     H_    0.569998 0.875012 0.821172 0.157234
H18   H     H_    0.957464 0.589470 0.241414 0.218497
H19   H     H_    0.938433 0.586175 0.671486 0.185222
H20   H     H_    0.457458 0.089466 0.241413 0.218565
H21   H     H_    0.438423 0.086180 0.671496 0.185390
H22   H     H_    0.656783 0.382906 0.854131 0.302550
H23   H     H_    0.321908 0.167829 0.827195 0.176036
H24   H     H_    0.359328 0.394416 0.148432 0.323836
H25   H     H_    0.156796 0.882905 0.854145 0.302544
H26   H     H_    0.859325 0.894414 0.148437 0.323828
H27   H     H_    0.987013 0.679760 0.410734 0.382272
H28   H     H_    0.106037 0.623576 0.656491 0.379612
H29   H     H_    0.486218 0.179859 0.410210 0.382241
H30   H     H_    0.605344 0.123923 0.656384 0.379803
H31   H     H_    0.096122 0.555550 0.495172 0.350265
H32   H     H_    0.869972 0.649362 0.481581 0.350325
H33   H     H_    0.595917 0.055808 0.495043 0.350292
H34   H     H_    0.687575 0.165943 0.175754 0.174279
H35   H     H_    0.369313 0.149278 0.481096 0.350404
H36   H     H_    0.633856 0.400911 0.676574 0.355504
H37   H     H_    0.300305 0.411588 0.431403 0.360251
H38   H     H_    0.133860 0.900909 0.676578 0.355505
H39   H     H_    0.800320 0.911588 0.431403 0.360254
H40   H     H_    0.745413 0.610827 0.688171 0.329276
H41   H     H_    0.203100 0.614677 0.302858 0.336751
H42   H     H_    0.245407 0.110826 0.688171 0.329292
H43   H     H_    0.703103 0.114678 0.302855 0.336748
H44   H     H_    0.051843 0.698211 0.185581 0.309956
H45   H     H_    0.504241 0.431224 0.678443 0.229921
H46   H     H_    0.940127 0.650632 0.773706 0.310877
H47   H     H_    0.551841 0.198209 0.185584 0.309959
H48   H     H_    0.440121 0.150650 0.773719 0.310924
H49   H     H_    0.453775 0.413911 0.461675 0.234678
H50   H     H_    0.004239 0.931212 0.678420 0.229925
H51   H     H_    0.953785 0.913918 0.461652 0.234683
H52   H     H_    0.045628 0.764495 0.850999 0.246874
N1    N     N_R   0.892620 0.603790 0.941770 -0.100408
N2    N     N_R   0.973690 0.529110 0.793240 -0.091877
N3    N     N_R   0.526310 0.029110 0.206760 -0.081893
N4    N     N_R   0.473690 0.029110 0.793240 -0.091868
N5    N     N_R   0.818570 0.472310 0.793020 -0.089586
N6    N     N_R   0.181430 0.472310 0.206980 -0.118768
N7    N     N_R   0.318570 0.972310 0.793020 -0.089581
N8    N     N_R   0.681430 0.972310 0.206980 -0.118765
N9    N     N_R   0.026930 0.472300 0.207330 -0.084128
N10   N     N_R   0.973070 0.472300 0.792670 -0.093042
N11   N     N_R   0.526930 0.972300 0.207330 -0.084130
N12   N     N_R   0.107380 0.603790 0.058230 -0.075382
N13   N     N_R   0.473070 0.972300 0.792670 -0.093039
N14   N     N_R   0.817960 0.529130 0.792460 -0.152222
N15   N     N_R   0.182040 0.529130 0.207540 -0.148894
N16   N     N_R   0.317960 0.029130 0.792460 -0.152208
N17   N     N_R   0.682040 0.029130 0.207540 -0.148896
N18   N     N_R   0.894850 0.397640 0.943830 -0.095976
N19   N     N_R   0.105150 0.397640 0.056170 -0.077783
N20   N     N_R   0.394850 0.897640 0.943830 -0.095979
N21   N     N_R   0.605150 0.897640 0.056170 -0.077785
N22   N     N_R   0.950040 0.603780 0.055950 -0.100646
N23   N     N_R   0.392620 0.103790 0.941770 -0.100401
N24   N     N_R   0.049960 0.603780 0.944050 -0.112335
N25   N     N_R   0.450040 0.103780 0.055950 -0.100636
N26   N     N_R   0.549960 0.103780 0.944050 -0.112315
N27   N     N_R   0.607380 0.103790 0.058230 -0.075385
N28   N     N_R   0.952270 0.397640 0.058010 -0.073704
N29   N     N_R   0.047730 0.397640 0.941990 -0.063252
N30   N     N_R   0.452270 0.897640 0.058010 -0.073707
N31   N     N_R   0.547730 0.897640 0.941990 -0.063251
N32   N     N_R   0.026310 0.529110 0.206760 -0.081889
Ni1   Ni    Ni4+2 0.934160 0.565860 0.869070 0.186034
Ni2   Ni    Ni4+2 0.065840 0.565860 0.130930 0.236038
Ni3   Ni    Ni4+2 0.434160 0.065860 0.869070 0.186037
Ni4   Ni    Ni4+2 0.565840 0.065860 0.130930 0.236024
Ni5   Ni    Ni4+2 0.067260 0.435560 0.132230 0.313185
Ni6   Ni    Ni4+2 0.932740 0.435560 0.867770 0.320433
Ni7   Ni    Ni4+2 0.567260 0.935560 0.132230 0.313173
Ni8   Ni    Ni4+2 0.432740 0.935560 0.867770 0.320429
O1    O     O_3   0.622502 0.347826 0.831871 -0.712045
O2    O     O_3   0.937296 0.648415 0.545391 -0.701654
O3    O     O_3   0.574603 0.092508 0.461551 -0.699282
O4    O     O_3   0.436633 0.148433 0.544931 -0.701931
O5    O     O_3   0.699674 0.405343 0.701746 -0.650197
O6    O     O_3   0.254622 0.408540 0.351016 -0.653734
O7    O     O_3   0.199676 0.905343 0.701745 -0.650196
O8    O     O_3   0.754631 0.908541 0.351017 -0.653731
O9    O     O_3   0.697431 0.596562 0.697010 -0.671295
O10   O     O_3   0.266176 0.597159 0.348011 -0.650092
O11   O     O_3   0.197429 0.096561 0.697016 -0.671298
O12   O     O_3   0.394587 0.359338 0.169206 -0.677324
O13   O     O_3   0.766179 0.097160 0.348008 -0.650105
O14   O     O_3   0.012474 0.672647 0.192959 -0.733160
O15   O     O_3   0.997866 0.672995 0.809747 -0.723409
O16   O     O_3   0.512467 0.172647 0.192959 -0.733133
O17   O     O_3   0.497893 0.172984 0.809731 -0.723513
O18   O     O_3   0.122509 0.847827 0.831883 -0.712034
O19   O     O_3   0.894585 0.859336 0.169211 -0.677325
O20   O     O_3   0.941878 0.649356 0.371339 -0.698191
O21   O     O_3   0.068084 0.589751 0.633619 -0.721971
O22   O     O_3   0.441249 0.149375 0.370889 -0.698299
O23   O     O_3   0.567713 0.089976 0.633363 -0.722138
O24   O     O_3   0.074963 0.592276 0.461770 -0.699461

loop_
_geom_bond_atom_site_label_1
_geom_bond_atom_site_label_2
_ccdc_geom_bond_type
C17   C86   S    
C30   C34   S    
C2    C98   A    
C59   C63   A    
Br24  C71   S    
C8    O14   S    
C79   C84   A    
C13   C99   A    
C11   N26   A    
C7    C91   A    
C10   N25   A    
C40   C75   S    
C51   C57   A    
H42   O11   S    
C94   O21   S    
C35   C37   S    
C110  N14   A    
N6    Ni5   S    
C78   H8    S    
C95   C96   S    
C54   N29   A    
N20   N30   A    
C98   H19   S    
C55   C80   A    
C57   H52   S    
C45   C69   S    
C11   O17   S    
C75   H5    S    
H39   O8    S    
C34   C39   S    
C106  N9    A    
C97   C102  A    
N2    Ni1   S    
Br17  C7    S    
C42   C66   A    
C104  O7    S    
C3    C21   A    
C52   C59   A    
C27   C31   S    
N23   N25   A    
C14   C25   A    
C10   O16   S    
N20   Ni8   S    
C6    N20   A    
C97   N32   A    
C43   C67   A    
C103  O6    S    
Br23  C39   S    
C77   H7    S    
C112  N16   A    
C64   C68   A    
N18   N28   A    
C88   C89   A    
N1    Ni1   S    
C23   C28   S    
H43   O13   S    
C76   H10   S    
C9    C14   A    
C111  O10   S    
C82   C83   A    
Br22  C38   S    
C95   O22   S    
C2    C107  A    
C36   N23   A    
Br16  C6    S    
H22   O1    S    
C33   C38   S    
C30   C38   S    
C2    C84   S    
C60   C64   A    
C49   C60   A    
C52   O19   S    
Br4   C74   S    
N29   Ni6   S    
C42   C46   A    
C25   H12   S    
C45   C50   A    
Br6   C89   S    
C41   C45   A    
N8    Ni7   S    
N27   Ni4   S    
C82   C86   A    
C9    N24   A    
C5    C69   A    
C53   C58   A    
N21   Ni7   S    
C81   C85   A    
N10   Ni6   S    
C8    N22   A    
C41   C70   A    
Br3   C73   S    
N9    Ni5   S    
C38   C39   S    
N4    Ni3   S    
Br2   C72   S    
C12   C63   S    
C68   C73   S    
C26   C33   S    
C47   H34   S    
C79   C81   A    
Br7   C90   S    
H30   O23   S    
N5    N14   A    
N4    N13   A    
C29   C39   S    
C96   O23   S    
C77   H11   S    
Br1   C35   S    
C49   O1    S    
H38   O7    S    
C27   C37   S    
C24   C26   S    
C15   C36   A    
C62   C66   A    
C107  N10   A    
C50   C61   A    
C83   C87   A    
C1    H1    S    
C71   C77   S    
C18   C101  A    
C53   H14   S    
C25   N12   A    
C21   C33   S    
C85   C102  S    
C13   C87   S    
C83   C95   S    
H25   O18   S    
C48   C91   S    
C76   H6    S    
C8    C12   A    
C103  N6    A    
Br10  C107  S    
N8    N17   A    
C26   H51   S    
C20   C112  A    
C67   C72   S    
C93   O20   S    
C109  N13   A    
C55   H16   S    
C22   C23   S    
N5    Ni6   S    
C53   N28   A    
C19   C31   S    
C42   C77   S    
C104  N7    A    
C50   O12   S    
H27   O20   S    
C28   C32   S    
N32   Ni2   S    
C14   C62   S    
Br13  C109  S    
H31   O24   S    
C16   C47   A    
N7    Ni8   S    
N1    N22   A    
C60   H3    S    
C44   C49   A    
C99   N3    A    
N19   N29   A    
C4    N18   A    
C98   N2    A    
Br25  C72   S    
C20   C34   S    
C3    N17   A    
C47   N27   A    
C40   C44   A    
C78   H13   S    
C4    C58   A    
N14   Ni1   S    
C17   C109  A    
C23   H49   S    
N18   Ni6   S    
C28   C35   S    
C24   H50   S    
C74   C76   S    
H46   O15   S    
C93   C94   S    
C86   C90   A    
C110  O9    S    
C111  N15   A    
Br18  C27   S    
C85   C89   A    
C54   H15   S    
N28   Ni5   S    
Br28  C71   S    
C94   O2    S    
Br19  C28   S    
C32   C37   S    
C87   C92   A    
C105  N8    A    
C46   C51   A    
Br5   C88   S    
N17   Ni4   S    
C54   C69   A    
C95   O3    S    
C31   C35   S    
C57   C62   A    
N2    N10   A    
C23   C31   S    
N9    N32   A    
C18   C32   S    
C55   N30   A    
N26   Ni3   S    
C84   C88   A    
H41   O10   S    
Br8   C92   S    
C93   O24   S    
C48   C52   A    
C26   C30   S    
C41   C76   S    
C19   C103  A    
C21   C105  A    
N22   Ni2   S    
N7    N16   A    
Br26  C73   S    
N19   Ni5   S    
C101  O5    S    
N6    N15   A    
C97   H18   S    
H44   O14   S    
H29   O22   S    
C105  O8    S    
C20   C104  A    
C100  N4    A    
Br14  C4    S    
C56   N31   A    
C16   C64   S    
N30   Ni7   S    
C44   C58   S    
C56   H17   S    
C29   C33   S    
C11   C16   A    
N24   Ni1   S    
H32   O2    S    
C61   H4    S    
N3    Ni4   S    
Br12  C37   S    
N12   N24   A    
Br27  C74   S    
C72   C78   S    
C22   C27   S    
C9    O15   S    
C18   C110  A    
C15   C65   S    
C112  O11   S    
C6    C80   A    
C22   C32   S    
Br21  C30   S    
N16   Ni3   S    
H24   O12   S    
C70   C74   S    
Br11  C108  S    
Br9   C106  S    
N11   Ni7   S    
N21   N31   A    
C81   C93   S    
N26   N27   A    
C43   C48   A    
C66   C71   S    
C56   C91   A    
C1    N1    A    
H28   O21   S    
C99   H20   S    
C1    C12   A    
C100  H21   S    
C51   O18   S    
Br15  C5    S    
H36   O5    S    
N23   Ni3   S    
C13   C108  A    
C59   H2    S    
C61   C65   A    
H48   O17   S    
C102  C106  A    
H26   O19   S    
C90   C92   A    
C24   C29   S    
C75   H9    S    
N25   Ni4   S    
C46   C80   S    
H47   O16   S    
C96   O4    S    
H33   O3    S    
N31   Ni8   S    
C10   C15   A    
N3    N11   A    
C63   C67   A    
C73   C75   S    
H35   O4    S    
C43   C78   S    
C19   C111  A    
C3    O13   S    
N13   Ni8   S    
C24   C34   S    
C17   C100  A    
C79   C94   S    
C82   C96   S    
Br20  C29   S    
C22   H45   S    
N12   Ni2   S    
C65   C70   A    
C7    N21   A    
C108  N11   A    
C101  N5    A    
C5    N19   A    
N15   Ni2   S    
C40   C68   A    
H37   O6    S    
H40   O9    S    
C36   H23   S    
