data_mof_unit_10497.cif
_audit_creation_date              2012-12-10T17:40:32-0500
_audit_creation_method            fapswitch 2.2
_symmetry_space_group_name_H-M    P1
_symmetry_Int_Tables_number       1
_space_group_crystal_system       triclinic
_cell_length_a                    13.81308
_cell_length_b                    15.083148
_cell_length_c                    15.879623
_cell_angle_alpha                 87.948879
_cell_angle_beta                  69.402249
_cell_angle_gamma                 90.887941
_cell_volume                      3093.55885516

loop_
_atom_site_label
_atom_site_type_symbol
_atom_type_description
_atom_site_fract_x
_atom_site_fract_y
_atom_site_fract_z
_atom_type_partial_charge
C1    C     C_R   0.500614 0.671372 0.499736 0.810939
C2    C     C_R   0.499392 0.328629 0.500249 0.811624
C3    C     C_R   0.373408 0.484793 0.097252 -0.221788
C4    C     C_R   0.623574 0.472909 0.905647 -0.220092
C5    C     C_R   0.302421 0.484984 0.053440 -0.230556
C6    C     C_R   0.694402 0.470651 0.949612 -0.229339
C7    C     C_R   0.409739 0.183795 0.503643 -0.248343
C8    C     C_R   0.590295 0.816212 0.496273 -0.248739
C9    C     C_R   0.498938 0.231697 0.500312 -0.073727
C10   C     C_R   0.501085 0.768309 0.499631 -0.074157
C11   C     C_R   0.588431 0.186769 0.496992 -0.242411
C12   C     C_R   0.411599 0.813239 0.502934 -0.242462
C13   C     C_R   0.589494 0.094485 0.496783 0.105356
C14   C     C_R   0.410546 0.905524 0.503118 0.105293
C15   C     C_R   0.499766 0.046482 0.500054 0.063832
C16   C     C_R   0.500276 0.953527 0.499840 0.063838
C17   C     C_R   0.409544 0.091329 0.503540 0.108979
C18   C     C_R   0.590497 0.908680 0.496357 0.109008
C19   C     C_R   0.678789 0.049476 0.493298 -0.211551
C20   C     C_R   0.321254 0.950535 0.506594 -0.211432
C21   C     C_R   0.679292 0.957048 0.493068 -0.210770
C22   C     C_R   0.320752 0.042963 0.506820 -0.210758
C23   C     C_R   0.436972 0.499455 0.672405 0.795822
C24   C     C_R   0.563023 0.499924 0.327631 0.794679
C25   C     C_R   0.232467 0.552146 0.438442 -0.040389
C26   C     C_R   0.767498 0.447925 0.561624 -0.040393
C27   C     C_R   0.179054 0.446279 0.562519 0.320747
C28   C     C_R   0.820992 0.553535 0.437317 0.319625
C29   C     C_R   0.074940 0.446853 0.564487 0.001005
C30   C     C_R   0.925094 0.552984 0.435377 0.000337
C31   C     C_R   0.051527 0.499875 0.500341 0.059655
C32   C     C_R   0.948474 0.500066 0.499615 0.059950
C33   C     C_R   0.130935 0.552487 0.436724 -0.004716
C34   C     C_R   0.869051 0.447501 0.563275 -0.003427
C35   C     C_R   0.993407 0.395131 0.628503 -0.199884
C36   C     C_R   0.006653 0.604605 0.371286 -0.200192
C37   C     C_R   0.892590 0.395512 0.627595 -0.211058
C38   C     C_R   0.107418 0.604384 0.372332 -0.210167
C39   C     C_R   0.399927 0.496306 0.771473 -0.052080
C40   C     C_R   0.599832 0.495931 0.228946 -0.052034
C41   C     C_R   0.262532 0.490160 0.916976 -0.196023
C42   C     C_R   0.735336 0.478045 0.085160 -0.196499
C43   C     C_R   0.294386 0.493942 0.823300 -0.196760
C44   C     C_R   0.704350 0.485670 0.178074 -0.195972
C45   C     C_R   0.472969 0.494304 0.814389 -0.249102
C46   C     C_R   0.527059 0.499098 0.185821 -0.245650
C47   C     C_R   0.443030 0.487576 0.908667 0.087183
C48   C     C_R   0.555469 0.487726 0.092864 0.087720
C49   C     C_R   0.335767 0.487520 0.959897 0.166784
C50   C     C_R   0.661980 0.478925 0.042322 0.166223
C51   C     C_R   0.516516 0.482697 0.953228 0.066942
C52   C     C_R   0.481403 0.485826 0.048828 0.066227
Cu1   Cu    Cu3+1 0.402580 0.500010 0.499990 0.935893
Cu2   Cu    Cu3+1 0.597420 0.499990 0.500010 0.935335
H1    H     H_    0.220515 0.483872 0.093322 0.143378
H2    H     H_    0.775518 0.462679 0.910445 0.142224
H3    H     H_    0.293007 0.593284 0.390055 0.133889
H4    H     H_    0.706930 0.406863 0.610078 0.134158
H5    H     H_    0.005606 0.353584 0.680491 0.150346
H6    H     H_    0.994508 0.645950 0.319139 0.151271
H7    H     H_    0.832834 0.354938 0.677601 0.134845
H8    H     H_    0.167171 0.644961 0.322331 0.136807
H9    H     H_    0.448402 0.511810 0.226377 0.148512
H10   H     H_    0.553298 0.500108 0.772536 0.153186
H11   H     H_    0.761879 0.483141 0.209992 0.155490
H12   H     H_    0.236655 0.495648 0.791611 0.154591
H13   H     H_    0.180438 0.489403 0.956016 0.130221
H14   H     H_    0.816734 0.470665 0.046752 0.130379
H15   H     H_    0.340312 0.481263 0.169653 0.145021
H16   H     H_    0.655559 0.464084 0.834232 0.139778
H17   H     H_    0.340477 0.218291 0.506371 0.159008
H18   H     H_    0.659558 0.781716 0.493543 0.159161
H19   H     H_    0.657613 0.223483 0.494396 0.158355
H20   H     H_    0.342412 0.776526 0.505541 0.158539
H21   H     H_    0.748169 0.085760 0.490742 0.143844
H22   H     H_    0.251873 0.914251 0.509152 0.143972
H23   H     H_    0.749019 0.923406 0.490346 0.143507
H24   H     H_    0.251026 0.076604 0.509542 0.143403
N1    N     N_R   0.256170 0.500070 0.500040 -0.179983
N2    N     N_R   0.743830 0.499930 0.499960 -0.180056
O1    O     O_R   0.417730 0.629750 0.499970 -0.583328
O2    O     O_R   0.582270 0.370250 0.500030 -0.583492
O3    O     O_R   0.582270 0.629730 0.499980 -0.590760
O4    O     O_R   0.417730 0.370270 0.500020 -0.590607
O5    O     O_R   0.371590 0.500020 0.629830 -0.587191
O6    O     O_R   0.628410 0.499980 0.370170 -0.587848
O7    O     O_R   0.536130 0.499990 0.629840 -0.586030
O8    O     O_R   0.463870 0.500010 0.370160 -0.585433
C53   C     C_3   0.200380 0.383377 0.630126 -0.812681
H25   H     H_    0.156325 0.403520 0.699448 0.190360
H26   H     H_    0.175976 0.314797 0.621537 0.188482
H27   H     H_    0.279949 0.377873 0.625868 0.276621
C54   C     C_3   0.799730 0.616071 0.369394 -0.811644
H28   H     H_    0.843082 0.595146 0.300194 0.192671
H29   H     H_    0.720046 0.622110 0.374179 0.276570
H30   H     H_    0.824843 0.684651 0.377182 0.187941

loop_
_geom_bond_atom_site_label_1
_geom_bond_atom_site_label_2
_ccdc_geom_bond_type
C54   H28   S    
C12   H20   S    
C27   C29   A    
C18   C21   A    
C2    O4    A    
C4    H16   S    
C19   H21   S    
C41   H13   S    
Cu1   Cu2   S    
C40   C46   A    
C25   H3    S    
Cu1   O4    S    
Cu1   O1    S    
C35   C37   A    
C27   N1    A    
C7    H17   S    
Cu2   O7    S    
C1    O1    A    
C15   C16   A    
C34   C37   A    
C20   H22   S    
C35   H5    S    
C26   C34   A    
C7    C17   A    
C31   C33   A    
C53   H26   S    
C39   C45   A    
C48   C50   A    
C54   H29   S    
C23   O7    A    
C42   H14   S    
C41   C43   A    
C5    C49   A    
C44   H11   S    
C42   C44   A    
C41   C49   A    
Cu2   O3    S    
Cu2   N2    S    
C45   C47   A    
C39   C43   A    
C46   C48   A    
C8    H18   S    
C13   C19   A    
C4    C51   A    
C51   C52   A    
C14   C20   A    
C22   H24   S    
C4    C6    A    
C11   H19   S    
C6    H2    S    
Cu2   O6    S    
C47   C51   A    
C36   H6    S    
C8    C18   A    
C28   C54   S    
C32   C34   A    
C9    C11   A    
C31   C32   A    
C40   C44   A    
C24   O8    A    
C6    C50   A    
C53   H27   S    
C26   H4    S    
C10   C12   A    
C42   C50   A    
C16   C18   A    
C20   C22   A    
C54   H30   S    
C13   C15   A    
C14   C16   A    
C2    O2    A    
Cu2   O2    S    
C15   C17   A    
C3    H15   S    
C25   N1    A    
C5    H1    S    
C1    C10   S    
C33   C38   A    
C12   C14   A    
C3    C5    A    
C37   H7    S    
C3    C52   A    
C1    O3    A    
C29   C35   A    
C45   H10   S    
C17   C22   A    
C30   C36   A    
C46   H9    S    
Cu1   N1    S    
C36   C38   A    
C29   C31   A    
C47   C49   A    
C30   C32   A    
C11   C13   A    
C43   H12   S    
C23   C39   S    
C28   C30   A    
C24   C40   S    
C27   C53   S    
Cu1   O8    S    
C28   N2    A    
C26   N2    A    
C7    C9    A    
C48   C52   A    
C8    C10   A    
C23   O5    A    
C21   H23   S    
Cu1   O5    S    
C38   H8    S    
C53   H25   S    
C2    C9    S    
C24   O6    A    
C25   C33   A    
C19   C21   A    
