data_mof_unit_8009.cif
_audit_creation_date              2012-12-10T20:02:19-0500
_audit_creation_method            fapswitch 2.2
_symmetry_space_group_name_H-M    P1
_symmetry_Int_Tables_number       1
_space_group_crystal_system       triclinic
_cell_length_a                    10.830894
_cell_length_b                    14.898177
_cell_length_c                    14.452983
_cell_angle_alpha                 85.149585
_cell_angle_beta                  93.449028
_cell_angle_gamma                 89.365923
_cell_volume                      2319.27491871

loop_
_atom_site_label
_atom_site_type_symbol
_atom_type_description
_atom_site_fract_x
_atom_site_fract_y
_atom_site_fract_z
_atom_type_partial_charge
C1    C     C_R   0.499090 0.328615 0.503472 0.867004
C2    C     C_R   0.501794 0.671927 0.497012 0.928940
C3    C     C_R   0.874000 0.482365 0.505746 -0.177716
C4    C     C_R   0.125566 0.510091 0.489430 -0.166614
C5    C     C_R   0.945048 0.521874 0.575370 -0.057234
C6    C     C_R   0.056579 0.469798 0.418493 -0.070663
C7    C     C_R   0.391426 0.095829 0.497503 -0.075851
C8    C     C_R   0.431667 0.914643 0.434896 -0.143565
C9    C     C_R   0.389180 0.188497 0.497597 -0.168064
C10   C     C_R   0.430440 0.822300 0.431546 -0.091554
C11   C     C_R   0.499996 0.233193 0.511611 0.005135
C12   C     C_R   0.509525 0.768132 0.492870 -0.024610
C13   C     C_R   0.612714 0.187035 0.527932 -0.042929
C14   C     C_R   0.588697 0.805839 0.558512 -0.156219
C15   C     C_R   0.615657 0.094663 0.525409 -0.128707
C16   C     C_R   0.587619 0.897803 0.563803 -0.110958
C17   C     C_R   0.505110 0.048890 0.509033 0.082739
C18   C     C_R   0.508648 0.952498 0.502199 0.084393
C19   C     C_R   0.478244 0.421017 0.112387 -0.201419
C20   C     C_R   0.472686 0.573647 0.888765 -0.116140
C21   C     C_R   0.481980 0.422116 0.210463 -0.041452
C22   C     C_R   0.477485 0.576254 0.790597 0.024199
C23   C     C_R   0.259843 0.503729 0.496604 0.953530
C24   C     C_R   0.739818 0.492293 0.502724 0.920659
C25   C     C_R   0.522771 0.577071 0.195275 0.444304
C26   C     C_R   0.511673 0.419792 0.803879 0.401647
C27   C     C_R   0.549177 0.572206 0.100824 0.203155
C28   C     C_R   0.541603 0.419576 0.901293 0.248151
C29   C     C_R   0.513798 0.496156 0.054389 0.016477
C30   C     C_R   0.511024 0.496058 0.947595 0.003167
C31   C     C_R   0.148157 0.531439 0.170654 0.349182
C32   C     C_R   0.952302 0.475665 0.834028 0.300709
C33   C     C_R   0.103116 0.541901 0.259796 0.303102
C34   C     C_R   0.947573 0.454368 0.740198 0.338333
C35   C     C_R   0.106788 0.465268 0.326000 -0.047158
C36   C     C_R   0.905379 0.522683 0.670473 -0.065625
C37   C     C_R   0.158163 0.383443 0.305203 -0.165568
C38   C     C_R   0.853048 0.602936 0.694525 -0.222360
C39   C     C_R   0.192704 0.372019 0.216113 0.368063
C40   C     C_R   0.864809 0.625202 0.785713 0.470263
C41   C     C_R   0.191738 0.446408 0.150630 -0.359359
C42   C     C_R   0.920279 0.563042 0.853730 -0.231150
C43   C     C_R   0.932071 0.448790 0.429898 0.458883
C44   C     C_R   0.065957 0.547279 0.560486 0.373235
H1    H     H_    0.447531 0.360966 0.082627 0.261889
H2    H     H_    0.440329 0.633078 0.918358 0.228166
H3    H     H_    0.302024 0.225358 0.485719 0.133737
H4    H     H_    0.364248 0.793746 0.384221 0.233325
N1    N     N_R   0.500000 0.499980 0.252470 -0.168148
N2    N     N_R   0.500000 0.500020 0.747530 -0.179974
O1    O     O_R   0.500010 0.369070 0.579480 -0.560014
O2    O     O_R   0.499990 0.630930 0.420520 -0.533530
O3    O     O_R   0.500010 0.369060 0.420520 -0.602040
O4    O     O_R   0.499990 0.630940 0.579480 -0.623894
O5    O     O_R   0.316760 0.500010 0.579480 -0.519339
O6    O     O_R   0.683240 0.499990 0.420520 -0.544421
O7    O     O_R   0.316760 0.500000 0.420520 -0.639617
O8    O     O_R   0.683240 0.500000 0.579480 -0.642027
Zn1   Zn    Zn3+2 0.500000 0.500010 0.606140 1.077658
Zn2   Zn    Zn3+2 0.500000 0.499990 0.393860 1.086199
H5    H     H_    0.222681 0.437271 0.082646 0.273085
H6    H     H_    0.939049 0.582501 0.922566 0.285449
H7    H     H_    0.704216 0.059525 0.533679 0.161315
H8    H     H_    0.646044 0.925737 0.617318 0.173236
H9    H     H_    0.462769 0.361088 0.252033 0.222251
H10   H     H_    0.455464 0.638796 0.749147 0.216975
S1    S     S_3+6 0.488141 0.685870 0.227240 0.102437
O9    O     O_2   0.466419 0.752013 0.143334 -0.216231
O10   O     O_2   0.370452 0.680962 0.276959 -0.267174
O11   O     O_3   0.607355 0.722569 0.293365 -0.521903
H11   H     H_    0.599592 0.789134 0.286577 0.390114
S2    S     S_3+6 0.441879 0.319779 0.768591 0.144140
O12   O     O_2   0.537653 0.260298 0.732353 -0.254924
O13   O     O_2   0.386650 0.269160 0.850044 -0.181587
O14   O     O_3   0.325527 0.344013 0.687907 -0.492192
H12   H     H_    0.300804 0.285122 0.666206 0.374496
S3    S     S_3+6 0.656206 0.648496 0.051244 0.141766
O15   O     O_2   0.591961 0.726687 0.995036 -0.181156
O16   O     O_2   0.741122 0.683686 0.125456 -0.184083
O17   O     O_3   0.739737 0.591775 0.981800 -0.528645
H13   H     H_    0.775543 0.540296 0.022801 0.401570
S4    S     S_3+6 0.631439 0.327807 0.958199 0.096959
O18   O     O_2   0.549905 0.254490 0.996554 -0.229303
O19   O     O_2   0.710863 0.289548 0.889024 -0.172544
O20   O     O_3   0.722651 0.363028 0.045698 -0.543134
H14   H     H_    0.757158 0.307218 0.080266 0.405443
S5    S     S_3+6 0.140575 0.618157 0.078501 0.104964
O21   O     O_2   0.188164 0.585159 0.991628 -0.299870
O22   O     O_2   0.008189 0.648378 0.059492 -0.195005
O23   O     O_3   0.224663 0.706448 0.107595 -0.437641
H15   H     H_    0.212545 0.751827 0.053535 0.411818
S6    S     S_3+6 0.009369 0.400252 0.928606 0.148627
O24   O     O_2   0.959728 0.307264 0.920996 -0.146750
O25   O     O_2   0.147942 0.396433 0.928122 -0.199481
O26   O     O_3   0.967826 0.436886 0.029177 -0.555991
H16   H     H_    0.971122 0.382732 0.074052 0.402597
S7    S     S_3+6 0.046316 0.647542 0.293772 0.120522
O27   O     O_2   0.134155 0.678330 0.368602 -0.262293
O28   O     O_2   0.033124 0.722029 0.217185 -0.123547
O29   O     O_3   0.907207 0.633355 0.338025 -0.547181
H17   H     H_    0.854325 0.609669 0.287670 0.398721
S8    S     S_3+6 0.989372 0.343851 0.710699 0.100376
O30   O     O_2   0.098655 0.306373 0.771059 -0.157761
O31   O     O_2   0.880721 0.283847 0.726670 -0.222306
O32   O     O_3   0.025932 0.340047 0.599943 -0.613120
H18   H     H_    0.038263 0.275265 0.591870 0.386480
H19   H     H_    0.164920 0.326820 0.357589 0.205235
H20   H     H_    0.817014 0.652704 0.640362 0.183001
S9    S     S_3+6 0.225218 0.262437 0.185342 0.044527
O33   O     O_2   0.331943 0.221757 0.246618 -0.317630
O34   O     O_2   0.113354 0.205455 0.200072 -0.230554
O35   O     O_3   0.258791 0.264178 0.073161 -0.487201
H21   H     H_    0.279895 0.200899 0.063649 0.427459
S10   S     S_3+6 0.819596 0.734023 0.811355 0.121051
O36   O     O_2   0.867127 0.752727 0.907521 -0.129142
O37   O     O_2   0.869273 0.802916 0.741725 -0.259640
O38   O     O_3   0.664355 0.741250 0.803294 -0.559582
H22   H     H_    0.644673 0.806074 0.805605 0.398850
S11   S     S_3+6 0.853980 0.375733 0.353295 0.025389
O39   O     O_2   0.741689 0.335576 0.395098 -0.315625
O40   O     O_2   0.816219 0.428886 0.262741 -0.309464
O41   O     O_3   0.944600 0.288621 0.332239 -0.543537
H23   H     H_    0.897912 0.258417 0.282965 0.410396
S12   S     S_3+6 0.135034 0.635393 0.622209 0.074527
O42   O     O_2   0.172356 0.599606 0.720350 -0.251289
O43   O     O_2   0.246418 0.672897 0.576509 -0.295841
O44   O     O_3   0.034079 0.721387 0.624274 -0.485657
H24   H     H_    0.007495 0.737825 0.558168 0.373171
H25   H     H_    0.304991 0.061102 0.487277 0.160438
H26   H     H_    0.370973 0.956195 0.386156 0.179378
H27   H     H_    0.698162 0.222648 0.539713 0.185752
H28   H     H_    0.648774 0.763824 0.607217 0.178143

loop_
_geom_bond_atom_site_label_1
_geom_bond_atom_site_label_2
_ccdc_geom_bond_type
C38   C40   A    
S5    O21   D    
O5    Zn1   S    
C27   C29   A    
C26   S2    S    
O26   H16   S    
C1    C11   S    
C41   H5    S    
C2    C12   S    
C21   N1    A    
S10   O36   D    
C39   C41   A    
C20   C30   A    
S3    O15   D    
C3    C43   A    
C34   S8    S    
N1    Zn2   S    
N2    Zn1   S    
C35   C37   A    
C37   H19   S    
C26   N2    A    
S3    O17   S    
C5    C36   S    
C6    C35   S    
S8    O32   S    
C23   O7    A    
C1    O3    A    
C22   H10   S    
O2    Zn2   S    
C40   S10   S    
C7    C17   A    
C25   S1    S    
C31   C33   A    
O11   H11   S    
C42   H6    S    
C33   S7    S    
C22   N2    A    
S3    O16   D    
C3    C24   S    
S2    O14   S    
C10   C12   A    
O35   H21   S    
S7    O28   D    
O3    Zn2   S    
S7    O27   D    
O4    Zn1   S    
S11   O40   D    
C31   S5    S    
C28   S4    S    
S1    O9    D    
S2    O13   D    
C2    O4    A    
S9    O35   S    
C4    C23   S    
S2    O12   D    
O7    Zn2   S    
C14   H28   S    
C4    C44   A    
C3    C5    A    
O8    Zn1   S    
O20   H14   S    
C44   S12   S    
S6    O26   S    
C8    C18   A    
O6    Zn2   S    
S1    O10   D    
C32   C34   A    
O14   H12   S    
C29   C30   S    
C1    O1    A    
S6    O25   D    
C17   C18   S    
C13   H27   S    
C16   C18   A    
S8    O31   D    
C9    C11   A    
C2    O2    A    
S12   O44   S    
C4    C6    A    
C5    C44   A    
C12   C14   A    
C9    H3    S    
S4    O19   D    
C6    C43   A    
C13   C15   A    
C10   H4    S    
C14   C16   A    
C24   O6    A    
O44   H24   S    
C19   C29   A    
S7    O29   S    
S12   O43   D    
S11   O41   S    
C15   C17   A    
C15   H7    S    
C31   C41   A    
C21   H9    S    
C8    C10   A    
C20   C22   A    
O17   H13   S    
C27   S3    S    
S10   O37   D    
S11   O39   D    
C19   H1    S    
C23   O5    A    
C25   C27   A    
S4    O20   S    
O32   H18   S    
C26   C28   A    
S1    O11   S    
S9    O34   D    
C28   C30   A    
C37   C39   A    
O38   H22   S    
C36   C38   A    
C8    H26   S    
C11   C13   A    
O23   H15   S    
C32   S6    S    
C40   C42   A    
S6    O24   D    
C33   C35   A    
C34   C36   A    
C38   H20   S    
S8    O30   D    
C25   N1    A    
C7    H25   S    
S10   O38   S    
C7    C9    A    
C39   S9    S    
O1    Zn1   S    
C24   O8    A    
S4    O18   D    
S5    O23   S    
S5    O22   D    
C32   C42   A    
O29   H17   S    
C16   H8    S    
O41   H23   S    
S9    O33   D    
C20   H2    S    
C43   S11   S    
S12   O42   D    
C19   C21   A    
