data_mof_unit_63691.cif
_audit_creation_date              2013-03-05T16:23:48-0500
_audit_creation_method            fapswitch 2.2
_symmetry_space_group_name_H-M    P1
_symmetry_Int_Tables_number       1
_space_group_crystal_system       triclinic
_cell_length_a                    18.821629
_cell_length_b                    18.84511
_cell_length_c                    18.792504
_cell_angle_alpha                 109.387304
_cell_angle_beta                  109.340474
_cell_angle_gamma                 109.492898
_cell_volume                      5143.37402255

loop_
_atom_site_label
_atom_site_type_symbol
_atom_site_description
_atom_site_fract_x
_atom_site_fract_y
_atom_site_fract_z
_atom_type_partial_charge
O1    O     O_R   0.090190 0.947810 0.538000 -0.534511
O2    O     O_R   0.090150 0.052180 0.642350 -0.586963
C1    C     C_R   0.118764 0.000173 0.618718 0.812245
O3    O     O_R   0.090200 0.037990 0.447830 -0.545442
O4    O     O_R   0.090160 0.142360 0.552180 -0.603134
C2    C     C_R   0.116726 0.118662 0.497885 0.817230
Cu1   Cu    Cu3+1 0.000020 0.938200 0.438220 1.041049
Cu2   Cu    Cu3+1 0.999980 0.061800 0.561780 0.966192
O5    O     O_R   0.909850 0.947820 0.357650 -0.582052
O6    O     O_R   0.909810 0.052190 0.462000 -0.597808
O7    O     O_R   0.909840 0.857640 0.447820 -0.586149
O8    O     O_R   0.909800 0.962010 0.552170 -0.587786
C3    C     C_R   0.881320 0.000212 0.381422 0.788938
C4    C     C_R   0.881178 0.881492 0.499985 0.784188
H1    H     H_    0.907229 0.934822 0.101243 0.181292
C5    C     C_R   0.042531 0.988615 0.190221 -0.148058
H2    H     H_    0.050829 0.943574 0.144711 0.146705
C6    C     C_R   0.113056 0.052352 0.273138 -0.091266
H3    H     H_    0.175802 0.056387 0.291104 0.167111
C7    C     C_R   0.102444 0.110586 0.332535 0.103016
C8    C     C_R   0.020828 0.104940 0.307709 -0.164952
H4    H     H_    0.011843 0.150119 0.352364 0.116397
C9    C     C_R   0.950922 0.042116 0.224213 -0.105370
H5    H     H_    0.888666 0.039194 0.204599 0.171044
C10   C     C_R   0.961568 0.983634 0.165709 -0.095272
C11   C     C_R   0.244083 0.246186 0.422624 -0.154163
H6    H     H_    0.240424 0.242890 0.362673 0.162466
C12   C     C_R   0.314854 0.316108 0.502808 -0.058623
C13   C     C_R   0.319209 0.321116 0.581013 -0.010458
C14   C     C_R   0.251596 0.256739 0.576779 -0.125700
H7    H     H_    0.254273 0.260756 0.636655 0.178076
C15   C     C_R   0.182283 0.185874 0.496874 -0.065470
C16   C     C_R   0.177752 0.180462 0.418733 -0.010715
C17   C     C_R   0.471296 0.394954 0.702790 -0.023915
H8    H     H_    0.482789 0.348095 0.663438 0.175325
C18   C     C_R   0.536294 0.457152 0.788712 -0.153789
H9    H     H_    0.598087 0.459337 0.814684 0.141682
C19   C     C_R   0.520933 0.515367 0.841623 -0.089848
H10   H     H_    0.571024 0.563030 0.908329 0.159297
C20   C     C_R   0.440615 0.511608 0.808578 -0.119570
H11   H     H_    0.428430 0.556108 0.849810 0.178428
C21   C     C_R   0.376164 0.450758 0.722152 -0.205579
H12   H     H_    0.313933 0.447998 0.697489 0.141421
C22   C     C_R   0.391287 0.392348 0.668464 0.082279
C23   C     C_R   0.270931 0.039886 0.704308 0.003857
C24   C     C_R   0.185063 0.001192 0.686186 -0.048906
C25   C     C_R   0.166231 0.974059 0.742048 -0.186020
H13   H     H_    0.101136 0.949044 0.732891 0.138167
C26   C     C_R   0.230624 0.974697 0.807193 -0.180800
H14   H     H_    0.213933 0.949772 0.847089 0.159478
C27   C     C_R   0.314904 0.004722 0.818271 -0.035519
C28   C     C_R   0.334866 0.042109 0.769640 0.018153
C29   C     C_3   0.381945 0.028794 0.720565 -0.520338
C30   C     C_3   0.311110 0.025340 0.647619 0.549667
H15   H     H_    0.447069 0.086748 0.753036 0.204048
H16   H     H_    0.382319 0.966741 0.704392 0.240930
C31   C     C_R   0.814913 0.740993 0.493943 0.115450
C32   C     C_R   0.813758 0.815781 0.499546 -0.088343
C33   C     C_R   0.744441 0.825575 0.505630 -0.199343
H17   H     H_    0.740163 0.882585 0.509769 0.163194
C34   C     C_R   0.679042 0.760202 0.504662 -0.199657
H18   H     H_    0.625715 0.768109 0.508354 0.156228
C35   C     C_R   0.684161 0.686059 0.500625 -0.078777
C36   C     C_R   0.754144 0.680058 0.496311 0.114762
C37   C     C_3   0.794591 0.624168 0.489630 -0.475681
C38   C     C_3   0.864574 0.694239 0.487842 -0.444378
H19   H     H_    0.819424 0.619220 0.549283 0.213811
H20   H     H_    0.753048 0.561468 0.427389 0.190547
H21   H     H_    0.929688 0.730131 0.546741 0.202781
H22   H     H_    0.863792 0.671774 0.424772 0.212299
C39   C     C_R   0.764016 0.932713 0.231082 0.037370
C40   C     C_R   0.814644 0.000966 0.315859 -0.076782
C41   C     C_R   0.798587 0.071316 0.335421 -0.201283
H23   H     H_    0.836173 0.126735 0.400488 0.168331
C42   C     C_R   0.734115 0.070923 0.269867 -0.199762
H24   H     H_    0.722868 0.125464 0.285735 0.146246
C43   C     C_R   0.684540 0.999905 0.184548 -0.051148
C44   C     C_R   0.702147 0.932126 0.168209 0.026963
C45   C     C_3   0.681231 0.847433 0.099687 0.145224
C46   C     C_3   0.751542 0.848557 0.172197 -0.481060
H25   H     H_    0.614578 0.793678 0.071172 0.115800
H26   H     H_    0.725080 0.797426 0.188091 0.177582
H27   H     H_    0.809915 0.856207 0.165787 0.223748
O9    O     O_R   0.447790 0.590200 0.538040 -0.589939
O10   O     O_R   0.552160 0.590170 0.642390 -0.583991
C47   C     C_R   0.500355 0.619036 0.618864 0.815469
O11   O     O_R   0.357620 0.409850 0.447860 -0.595702
O12   O     O_R   0.461990 0.409820 0.552210 -0.568084
C48   C     C_R   0.381359 0.383044 0.502178 0.841332
Cu3   Cu    Cu3+1 0.438190 0.500040 0.438260 0.969021
Cu4   Cu    Cu3+1 0.561780 0.500000 0.561820 1.002993
O13   O     O_R   0.447810 0.409860 0.357690 -0.586176
O14   O     O_R   0.552180 0.409830 0.462050 -0.561967
O15   O     O_R   0.537970 0.590210 0.447870 -0.590178
O16   O     O_R   0.642350 0.590180 0.552220 -0.584976
C49   C     C_R   0.499015 0.380490 0.381569 0.877638
C50   C     C_R   0.618473 0.618674 0.499993 0.787950
O17   O     O_R   0.552210 0.142430 0.090170 -0.590867
O18   O     O_R   0.447820 0.038100 0.090220 -0.586888
C51   C     C_R   0.500301 0.118622 0.119154 0.813148
O19   O     O_R   0.462030 0.052220 0.909860 -0.586853
O20   O     O_R   0.357640 0.947890 0.909900 -0.585662
C52   C     C_R   0.381161 0.000551 0.881518 0.818480
Cu5   Cu    Cu3+1 0.561810 0.061820 0.000020 0.992543
Cu6   Cu    Cu3+1 0.438190 0.938280 0.000080 0.977244
O21   O     O_R   0.552180 0.962000 0.909880 -0.562163
O22   O     O_R   0.447790 0.857670 0.909930 -0.594532
O23   O     O_R   0.642360 0.052210 0.090200 -0.561975
O24   O     O_R   0.537970 0.947880 0.090240 -0.600886
C53   C     C_R   0.500876 0.881322 0.882095 0.844016
C54   C     C_R   0.618465 0.998711 0.117279 0.814188
C55   C     C_R   0.504535 0.759332 0.682489 0.017422
C56   C     C_R   0.502871 0.686577 0.686887 -0.154739
C57   C     C_R   0.512655 0.683346 0.762790 -0.165014
H28   H     H_    0.517561 0.630226 0.769665 0.187359
C58   C     C_R   0.511789 0.745606 0.828260 0.445599
C59   C     C_R   0.505273 0.815480 0.818966 -0.172703
C60   C     C_R   0.506706 0.823100 0.747898 -0.003495
C61   C     C_3   0.447564 0.836363 0.683701 0.227677
C62   C     C_3   0.445871 0.766163 0.612030 -0.449580
H29   H     H_    0.479427 0.901907 0.691448 0.147575
H30   H     H_    0.381480 0.705995 0.566979 0.218394
H31   H     H_    0.479026 0.791733 0.579709 0.177354
C63   C     C_R   0.514695 0.323881 0.253971 0.059034
C64   C     C_R   0.496174 0.311262 0.315657 -0.200828
C65   C     C_R   0.478798 0.230564 0.313000 0.309549
C66   C     C_R   0.480905 0.167427 0.248010 -0.268785
H32   H     H_    0.466504 0.105407 0.244776 0.202390
C67   C     C_R   0.500829 0.183993 0.187097 -0.153681
C68   C     C_R   0.518451 0.264055 0.193791 0.130912
C69   C     C_3   0.541557 0.318952 0.154648 -0.431266
C70   C     C_3   0.538327 0.387809 0.224226 -0.463344
H33   H     H_    0.607825 0.338328 0.163468 0.204257
H34   H     H_    0.489255 0.291151 0.087298 0.197362
H35   H     H_    0.602822 0.446595 0.273604 0.188476
H36   H     H_    0.484572 0.400251 0.197019 0.211580
N1    N     N_R   0.344666 0.097467 0.631901 0.125361
O25   O     O_R   0.397152 0.102341 0.600537 -0.295789
O26   O     O_R   0.324189 0.158029 0.650710 -0.407754
N2    N     N_R   0.256569 0.940380 0.567618 0.125133
O27   O     O_R   0.224539 0.869480 0.570961 -0.337568
O28   O     O_R   0.236687 0.935143 0.492116 -0.287963
N3    N     N_R   0.705566 0.855065 0.035100 0.136891
O29   O     O_R   0.716931 0.921254 0.023047 -0.382525
O30   O     O_R   0.709764 0.791760 0.984564 -0.348973
O31   O     O_3   0.515100 0.733608 0.897577 -0.733370
H37   H     H_    0.524976 0.786061 0.944102 0.328636
O32   O     O_3   0.366310 0.813177 0.679478 -0.695783
H38   H     H_    0.342370 0.755090 0.674641 0.340267
N4    N     N_R   0.456818 0.210506 0.372942 0.133518
O33   O     O_R   0.410309 0.237673 0.399240 -0.382088
O34   O     O_R   0.473768 0.155958 0.392856 -0.327309

loop_
_geom_bond_atom_site_label_1
_geom_bond_atom_site_label_2
_geom_bond_distance
_ccdc_geom_bond_type
C2    C15   1.454517 S    
C65   C66   1.416931 A    
C41   H23   1.082818 S    
C29   H15   1.111879 S    
C31   C38   1.488852 S    
C69   H34   1.111645 S    
Cu5   O21   1.973445 S    
C57   H28   1.080270 S    
O10   Cu4   1.972712 S    
Cu1   Cu2   2.688623 S    
C25   C26   1.401969 A    
C43   C44   1.387479 A    
Cu1   O7    1.970596 S    
Cu6   O22   1.971745 S    
C11   H6    1.084982 S    
C21   C22   1.404498 A    
C47   C56   1.447721 S    
C12   C13   1.413689 A    
C19   C20   1.397650 A    
O9    C47   1.295764 A    
C6    H3    1.083252 S    
O24   C54   1.292108 A    
O10   C47   1.292378 A    
O4    C2    1.294209 A    
O7    C4    1.293701 A    
H1    C10   1.082324 S    
C30   N1    1.466573 S    
Cu4   O14   1.972563 S    
C27   C52   1.455929 S    
N3    O29   1.301730 A    
O13   C49   1.292653 A    
C58   C59   1.423288 A    
C63   C70   1.488559 S    
O20   Cu6   1.971933 S    
C34   C35   1.411230 A    
C17   H8    1.083213 S    
C43   C54   1.437488 S    
O5    C3    1.297163 A    
C60   C61   1.501133 S    
C39   C46   1.486311 S    
C56   C57   1.401216 A    
C45   N3    1.464178 S    
C25   H13   1.083502 S    
C5    H2    1.082271 S    
C37   H19   1.111431 S    
C9    H5    1.081346 S    
C12   C48   1.457437 S    
C14   C15   1.395923 A    
C17   C18   1.398507 A    
C62   H31   1.111399 S    
Cu2   O8    1.972638 S    
C20   C21   1.398048 A    
N1    O25   1.301088 A    
C33   H17   1.083135 S    
O19   C52   1.295428 A    
O1    Cu1   1.972492 S    
C8    H4    1.083257 S    
C41   C42   1.409951 A    
O20   C52   1.296129 A    
O9    Cu3   1.972584 S    
C46   H27   1.111692 S    
C4    C32   1.442698 S    
C53   C59   1.452635 S    
Cu5   Cu6   2.687410 S    
C62   H30   1.112288 S    
Cu3   O15   1.972031 S    
C31   C32   1.386126 A    
C61   H29   1.111276 S    
C19   H10   1.082395 S    
O18   Cu6   1.973443 S    
C30   N2    1.469794 S    
C33   C34   1.411190 A    
O31   H37   0.985914 S    
C27   C28   1.396790 A    
C17   C22   1.404438 A    
O32   H38   0.993577 S    
C46   H26   1.111334 S    
C45   H25   1.110574 S    
C44   C45   1.496977 S    
O15   C50   1.291796 A    
C26   C27   1.408499 A    
C61   O32   1.409491 S    
C23   C24   1.394182 A    
C45   C46   1.541510 S    
O1    C1    1.294473 A    
C42   H24   1.083372 S    
C66   C67   1.411351 A    
C13   C14   1.391457 A    
C55   C60   1.382035 A    
N1    O26   1.300758 A    
C11   C16   1.394808 A    
Cu3   O13   1.972834 S    
O18   C51   1.292326 A    
O12   Cu4   1.972249 S    
C14   H7    1.085237 S    
C70   H36   1.111444 S    
C37   H20   1.111634 S    
C7    C8    1.404280 A    
C63   C68   1.347127 A    
N2    O27   1.302245 A    
C42   C43   1.408393 A    
C7    C16   1.477986 S    
O3    C2    1.295489 A    
C20   H11   1.082107 S    
O8    C4    1.292652 A    
C23   C30   1.503361 S    
C26   H14   1.082937 S    
O19   Cu5   1.972962 S    
O17   C51   1.294116 A    
C8    C9    1.398040 A    
C13   C22   1.478681 S    
C64   C65   1.424429 A    
O22   C53   1.293979 A    
N4    O34   1.301426 A    
C21   H12   1.083152 S    
C69   C70   1.541441 S    
Cu5   O23   1.971933 S    
C28   C29   1.494902 S    
C31   C36   1.349047 A    
C55   C62   1.492851 S    
C67   C68   1.383701 A    
O21   C53   1.294540 A    
C29   H16   1.109452 S    
C5    C10   1.397856 A    
N3    O30   1.300693 A    
Cu6   O24   1.972961 S    
C24   C25   1.403937 A    
C18   H9    1.082261 S    
C51   C67   1.444687 S    
Cu2   O6    1.972492 S    
O2    Cu2   1.972618 S    
N2    O28   1.301396 A    
C40   C41   1.414756 A    
C69   H33   1.111494 S    
O6    C3    1.291076 A    
O4    Cu2   1.970596 S    
C57   C58   1.399385 A    
C61   C62   1.525038 S    
O16   C50   1.293200 A    
C29   C30   1.527488 S    
C3    C40   1.446564 S    
O14   C49   1.291365 A    
C55   C56   1.391384 A    
C1    C24   1.443935 S    
C11   C12   1.400755 A    
C23   C28   1.382334 A    
O23   C54   1.291230 A    
C15   C16   1.409227 A    
C18   C19   1.397759 A    
O2    C1    1.292110 A    
C32   C33   1.412357 A    
C39   C40   1.384411 A    
C35   C50   1.440061 S    
C59   C60   1.397719 A    
C36   C37   1.488373 S    
C58   O31   1.379525 S    
C65   N4    1.438740 S    
Cu3   Cu4   2.688383 S    
C38   H22   1.111478 S    
C70   H35   1.111685 S    
O17   Cu5   1.971745 S    
C49   C64   1.440796 S    
C68   C69   1.489094 S    
C6    C7    1.403882 A    
C9    C10   1.397281 A    
C34   H18   1.083302 S    
Cu4   O16   1.971077 S    
C35   C36   1.385076 A    
C38   H21   1.111693 S    
Cu1   O5    1.972620 S    
O12   C48   1.292521 A    
O3    Cu1   1.972638 S    
C5    C6    1.398603 A    
C37   C38   1.542020 S    
O11   Cu3   1.971199 S    
O11   C48   1.299107 A    
N4    O33   1.300105 A    
C39   C44   1.350395 A    
C66   H32   1.083382 S    
C63   C64   1.384644 A    
