data_mof_unit_19529.cif
_audit_creation_date              2012-10-26T20:31:42-0400
_audit_creation_method            fapswitch 2.2
_symmetry_space_group_name_H-M    P1
_symmetry_Int_Tables_number       1
_space_group_crystal_system       triclinic
_cell_length_a                    15.883236
_cell_length_b                    10.830094
_cell_length_c                    9.53549
_cell_angle_alpha                 90.285065
_cell_angle_beta                  89.943755
_cell_angle_gamma                 90.012008
_cell_volume                      1640.24467468

loop_
_atom_site_label
_atom_site_type_symbol
_atom_type_description
_atom_site_fract_x
_atom_site_fract_y
_atom_site_fract_z
_atom_type_partial_charge
C1    C     C_R   0.503216 0.262281 0.499345 0.556829
C2    C     C_R   0.513216 0.128849 0.498351 -0.003803
C3    C     C_R   0.538690 0.061455 0.377173 -0.044076
C4    C     C_R   0.340193 0.499826 0.500142 0.561211
C5    C     C_R   0.536904 0.932346 0.379599 -0.160999
C6    C     C_R   0.511722 0.870006 0.501370 -0.003490
C7    C     C_R   0.501076 0.937139 0.624907 -0.000659
C8    C     C_3   0.434195 0.930621 0.734973 -0.255112
C9    C     C_3   0.433627 0.071450 0.733825 -0.126455
C10   C     C_R   0.538864 0.592762 0.074089 0.155506
C11   C     C_R   0.454585 0.415732 0.074066 0.013385
C12   C     C_3   0.951609 0.373088 0.549214 -0.223710
C13   C     C_R   0.454554 0.415756 0.925108 0.000991
C14   C     C_R   0.538845 0.592756 0.926702 0.152427
C15   C     C_3   0.629712 0.627024 0.920733 -0.268084
C16   C     C_R   0.501937 0.737504 0.500346 0.548062
C17   C     C_3   0.629764 0.626926 0.079957 -0.276984
C18   C     C_R   0.659780 0.500053 0.499890 0.546279
C19   C     C_3   0.049039 0.375015 0.554101 -0.219156
C20   C     C_3   0.048758 0.523874 0.351593 -0.236679
C21   C     C_3   0.950972 0.519685 0.349879 -0.266762
C22   C     C_1   0.749354 0.500146 0.499802 -0.029471
C23   C     C_3   0.916912 0.500459 0.501096 0.068159
C24   C     C_3   0.082902 0.500834 0.502028 0.027335
C25   C     C_1   0.564434 0.119972 0.248130 0.210118
C26   C     C_1   0.353671 0.123669 0.682977 0.193800
C27   C     C_3   0.910396 0.536292 0.816988 -0.110564
C28   C     C_3   0.952239 0.610212 0.592186 0.196855
C29   C     C_3   0.049830 0.603494 0.601906 -0.183464
C30   C     C_1   0.824845 0.500248 0.500091 -0.042931
C31   C     C_1   0.175023 0.500248 0.501193 -0.063563
C32   C     C_1   0.250553 0.499950 0.500525 -0.014559
C33   C     C_R   0.500501 0.063859 0.622947 0.007426
Cu1   Cu    Cu3+1 0.500000 0.499980 0.640670 0.954690
Cu2   Cu    Cu3+1 0.500000 0.500020 0.359330 0.960418
H1    H     H_    0.931122 0.300393 0.473622 0.118528
H2    H     H_    0.074299 0.298899 0.487402 0.134787
H3    H     H_    0.418943 0.346327 0.868920 0.121688
H4    H     H_    0.669833 0.553054 0.874830 0.161242
H5    H     H_    0.639375 0.720314 0.875347 0.137376
H6    H     H_    0.669824 0.552811 0.124725 0.159235
H7    H     H_    0.639604 0.720133 0.126424 0.121913
H8    H     H_    0.070569 0.615482 0.313604 0.120383
H9    H     H_    0.073878 0.452717 0.278057 0.128392
H10   H     H_    0.929444 0.443496 0.279748 0.122455
H11   H     H_    0.926055 0.606979 0.304835 0.105425
H12   H     H_    0.070680 0.357889 0.663259 0.121929
H13   H     H_    0.071293 0.586072 0.710812 0.131607
H14   H     H_    0.077220 0.694169 0.571411 0.094644
H15   H     H_    0.970044 0.483229 0.819450 0.099200
H16   H     H_    0.855755 0.475453 0.794784 0.127350
H17   H     H_    0.900864 0.574063 0.924171 0.133390
H18   H     H_    0.925748 0.343561 0.651455 0.106487
H19   H     H_    0.939348 0.694766 0.529675 0.135668
H20   H     H_    0.552342 0.880989 0.285069 0.130565
H21   H     H_    0.375545 0.885957 0.695823 0.142126
H22   H     H_    0.458739 0.891908 0.834663 0.132422
H23   H     H_    0.456500 0.114004 0.833028 0.123404
H24   H     H_    0.419200 0.346017 0.129623 0.125108
N1    N     N_R   0.500530 0.500930 0.147930 -0.227018
N2    N     N_R   0.500530 0.500890 0.852020 -0.232974
N3    N     N_1   0.585143 0.166448 0.144628 -0.313888
N4    N     N_1   0.290965 0.164926 0.643023 -0.319103
O1    O     O_R   0.500000 0.319640 0.618810 -0.501689
O2    O     O_R   0.500010 0.319680 0.381230 -0.493109
O3    O     O_R   0.379430 0.499990 0.618840 -0.493476
O4    O     O_R   0.379440 0.500030 0.381260 -0.500227
O5    O     O_R   0.499990 0.680320 0.618770 -0.499341
O6    O     O_R   0.500000 0.680360 0.381190 -0.507745
O7    O     O_R   0.620560 0.499970 0.618740 -0.499684
O8    O     O_R   0.620570 0.500010 0.381160 -0.500119
O9    O     O_3   0.911510 0.635907 0.722390 -0.569924

loop_
_geom_bond_atom_site_label_1
_geom_bond_atom_site_label_2
_ccdc_geom_bond_type
C18   O7    A    
C4    O4    A    
C1    O2    A    
C26   N4    T    
C23   C30   S    
C6    C7    A    
C16   O5    A    
C8    H22   S    
C12   H1    S    
C18   C22   S    
C11   C13   A    
Cu1   O7    S    
C10   C17   S    
C10   N1    A    
C31   C32   T    
C14   C15   S    
C27   H15   S    
Cu2   O4    S    
C15   H4    S    
Cu1   O3    S    
Cu1   O1    S    
C2    C3    A    
C8    C9    S    
C24   C31   S    
Cu2   O8    S    
C7    C8    S    
C29   H14   S    
C23   C28   S    
C27   H17   S    
C4    O3    A    
C7    C33   A    
C12   C23   S    
C8    H21   S    
C13   H3    S    
C4    C32   S    
C9    C33   S    
C11   H24   S    
C12   C19   S    
C28   C29   S    
C20   H9    S    
C27   H16   S    
C9    C26   S    
C19   C24   S    
C21   H10   S    
C25   N3    T    
C21   C23   S    
C5    C6    A    
Cu1   Cu2   S    
C17   H6    S    
C15   H5    S    
C19   H2    S    
Cu2   O2    S    
C29   H13   S    
C6    C16   S    
C11   N1    A    
C21   H11   S    
C1    O1    A    
C20   C24   S    
C3    C25   S    
C20   H8    S    
C13   N2    A    
C20   C21   S    
Cu2   O6    S    
C1    C2    S    
C10   C14   A    
C19   H12   S    
C28   O9    S    
C18   O8    A    
C15   C17   S    
Cu2   N1    S    
C28   H19   S    
C24   C29   S    
C9    H23   S    
C22   C30   T    
C17   H7    S    
C14   N2    A    
C5    H20   S    
Cu1   N2    S    
C16   O6    A    
C12   H18   S    
C2    C33   A    
Cu1   O5    S    
C3    C5    A    
C27   O9    S    
