data_mof_unit_16064.cif
_audit_creation_date              2012-10-26T19:00:41-0400
_audit_creation_method            fapswitch 2.2
_symmetry_space_group_name_H-M    P1
_symmetry_Int_Tables_number       1
_space_group_crystal_system       triclinic
_cell_length_a                    17.78244
_cell_length_b                    16.570503
_cell_length_c                    10.925145
_cell_angle_alpha                 90.000141
_cell_angle_beta                  92.874991
_cell_angle_gamma                 90.002384
_cell_volume                      3215.1947345

loop_
_atom_site_label
_atom_site_type_symbol
_atom_type_description
_atom_site_fract_x
_atom_site_fract_y
_atom_site_fract_z
_atom_type_partial_charge
C1    C     C_R   0.355444 0.500146 0.504120 0.564261
C2    C     C_R   0.444740 0.743485 0.433705 0.379953
C3    C     C_R   0.500012 0.873073 0.499987 -0.060204
C4    C     C_1   0.500015 0.962462 0.499979 0.042817
C5    C     C_1   0.500014 0.036489 0.499977 0.038444
C6    C     C_R   0.561264 0.169299 0.550947 0.216700
C7    C     C_R   0.438750 0.169290 0.449023 0.216707
C8    C     C_R   0.557345 0.255309 0.561583 0.123199
C9    C     C_R   0.442659 0.255303 0.438409 0.123223
C10   C     C_R   0.500009 0.125813 0.499982 -0.027902
C11   C     C_R   0.499003 0.500019 0.265017 0.548288
C12   C     C_R   0.644558 0.500149 0.495896 0.564278
C13   C     C_R   0.500996 0.500019 0.734983 0.548317
C14   C     C_2   0.498399 0.433656 0.932888 -0.147911
C15   C     C_2   0.501600 0.433656 0.067111 -0.147912
C16   C     C_2   0.504950 0.501317 0.867190 -0.108851
C17   C     C_2   0.495049 0.501316 0.132810 -0.108873
C18   C     C_R   0.849422 0.565357 0.462425 -0.053599
C19   C     C_R   0.150607 0.565326 0.537897 -0.053591
C20   C     C_R   0.769577 0.569020 0.457104 0.007787
C21   C     C_R   0.230450 0.568996 0.543097 0.007809
C22   C     C_R   0.727647 0.499585 0.488259 -0.047720
C23   C     C_R   0.885460 0.490676 0.488068 0.005745
C24   C     C_R   0.272359 0.499573 0.511840 -0.047683
C25   C     C_R   0.765475 0.426741 0.512677 -0.155093
C26   C     C_R   0.234519 0.426730 0.487440 -0.155176
C27   C     C_R   0.843781 0.420533 0.507239 0.280803
C28   C     C_R   0.156214 0.420504 0.493014 0.280875
C29   C     C_2   0.614597 0.295907 0.644858 0.265584
C30   C     C_2   0.385403 0.295898 0.355143 0.265560
C31   C     C_2   0.896481 0.637382 0.436097 0.213543
C32   C     C_2   0.103567 0.637344 0.564326 0.213531
C33   C     C_2   0.730801 0.642555 0.408970 0.324794
C34   C     C_R   0.114554 0.490647 0.512275 0.005823
C35   C     C_2   0.269252 0.642526 0.591205 0.324798
C36   C     C_3   0.845781 0.283228 0.465266 -0.009241
C37   C     C_3   0.902564 0.216606 0.445670 -0.367683
C38   C     C_3   0.154393 0.283079 0.534381 -0.009368
C39   C     C_3   0.097701 0.216399 0.554239 -0.367775
C40   C     C_3   0.577371 0.899095 0.751822 -0.017958
C41   C     C_3   0.633223 0.955564 0.818103 -0.360945
C42   C     C_3   0.422690 0.899053 0.248117 -0.017979
C43   C     C_3   0.366871 0.955532 0.181793 -0.361029
C44   C     C_3   0.619739 0.689742 0.737375 0.029377
C45   C     C_1   0.966244 0.485838 0.496497 0.028526
C46   C     C_3   0.693171 0.720149 0.798586 -0.373275
C47   C     C_3   0.380261 0.689711 0.262645 0.029405
C48   C     C_3   0.306846 0.720129 0.201397 -0.373298
C49   C     C_3   0.672791 0.113971 0.503989 0.017874
C50   C     C_3   0.743560 0.072287 0.556061 -0.352831
C51   C     C_3   0.327232 0.113896 0.495906 0.017816
C52   C     C_3   0.256551 0.072044 0.443825 -0.352892
C53   C     C_1   0.033769 0.485826 0.503888 0.028572
C54   C     C_R   0.553067 0.829379 0.573667 0.205771
C55   C     C_R   0.446953 0.829378 0.426314 0.205790
C56   C     C_R   0.555265 0.743485 0.566291 0.379980
Cu1   Cu    Cu3+1 0.500000 0.580420 0.500000 1.065406
Cu2   Cu    Cu3+1 0.500000 0.419580 0.500000 0.904874
H1    H     H_    0.491542 0.375590 0.887489 0.149843
H2    H     H_    0.049714 0.629675 0.605366 0.126368
H3    H     H_    0.740708 0.700576 0.452583 0.185412
H4    H     H_    0.259339 0.700549 0.547602 0.185376
H5    H     H_    0.821588 0.301717 0.373254 0.124708
H6    H     H_    0.800655 0.257997 0.520646 0.163842
H7    H     H_    0.924721 0.192904 0.535419 0.155827
H8    H     H_    0.875058 0.166494 0.392912 0.094752
H9    H     H_    0.949648 0.240429 0.393277 0.184070
H10   H     H_    0.178925 0.301385 0.626264 0.124671
H11   H     H_    0.199291 0.257971 0.478403 0.164305
H12   H     H_    0.508459 0.375591 0.112510 0.149847
H13   H     H_    0.075314 0.192779 0.464575 0.155613
H14   H     H_    0.125374 0.166245 0.606664 0.094780
H15   H     H_    0.050762 0.240123 0.607058 0.183993
H16   H     H_    0.565772 0.848409 0.814394 0.115051
H17   H     H_    0.524012 0.933123 0.734038 0.132433
H18   H     H_    0.642100 0.009880 0.761478 0.211689
H19   H     H_    0.610815 0.974889 0.906529 0.100790
H20   H     H_    0.688005 0.924750 0.836762 0.149566
H21   H     H_    0.434271 0.848344 0.185577 0.115077
H22   H     H_    0.476065 0.933060 0.265897 0.132431
H23   H     H_    0.514959 0.559765 0.908996 0.094033
H24   H     H_    0.358044 0.009886 0.238359 0.211651
H25   H     H_    0.389283 0.974793 0.093336 0.100779
H26   H     H_    0.312065 0.924752 0.163185 0.149599
H27   H     H_    0.619174 0.623705 0.752887 0.154456
H28   H     H_    0.570612 0.715481 0.783267 0.099515
H29   H     H_    0.692697 0.710591 0.899145 0.108408
H30   H     H_    0.741415 0.686581 0.762523 0.162970
H31   H     H_    0.701016 0.785179 0.780248 0.198279
H32   H     H_    0.380800 0.623668 0.247179 0.154472
H33   H     H_    0.429403 0.715416 0.216748 0.099522
H34   H     H_    0.485038 0.559763 0.091004 0.094033
H35   H     H_    0.307322 0.710531 0.100847 0.108424
H36   H     H_    0.258584 0.686599 0.237480 0.162964
H37   H     H_    0.299030 0.785170 0.219677 0.198249
H38   H     H_    0.689651 0.172125 0.462009 0.128060
H39   H     H_    0.646471 0.074558 0.431223 0.125831
H40   H     H_    0.729190 0.012276 0.593560 0.181146
H41   H     H_    0.783664 0.063638 0.482509 0.095310
H42   H     H_    0.770935 0.109665 0.629997 0.181788
H43   H     H_    0.310262 0.172041 0.537788 0.128153
H44   H     H_    0.353589 0.074571 0.568748 0.125773
H45   H     H_    0.733824 0.374020 0.536407 0.156824
H46   H     H_    0.271045 0.012064 0.406351 0.181341
H47   H     H_    0.216456 0.063302 0.517365 0.095378
H48   H     H_    0.229112 0.109353 0.369870 0.181574
H49   H     H_    0.266168 0.374030 0.463622 0.156621
H50   H     H_    0.605350 0.354650 0.682057 0.155750
H51   H     H_    0.394644 0.354648 0.317961 0.155782
H52   H     H_    0.950355 0.629725 0.395122 0.126379
N1    N     N_R   0.500000 0.701220 0.500000 -0.256691
N2    N     N_R   0.500000 0.298780 0.500000 -0.337459
O1    O     O_R   0.391260 0.567930 0.500000 -0.423002
O2    O     O_2   0.326153 0.263109 0.323186 -0.518778
O3    O     O_2   0.877424 0.705431 0.463826 -0.510694
O4    O     O_2   0.122616 0.705400 0.536611 -0.510693
O5    O     O_2   0.687679 0.638594 0.318600 -0.500912
O6    O     O_2   0.312403 0.638559 0.681538 -0.500922
O7    O     O_3   0.881866 0.348046 0.529031 -0.530891
O8    O     O_3   0.118089 0.348024 0.471264 -0.531045
O9    O     O_3   0.608261 0.870253 0.642947 -0.542970
O10   O     O_3   0.391778 0.870252 0.357001 -0.543015
O11   O     O_3   0.619763 0.703870 0.609753 -0.522747
O12   O     O_R   0.608740 0.567930 0.500000 -0.422952
O13   O     O_3   0.380231 0.703876 0.390258 -0.522755
O14   O     O_3   0.623041 0.127046 0.598991 -0.525288
O15   O     O_3   0.376990 0.127025 0.400931 -0.525276
O16   O     O_R   0.391280 0.432120 0.500000 -0.539822
O17   O     O_R   0.608720 0.432120 0.500000 -0.539835
O18   O     O_R   0.500000 0.567890 0.321940 -0.492788
O19   O     O_R   0.500000 0.567890 0.678060 -0.492735
O20   O     O_R   0.500030 0.432070 0.321950 -0.530551
O21   O     O_R   0.499970 0.432070 0.678050 -0.530559
O22   O     O_2   0.673853 0.263128 0.676801 -0.518566

loop_
_geom_bond_atom_site_label_1
_geom_bond_atom_site_label_2
_ccdc_geom_bond_type
C7    C10   A    
C42   H22   S    
C23   C45   S    
C48   H37   S    
C43   H25   S    
C1    O16   A    
C11   O20   A    
C46   H31   S    
C51   H44   S    
C33   O5    D    
C40   O9    S    
C50   H41   S    
C48   H36   S    
Cu2   N2    S    
C8    C29   S    
C36   C37   S    
C19   C21   A    
C24   C26   A    
C2    C55   A    
C8    N2    A    
C41   H19   S    
C38   C39   S    
C3    C54   A    
Cu2   O17   S    
C12   C22   S    
C15   C17   D    
C36   O7    S    
C3    C55   A    
C52   H46   S    
Cu2   O20   S    
C22   C25   A    
C37   H7    S    
C39   H14   S    
C29   H50   S    
C23   C27   A    
C36   H5    S    
C56   N1    A    
C38   O8    S    
C9    N2    A    
C29   O22   D    
C55   O10   S    
C45   C53   T    
C42   H21   S    
C43   H26   S    
C17   H34   S    
C1    O1    A    
C44   H28   S    
C19   C32   S    
C31   O3    D    
C26   C28   A    
C44   C46   S    
C47   O13   S    
C46   H30   S    
Cu2   O21   S    
C54   C56   A    
C2    N1    A    
C50   H40   S    
C48   H35   S    
C30   H51   S    
C18   C23   A    
C56   O11   S    
Cu1   O18   S    
C6    O14   S    
C28   O8    S    
C41   H20   S    
C25   H45   S    
Cu1   O1    S    
C49   H39   S    
C51   C52   S    
C14   H1    S    
C47   C48   S    
C12   O12   A    
C37   H8    S    
C13   O19   A    
C32   O4    D    
C9    C30   S    
C1    C24   S    
C20   C33   S    
C40   C41   S    
C54   O9    S    
C20   C22   A    
C52   H47   S    
C47   H32   S    
C14   C16   D    
C21   C24   A    
C25   C27   A    
C42   C43   S    
C32   H2    S    
C3    C4    S    
C11   O18   A    
C42   O10   S    
C46   H29   S    
C30   O2    D    
C7    C9    A    
C15   H12   S    
C11   C17   S    
C28   C34   A    
C47   H33   S    
Cu1   O19   S    
C38   H10   S    
C4    C5    T    
C19   C34   A    
C49   O14   S    
C26   H49   S    
C6    C10   A    
C6    C8    A    
C21   C35   S    
C27   O7    S    
C51   H43   S    
C44   O11   S    
C50   H42   S    
C40   H17   S    
C51   O15   S    
C5    C10   S    
Cu2   O16   S    
Cu1   O12   S    
Cu1   Cu2   S    
Cu1   N1    S    
C37   H9    S    
C16   H23   S    
C31   H52   S    
C40   H16   S    
C35   H4    S    
C18   C20   A    
C39   H15   S    
C49   H38   S    
C13   O21   A    
C12   O17   A    
C38   H11   S    
C52   H48   S    
C2    O13   S    
C34   C53   S    
C33   H3    S    
C49   C50   S    
C13   C16   S    
C43   H24   S    
C39   H13   S    
C14   C15   S    
C35   O6    D    
C18   C31   S    
C7    O15   S    
C36   H6    S    
C44   H27   S    
C41   H18   S    
