data_mof_unit_38916.cif
_audit_creation_date              2012-10-26T18:29:58-0400
_audit_creation_method            fapswitch 2.2
_symmetry_space_group_name_H-M    P1
_symmetry_Int_Tables_number       1
_space_group_crystal_system       triclinic
_cell_length_a                    10.820998
_cell_length_b                    13.060589
_cell_length_c                    11.729966
_cell_angle_alpha                 99.925706
_cell_angle_beta                  93.294611
_cell_angle_gamma                 92.206519
_cell_volume                      1628.29102071

loop_
_atom_site_label
_atom_site_type_symbol
_atom_type_description
_atom_site_fract_x
_atom_site_fract_y
_atom_site_fract_z
_atom_type_partial_charge
C1    C     C_R   0.492000 0.299281 0.479060 0.534877
C2    C     C_R   0.467173 0.029136 0.552185 0.007199
C3    C     C_R   0.472605 0.967896 0.440673 0.063478
C4    C     C_R   0.260363 0.504197 0.501265 0.544793
C5    C     C_R   0.458156 0.858902 0.429627 0.013886
C6    C     C_R   0.492005 0.875572 0.639516 -0.168242
C7    C     C_R   0.478259 0.981715 0.650949 -0.149949
C8    C     C_R   0.377104 0.406099 0.020193 0.226856
C9    C     C_R   0.391348 0.410259 0.141562 0.159764
C10   C     C_R   0.549182 0.543972 0.158345 -0.009656
C11   C     C_R   0.541698 0.538660 0.035594 -0.041360
C12   C     C_3   0.877901 0.500847 0.494020 0.078053
C13   C     C_R   0.455868 0.467419 0.965984 -0.019715
C14   C     C_R   0.448909 0.458959 0.843472 0.012314
C15   C     C_R   0.606987 0.592727 0.857787 0.181365
C16   C     C_R   0.494652 0.700316 0.520696 0.538603
C17   C     C_R   0.616835 0.603617 0.981455 -0.021241
C18   C     C_R   0.740034 0.500478 0.498365 0.568474
C19   C     C_3   0.068933 0.401083 0.536930 -0.090856
C20   C     C_3   0.924549 0.395995 0.524396 0.155013
C21   C     C_3   0.077484 0.601658 0.584611 -0.135801
C22   C     C_3   0.068700 0.511334 0.377463 -0.212597
C23   C     C_3   0.935181 0.590141 0.590550 -0.220640
C24   C     C_3   0.122332 0.504021 0.501803 0.027847
C25   C     C_3   0.893424 0.627041 0.343877 -0.393583
C26   C     C_3   0.397495 0.796077 0.317975 -0.331502
C27   C     C_3   0.463178 0.986068 0.143050 -0.022718
C28   C     C_3   0.467198 0.898145 0.039750 -0.381203
C29   C     C_3   0.398874 0.195292 0.669951 -0.366975
C30   C     C_3   0.119618 0.300473 0.470377 -0.456053
C31   C     C_3   0.691336 0.665890 0.806635 -0.318199
C32   C     C_3   0.182143 0.393439 0.934576 -0.032779
C33   C     C_3   0.088708 0.322377 0.853556 -0.383715
C34   C     C_3   0.925432 0.518050 0.370871 0.000994
C35   C     C_3   0.706280 0.683782 0.057571 -0.432203
C36   C     C_3   0.311072 0.331357 0.188136 -0.303441
C37   C     C_3   0.817413 0.277726 0.617433 -0.000284
C38   C     C_3   0.753287 0.266942 0.727158 -0.352014
C39   C     C_3   0.140550 0.626232 0.708194 -0.411605
C40   C     C_3   0.873397 0.436322 0.263460 -0.382316
C41   C     C_R   0.481444 0.812860 0.529731 -0.002197
C42   C     C_R   0.480737 0.185658 0.467779 -0.045293
C43   C     C_R   0.492851 0.016620 0.343953 0.248100
C44   C     C_R   0.503124 0.125422 0.361023 -0.157857
C45   C     C_R   0.453242 0.136672 0.562695 -0.034267
Cu1   Cu    Cu3+1 0.509350 0.507730 0.615930 0.901414
Cu2   Cu    Cu3+1 0.490650 0.492270 0.384070 0.879539
H1    H     H_    0.098974 0.402985 0.629392 0.168043
H2    H     H_    0.912502 0.572855 0.676811 0.176448
H3    H     H_    0.113758 0.579881 0.348587 0.119451
H4    H     H_    0.097400 0.443398 0.315620 0.125268
H5    H     H_    0.941948 0.691458 0.406079 0.112878
H6    H     H_    0.923454 0.635850 0.256978 0.114668
H7    H     H_    0.792805 0.639221 0.344783 0.151728
H8    H     H_    0.341656 0.845353 0.268787 0.129568
H9    H     H_    0.468618 0.758667 0.262491 0.171147
H10   H     H_    0.329100 0.736640 0.336891 0.125298
H11   H     H_    0.509855 0.056303 0.120058 0.133407
H12   H     H_    0.098649 0.671743 0.545593 0.126144
H13   H     H_    0.364053 0.000944 0.157922 0.117513
H14   H     H_    0.422120 0.825719 0.058881 0.147125
H15   H     H_    0.417628 0.919639 0.962383 0.094792
H16   H     H_    0.564813 0.883635 0.020068 0.155484
H17   H     H_    0.335334 0.253998 0.646397 0.137338
H18   H     H_    0.339766 0.143301 0.711994 0.128901
H19   H     H_    0.473926 0.232694 0.733577 0.146646
H20   H     H_    0.090512 0.288201 0.376621 0.117082
H21   H     H_    0.222098 0.302004 0.480386 0.140723
H22   H     H_    0.084173 0.232322 0.505883 0.123218
H23   H     H_    0.892958 0.665418 0.584289 0.078905
H24   H     H_    0.689563 0.659113 0.713479 0.190778
H25   H     H_    0.668206 0.747522 0.838606 0.080055
H26   H     H_    0.789271 0.654353 0.833080 0.084377
H27   H     H_    0.204523 0.461884 0.893442 0.114490
H28   H     H_    0.138220 0.421470 0.016966 0.121726
H29   H     H_    0.055039 0.258024 0.896258 0.145782
H30   H     H_    0.009389 0.368230 0.831627 0.144644
H31   H     H_    0.131788 0.289103 0.772573 0.152702
H32   H     H_    0.759968 0.736208 0.012370 0.125621
H33   H     H_    0.654089 0.735423 0.121067 0.145345
H34   H     H_    0.507240 0.842301 0.717304 0.127737
H35   H     H_    0.774902 0.642610 0.104374 0.118259
H36   H     H_    0.212480 0.336632 0.159686 0.098504
H37   H     H_    0.339793 0.251843 0.153537 0.111412
H38   H     H_    0.311202 0.338609 0.281689 0.179657
H39   H     H_    0.885946 0.216382 0.601597 0.116608
H40   H     H_    0.745021 0.265814 0.544435 0.140586
H41   H     H_    0.689162 0.330875 0.748148 0.195198
H42   H     H_    0.699669 0.191162 0.713966 0.097783
H43   H     H_    0.822220 0.269563 0.801287 0.125550
H44   H     H_    0.139598 0.556747 0.750423 0.138382
H45   H     H_    0.484025 0.026951 0.737742 0.115639
H46   H     H_    0.237119 0.657635 0.706983 0.170275
H47   H     H_    0.091173 0.687916 0.762455 0.110561
H48   H     H_    0.924281 0.446791 0.186179 0.105227
H49   H     H_    0.885442 0.354959 0.274878 0.101961
H50   H     H_    0.775367 0.445231 0.236782 0.177766
H51   H     H_    0.530605 0.163571 0.290983 0.126901
H52   H     H_    0.382855 0.404712 0.789913 0.154236
H53   H     H_    0.613217 0.597978 0.214455 0.131090
H54   H     H_    0.892262 0.333557 0.450568 0.091001
N1    N     N_R   0.523430 0.519360 0.790130 -0.246779
N2    N     N_R   0.476570 0.480640 0.209880 -0.255714
O1    O     O_R   0.506640 0.354460 0.582000 -0.504126
O2    O     O_3   0.288584 0.337859 0.954396 -0.588030
O3    O     O_3   0.877621 0.377543 0.630606 -0.575789
O4    O     O_R   0.490840 0.341410 0.386200 -0.521186
O5    O     O_R   0.325590 0.506510 0.597900 -0.513291
O6    O     O_R   0.309790 0.493450 0.402100 -0.529532
O7    O     O_R   0.509160 0.658590 0.613800 -0.528196
O8    O     O_R   0.493360 0.645540 0.418000 -0.511063
O9    O     O_R   0.690210 0.506550 0.597900 -0.481606
O10   O     O_R   0.674410 0.493490 0.402100 -0.520854
O11   O     O_3   0.526281 0.957308 0.240933 -0.569768

loop_
_geom_bond_atom_site_label_1
_geom_bond_atom_site_label_2
_ccdc_geom_bond_type
C4    O6    A    
C8    C13   A    
Cu1   O9    S    
C19   C20   S    
C26   H8    S    
C32   H28   S    
C16   O7    A    
C14   H52   S    
Cu1   N1    S    
C38   H42   S    
C3    C43   A    
C34   C40   S    
C10   N2    A    
C25   H6    S    
C21   H12   S    
C27   H13   S    
C43   O11   S    
C32   H27   S    
C4    C24   S    
C33   H31   S    
C14   N1    A    
C36   H36   S    
C35   H33   S    
Cu2   O10   S    
C39   H46   S    
C44   H51   S    
C2    C7    A    
C8    C9    A    
C6    C41   A    
Cu1   O5    S    
C9    C36   S    
C29   C45   S    
C30   H20   S    
C25   C34   S    
C22   H3    S    
C28   H14   S    
C31   H24   S    
C29   H17   S    
C6    H34   S    
C13   C14   A    
C8    O2    S    
C23   H23   S    
C42   C44   A    
C40   H49   S    
C18   O10   A    
C39   H44   S    
C35   H35   S    
C20   O3    S    
C2    C45   A    
C22   C34   S    
Cu2   N2    S    
C37   H39   S    
C25   H7    S    
C40   H50   S    
C19   H1    S    
C20   H54   S    
Cu2   O6    S    
Cu1   O1    S    
C5    C26   S    
C38   H41   S    
C42   C45   A    
C43   C44   A    
C27   O11   S    
C39   H47   S    
C37   C38   S    
C4    O5    A    
C33   H29   S    
C12   C23   S    
C9    N2    A    
C12   C20   S    
C10   H53   S    
C1    O1    A    
C1    O4    A    
C29   H18   S    
C31   H25   S    
C31   H26   S    
Cu2   O4    S    
C32   O2    S    
C21   C23   S    
C22   C24   S    
C40   H48   S    
C12   C34   S    
C30   H22   S    
C15   C17   A    
C5    C41   A    
Cu1   Cu2   S    
C11   C17   A    
C21   C39   S    
C37   H40   S    
C18   O9    A    
C3    C5    A    
C27   H11   S    
C26   H9    S    
C15   C31   S    
C6    C7    A    
C36   H38   S    
C38   H43   S    
C32   C33   S    
Cu1   O7    S    
C2    C3    A    
C25   H5    S    
C37   O3    S    
C11   C13   A    
C33   H30   S    
C36   H37   S    
Cu2   O8    S    
C7    H45   S    
C35   H32   S    
C19   C24   S    
C15   N1    A    
C26   H10   S    
C23   H2    S    
C10   C11   A    
C29   H19   S    
C28   H16   S    
C1    C42   S    
C21   C24   S    
C12   C18   S    
C27   C28   S    
C17   C35   S    
C19   C30   S    
C16   C41   S    
C30   H21   S    
C16   O8    A    
C22   H4    S    
C28   H15   S    
