data_mof_unit_62600.cif
_audit_creation_date              2012-12-10T17:23:36-0500
_audit_creation_method            fapswitch 2.2
_symmetry_space_group_name_H-M    P1
_symmetry_Int_Tables_number       1
_space_group_crystal_system       triclinic
_cell_length_a                    10.130653
_cell_length_b                    10.825665
_cell_length_c                    15.727485
_cell_angle_alpha                 89.990899
_cell_angle_beta                  81.75311
_cell_angle_gamma                 95.285731
_cell_volume                      1699.59821386

loop_
_atom_site_label
_atom_site_type_symbol
_atom_type_description
_atom_site_fract_x
_atom_site_fract_y
_atom_site_fract_z
_atom_type_partial_charge
C1    C     C_R   0.556038 0.732578 0.492106 0.942478
C2    C     C_3   0.589854 0.424040 0.963739 -0.272761
C3    C     C_3   0.533972 0.615651 0.969227 0.171824
C4    C     C_3   0.466002 0.384198 0.030798 0.171733
C5    C     C_1   0.502303 0.500004 0.750744 -0.137862
C6    C     C_1   0.497682 0.499936 0.249265 -0.135787
C7    C     C_3   0.377704 0.460109 0.982627 0.177652
C8    C     C_3   0.622268 0.539740 0.017396 0.177482
C9    C     C_3   0.501043 0.500389 0.917011 -0.005009
C10   C     C_3   0.498930 0.499464 0.083008 -0.005083
C11   C     C_1   0.502370 0.500152 0.826019 0.056941
C12   C     C_R   0.443868 0.267419 0.503328 0.943305
C13   C     C_1   0.497607 0.499741 0.173995 0.056064
C14   C     C_2   0.587646 0.864459 0.480193 -0.349988
C15   C     C_2   0.411906 0.135515 0.497739 -0.352963
C16   C     C_2   0.487180 0.933916 0.474791 -0.133032
C17   C     C_2   0.511788 0.066000 0.472390 -0.132343
C18   C     C_2   0.927454 0.510431 0.506943 -0.110583
C19   C     C_2   0.072557 0.489591 0.493037 -0.112862
C20   C     C_R   0.500783 0.500008 0.661976 0.905032
C21   C     C_R   0.499215 0.499983 0.338024 0.896978
C22   C     C_3   0.410121 0.575809 0.036283 -0.273089
H1    H     H_    0.336704 0.637706 0.067694 0.201563
H2    H     H_    0.879667 0.384547 0.422199 0.174295
H3    H     H_    0.663272 0.362143 0.932331 0.201814
H4    H     H_    0.614796 0.105839 0.455168 0.191996
H5    H     H_    0.383920 0.894042 0.478036 0.191944
H6    H     H_    0.309198 0.095197 0.515073 0.158063
H7    H     H_    0.690614 0.904809 0.477086 0.157254
H8    H     H_    0.108223 0.421188 0.446981 0.168691
H9    H     H_    0.891795 0.578848 0.552989 0.168487
H10   H     H_    0.120323 0.615436 0.577810 0.175995
I1    I     I_    0.584065 0.799924 0.918493 -0.248685
I2    I     I_    0.415933 0.199963 0.081616 -0.250086
I3    I     I_    0.817266 0.599345 0.047271 -0.235754
I4    I     I_    0.182691 0.400499 0.952783 -0.235105
N1    N     N_2   0.842700 0.448880 0.465440 -0.191083
N2    N     N_2   0.157300 0.551120 0.534560 -0.191482
O1    O     O_R   0.431060 0.692470 0.506960 -0.612673
O2    O     O_R   0.568940 0.307530 0.493040 -0.612535
O3    O     O_R   0.651120 0.659650 0.484770 -0.610567
O4    O     O_R   0.348880 0.340350 0.515230 -0.610094
O5    O     O_R   0.389990 0.516420 0.634310 -0.592812
O6    O     O_R   0.610010 0.483580 0.365690 -0.596225
O7    O     O_R   0.610050 0.483600 0.612130 -0.610521
O8    O     O_R   0.389950 0.516400 0.387870 -0.613964
Zn1   Zn    Zn3+2 0.353060 0.521920 0.514810 0.971764
Zn2   Zn    Zn3+2 0.646940 0.478080 0.485190 0.971591

loop_
_geom_bond_atom_site_label_1
_geom_bond_atom_site_label_2
_ccdc_geom_bond_type
C12   O2    A    
C2    C4    S    
C15   C17   D    
C3    C9    S    
C19   N2    D    
H10   N2    S    
C1    C14   S    
C21   O6    A    
C7    I4    S    
C8    I3    S    
C20   O7    A    
C12   C15   S    
C16   H5    S    
H2    N1    S    
N2    Zn1   S    
C5    C20   S    
C6    C21   S    
C10   C22   S    
N1    Zn2   S    
C9    C11   S    
C15   H6    S    
C19   H8    S    
C4    C7    S    
C17   H4    S    
O1    Zn1   S    
C18   N1    D    
C5    C11   T    
C2    H3    S    
C4    I2    S    
O4    Zn1   S    
C22   H1    S    
C14   C16   D    
C3    C8    S    
C1    O1    A    
C14   H7    S    
C4    C10   S    
C7    C22   S    
C20   O5    A    
C8    C10   S    
C21   O8    A    
O7    Zn2   S    
C1    O3    A    
C7    C9    S    
C3    I1    S    
O2    Zn2   S    
C18   C19   S    
C3    C22   S    
C12   O4    A    
C18   H9    S    
O8    Zn1   S    
C2    C9    S    
O5    Zn1   S    
O3    Zn2   S    
C2    C8    S    
O6    Zn2   S    
C16   C17   S    
C6    C13   T    
C10   C13   S    
