data_mof_unit_61814.cif
_audit_creation_date              2012-12-10T20:10:38-0500
_audit_creation_method            fapswitch 2.2
_symmetry_space_group_name_H-M    P1
_symmetry_Int_Tables_number       1
_space_group_crystal_system       triclinic
_cell_length_a                    15.906645
_cell_length_b                    15.906682
_cell_length_c                    43.001329
_cell_angle_alpha                 90.000084
_cell_angle_beta                  90.000084
_cell_angle_gamma                 90.000296
_cell_volume                      10880.2798452

loop_
_atom_site_label
_atom_site_type_symbol
_atom_type_description
_atom_site_fract_x
_atom_site_fract_y
_atom_site_fract_z
_atom_type_partial_charge
C1    C     C_R   0.500000 1.000000 0.131233 0.003303
C2    C     C_R   0.500000 1.000000 0.665587 0.502883
C3    C     C_3   0.702411 0.085642 0.933991 -0.425103
C4    C     C_3   0.001253 0.338184 0.066055 -0.273528
C5    C     C_3   0.914328 0.297603 0.066009 -0.425102
C6    C     C_3   0.995777 0.661732 0.934098 -0.277273
C7    C     C_3   0.908015 0.680176 0.946760 -0.429810
C8    C     C_3   0.661732 0.995750 0.065902 -0.277274
C9    C     C_3   0.680160 0.907985 0.053240 -0.429807
C10   C     C_3   0.338184 0.001277 0.933944 -0.273526
C11   C     C_3   0.297590 0.914358 0.933990 -0.425103
C12   C     C_3   0.998746 0.661816 0.066056 -0.273528
C13   C     C_R   0.000000 0.500000 0.334413 0.502883
C14   C     C_3   0.085672 0.702396 0.066009 -0.425102
C15   C     C_3   0.004222 0.338268 0.934098 -0.277273
C16   C     C_3   0.091985 0.319824 0.946760 -0.429810
C17   C     C_3   0.838258 0.503948 0.565902 -0.277264
C18   C     C_3   0.819657 0.591677 0.553241 -0.429814
C19   C     C_3   0.161819 0.498961 0.433945 -0.273532
C20   C     C_3   0.202282 0.585941 0.433992 -0.425100
C21   C     C_3   0.501237 0.838182 0.566056 -0.273516
C22   C     C_3   0.414309 0.797607 0.566009 -0.425109
C23   C     C_3   0.495740 0.161732 0.434098 -0.277281
C24   C     C_R   1.000000 0.500000 0.665583 0.503472
C25   C     C_3   0.407972 0.180157 0.446759 -0.429800
C26   C     C_3   0.161742 0.496053 0.565902 -0.277264
C27   C     C_3   0.180342 0.408322 0.553241 -0.429814
C28   C     C_3   0.838182 0.501039 0.433945 -0.273532
C29   C     C_3   0.797719 0.414058 0.433991 -0.425101
C30   C     C_3   0.498762 0.161818 0.566056 -0.273517
C31   C     C_3   0.585691 0.202393 0.566010 -0.425109
C32   C     C_3   0.504260 0.838269 0.434098 -0.277281
C33   C     C_3   0.592028 0.819843 0.446759 -0.429800
C34   C     C_R   1.000000 0.500000 0.834416 0.503472
C35   C     C_R   1.000000 0.500000 0.165587 0.502884
C36   C     C_R   0.500000 0.000000 0.834413 0.502883
C37   C     C_R   0.500000 0.000000 0.165584 0.503472
C38   C     C_R   0.339892 0.160108 0.250000 0.510186
C39   C     C_R   0.660108 0.839892 0.750000 0.510230
C40   C     C_R   0.839892 0.339892 0.250000 0.510150
C41   C     C_R   0.500000 0.000000 0.868755 0.001928
C42   C     C_R   0.160108 0.660108 0.750000 0.510228
C43   C     C_R   0.660108 0.839892 0.250000 0.510185
C44   C     C_R   0.339892 0.160108 0.750000 0.510230
C45   C     C_R   0.160108 0.660108 0.250000 0.510150
C46   C     C_R   0.839892 0.339892 0.750000 0.510228
C47   C     C_R   0.339892 0.839892 0.750000 0.510152
C48   C     C_R   0.660108 0.160108 0.250000 0.510229
C49   C     C_R   0.839892 0.660108 0.750000 0.510188
C50   C     C_R   0.160108 0.339892 0.250000 0.510231
C51   C     C_R   0.660108 0.160108 0.750000 0.510152
C52   C     C_R   1.000000 0.500000 0.131245 0.001928
C53   C     C_R   0.339892 0.839892 0.250000 0.510229
C54   C     C_R   0.160108 0.339892 0.750000 0.510187
C55   C     C_R   0.839892 0.660108 0.250000 0.510230
C56   C     C_1   0.276641 0.776641 0.250000 -0.022170
C57   C     C_1   0.723359 0.223359 0.750000 -0.022258
C58   C     C_1   0.223359 0.276641 0.250000 -0.022123
C59   C     C_1   0.776641 0.723359 0.750000 -0.022109
C60   C     C_1   0.723359 0.223359 0.250000 -0.022170
C61   C     C_1   0.276641 0.776641 0.750000 -0.022258
C62   C     C_1   0.776641 0.723359 0.250000 -0.022122
C63   C     C_R   1.000000 0.500000 0.868767 0.003303
C64   C     C_1   0.223359 0.276641 0.750000 -0.022109
C65   C     C_1   0.276641 0.223359 0.750000 -0.022122
C66   C     C_1   0.723359 0.776641 0.250000 -0.022111
C67   C     C_1   0.223359 0.723359 0.750000 -0.022171
C68   C     C_1   0.776641 0.276641 0.250000 -0.022258
C69   C     C_1   0.723359 0.776641 0.750000 -0.022122
C70   C     C_1   0.276641 0.223359 0.250000 -0.022111
C71   C     C_1   0.776641 0.276641 0.750000 -0.022170
C72   C     C_1   0.223359 0.723359 0.250000 -0.022258
C73   C     C_R   0.424016 0.000664 0.114788 -0.121731
C74   C     C_R   1.000000 0.500000 0.631233 0.003301
C75   C     C_R   0.575976 0.001048 0.885212 -0.119914
C76   C     C_R   0.998941 0.424025 0.114788 -0.119914
C77   C     C_R   0.999348 0.575984 0.885212 -0.121730
C78   C     C_R   0.575983 0.999336 0.114788 -0.121730
C79   C     C_R   0.424025 0.998952 0.885212 -0.119914
C80   C     C_R   0.001059 0.575975 0.114788 -0.119914
C81   C     C_R   0.000651 0.424017 0.885212 -0.121730
C82   C     C_R   0.924014 0.500527 0.614788 -0.121730
C83   C     C_R   0.075975 0.501153 0.385212 -0.119914
C84   C     C_R   0.498933 0.924025 0.614788 -0.119914
C85   C     C_R   0.000000 0.500000 0.368755 0.001928
C86   C     C_R   0.499332 0.075984 0.385212 -0.121731
C87   C     C_R   0.075985 0.499473 0.614788 -0.121730
C88   C     C_R   0.924026 0.498847 0.385212 -0.119914
C89   C     C_R   0.501066 0.075975 0.614788 -0.119913
C90   C     C_R   0.500668 0.924017 0.385212 -0.121731
C91   C     C_R   0.422824 0.000991 0.082185 0.002228
C92   C     C_R   0.577109 0.000701 0.917805 0.002861
C93   C     C_R   0.999288 0.422891 0.082195 0.002861
C94   C     C_R   0.999022 0.577176 0.917815 0.002229
C95   C     C_R   0.577175 0.999009 0.082185 0.002228
C96   C     C_R   0.500000 1.000000 0.631245 0.001928
C97   C     C_R   0.422891 0.999299 0.917805 0.002861
C98   C     C_R   0.000712 0.577108 0.082195 0.002861
C99   C     C_R   0.000978 0.422824 0.917815 0.002229
C100  C     C_R   0.922821 0.500850 0.582185 0.002231
C101  C     C_R   0.077109 0.500811 0.417805 0.002861
C102  C     C_R   0.499279 0.922890 0.582195 0.002863
C103  C     C_R   0.499004 0.077176 0.417815 0.002228
C104  C     C_R   0.077178 0.499150 0.582185 0.002231
C105  C     C_R   0.922892 0.499188 0.417805 0.002861
C106  C     C_R   0.500721 0.077109 0.582195 0.002863
C107  C     C_R   0.500000 0.000000 0.368767 0.003303
C108  C     C_R   0.500995 0.922824 0.417815 0.002228
C109  C     C_R   0.500000 1.000000 0.065641 0.066508
C110  C     C_R   0.500000 1.000000 0.934345 0.058089
C111  C     C_R   0.000000 0.500000 0.065655 0.058090
C112  C     C_R   1.000000 0.500000 0.934359 0.066508
C113  C     C_R   1.000000 0.500000 0.565641 0.066504
C114  C     C_R   0.000000 0.500000 0.434345 0.058095
C115  C     C_R   0.500000 1.000000 0.565655 0.058086
C116  C     C_R   0.500000 0.000000 0.434359 0.066508
C117  C     C_R   0.000000 0.500000 0.468530 0.321043
C118  C     C_R   0.500000 1.000000 0.334416 0.503472
C119  C     C_R   1.000000 0.500000 0.531421 0.327774
C120  C     C_R   0.500000 0.000000 0.468578 0.327777
C121  C     C_R   0.500000 1.000000 0.531470 0.321049
C122  C     C_R   0.500000 1.000000 0.968530 0.321046
C123  C     C_R   0.500000 1.000000 0.031421 0.327775
C124  C     C_R   1.000000 0.500000 0.968579 0.327775
C125  C     C_R   0.000000 0.500000 0.031470 0.321046
C126  C     C_3   0.338268 0.004250 0.065902 -0.277274
C127  C     C_3   0.319839 0.092015 0.053240 -0.429808
C128  C     C_3   0.661817 0.998723 0.933945 -0.273526
H1    H     H_    0.365094 0.001813 0.127427 0.137683
H2    H     H_    0.135086 0.501653 0.372675 0.140317
H3    H     H_    0.498504 0.864913 0.627325 0.140319
H4    H     H_    0.498179 0.134906 0.372573 0.137684
H5    H     H_    0.134909 0.498434 0.627427 0.137685
H6    H     H_    0.864914 0.498347 0.372675 0.140318
H7    H     H_    0.501496 0.135087 0.627325 0.140319
H8    H     H_    0.501821 0.865094 0.372573 0.137684
H9    H     H_    0.321745 0.138926 0.072367 0.157741
H10   H     H_    0.366080 0.110005 0.035124 0.179406
H11   H     H_    0.256172 0.092950 0.042656 0.132241
H12   H     H_    0.635088 0.001464 0.872675 0.140318
H13   H     H_    0.335316 0.957314 0.046864 0.171922
H14   H     H_    0.286929 0.987300 0.082297 0.133996
H15   H     H_    0.713325 0.107593 0.909804 0.150080
H16   H     H_    0.661440 0.131503 0.946219 0.183753
H17   H     H_    0.763839 0.082705 0.946207 0.135308
H18   H     H_    0.656881 0.975842 0.958254 0.163544
H19   H     H_    0.703982 0.953719 0.921772 0.135574
H20   H     H_    0.892375 0.286692 0.090196 0.150081
H21   H     H_    0.868473 0.338581 0.053781 0.183753
H22   H     H_    0.917255 0.236174 0.053792 0.135309
H23   H     H_    0.998517 0.364912 0.127325 0.140319
H24   H     H_    0.024135 0.343115 0.041746 0.163544
H25   H     H_    0.046251 0.296011 0.078228 0.135574
H26   H     H_    0.861104 0.678280 0.927633 0.157740
H27   H     H_    0.890016 0.633938 0.964876 0.179405
H28   H     H_    0.907092 0.743843 0.957344 0.132240
H29   H     H_    0.042713 0.664676 0.953136 0.171922
H30   H     H_    0.012737 0.713068 0.917702 0.133997
H31   H     H_    0.678255 0.861074 0.072367 0.157741
H32   H     H_    0.633920 0.889995 0.035124 0.179405
H33   H     H_    0.743827 0.907050 0.042657 0.132241
H34   H     H_    0.998209 0.634906 0.872573 0.137684
H35   H     H_    0.664683 0.042686 0.046864 0.171922
H36   H     H_    0.713070 0.012700 0.082298 0.133997
H37   H     H_    0.286675 0.892407 0.909803 0.150080
H38   H     H_    0.338560 0.868496 0.946218 0.183753
H39   H     H_    0.236161 0.917295 0.946207 0.135308
H40   H     H_    0.343119 0.024158 0.958254 0.163544
H41   H     H_    0.296019 0.046281 0.921771 0.135574
H42   H     H_    0.107625 0.713308 0.090196 0.150080
H43   H     H_    0.131527 0.661419 0.053781 0.183753
H44   H     H_    0.082745 0.763825 0.053793 0.135309
H45   H     H_    0.634906 0.998187 0.127427 0.137684
H46   H     H_    0.975865 0.656884 0.041746 0.163544
H47   H     H_    0.953749 0.703988 0.078228 0.135574
H48   H     H_    0.138896 0.321721 0.927633 0.157740
H49   H     H_    0.109983 0.366062 0.964876 0.179405
H50   H     H_    0.092908 0.256157 0.957343 0.132240
H51   H     H_    0.957286 0.335325 0.953136 0.171923
H52   H     H_    0.987263 0.286932 0.917702 0.133997
H53   H     H_    0.821468 0.638591 0.572368 0.157739
H54   H     H_    0.865865 0.609760 0.535126 0.179398
H55   H     H_    0.755989 0.592487 0.542656 0.132234
H56   H     H_    0.364912 0.998536 0.872675 0.140319
H57   H     H_    0.835396 0.457007 0.546863 0.171924
H58   H     H_    0.786952 0.486897 0.582298 0.133994
H59   H     H_    0.213163 0.607911 0.409805 0.150081
H60   H     H_    0.161243 0.631741 0.446220 0.183753
H61   H     H_    0.263715 0.583097 0.446208 0.135313
H62   H     H_    0.156917 0.476073 0.458255 0.163537
H63   H     H_    0.204053 0.454022 0.421772 0.135578
H64   H     H_    0.392355 0.786698 0.590196 0.150072
H65   H     H_    0.368456 0.838587 0.553781 0.183751
H66   H     H_    0.417232 0.736177 0.553793 0.135300
H67   H     H_    0.001483 0.635087 0.127325 0.140319
H68   H     H_    0.524120 0.843110 0.541746 0.163547
H69   H     H_    0.546231 0.796006 0.578229 0.135576
H70   H     H_    0.361063 0.178250 0.427631 0.157748
H71   H     H_    0.389981 0.133915 0.464874 0.179410
H72   H     H_    0.407033 0.243824 0.457342 0.132246
H73   H     H_    0.542673 0.164685 0.453137 0.171913
H74   H     H_    0.512690 0.213071 0.417703 0.133996
H75   H     H_    0.178531 0.361409 0.572368 0.157739
H76   H     H_    0.134135 0.390240 0.535126 0.179398
H77   H     H_    0.244010 0.407513 0.542657 0.132234
H78   H     H_    0.001791 0.365094 0.872573 0.137684
H79   H     H_    0.164604 0.542993 0.546864 0.171924
H80   H     H_    0.213047 0.513103 0.582298 0.133994
H81   H     H_    0.786838 0.392089 0.409805 0.150081
H82   H     H_    0.838758 0.368259 0.446220 0.183753
H83   H     H_    0.736285 0.416903 0.446207 0.135313
H84   H     H_    0.843083 0.523927 0.458255 0.163537
H85   H     H_    0.795947 0.545978 0.421772 0.135578
H86   H     H_    0.607645 0.213302 0.590197 0.150072
H87   H     H_    0.631544 0.161413 0.553782 0.183751
H88   H     H_    0.582768 0.263823 0.553794 0.135300
H89   H     H_    0.865090 0.501566 0.627427 0.137685
H90   H     H_    0.475880 0.156889 0.541746 0.163548
H91   H     H_    0.453768 0.203993 0.578229 0.135576
H92   H     H_    0.638937 0.821750 0.427631 0.157748
H93   H     H_    0.610019 0.866085 0.464874 0.179411
H94   H     H_    0.592966 0.756177 0.457342 0.132245
H95   H     H_    0.457327 0.835315 0.453137 0.171913
H96   H     H_    0.487310 0.786929 0.417702 0.133996
N1    N     N_R   0.529656 0.067285 0.015440 -0.248550
N2    N     N_R   0.970420 0.432674 0.484492 -0.242692
N3    N     N_R   0.567271 0.029704 0.515508 -0.242698
N4    N     N_R   0.432713 0.970347 0.484560 -0.248551
N5    N     N_R   0.970471 0.432658 0.515439 -0.248545
N6    N     N_R   0.029580 0.567326 0.484492 -0.242692
N7    N     N_R   0.432729 0.970296 0.515508 -0.242698
N8    N     N_R   0.567287 0.029653 0.484560 -0.248551
N9    N     N_R   0.470293 0.932731 0.984492 -0.242697
N10   N     N_R   0.067275 0.529695 0.015508 -0.242697
N11   N     N_R   0.932709 0.470355 0.984560 -0.248550
N12   N     N_R   0.470343 0.932715 0.015440 -0.248550
N13   N     N_R   0.529707 0.067269 0.984492 -0.242697
N14   N     N_R   0.932725 0.470305 0.015508 -0.242697
N15   N     N_R   0.067290 0.529645 0.984560 -0.248550
N16   N     N_R   0.029529 0.567342 0.515439 -0.248545
O1    O     O_3   0.500000 1.000000 0.250000 -0.438203
O2    O     O_R   0.500000 0.930740 0.680620 -0.544948
O3    O     O_R   0.930740 0.500000 0.319380 -0.544947
O4    O     O_R   0.069260 0.500000 0.680620 -0.544718
O5    O     O_R   1.000000 0.430740 0.819380 -0.544718
O6    O     O_R   0.000000 0.569260 0.180620 -0.544948
O7    O     O_R   0.569260 1.000000 0.819380 -0.544948
O8    O     O_R   0.430740 1.000000 0.180620 -0.544718
O9    O     O_R   0.000000 0.569260 0.819380 -0.544719
O10   O     O_R   1.000000 0.430740 0.180620 -0.544948
O11   O     O_R   0.430740 1.000000 0.819380 -0.544947
O12   O     O_3   0.500000 1.000000 0.750000 -0.437986
O13   O     O_R   0.569260 1.000000 0.180620 -0.544718
O14   O     O_R   0.402540 0.166630 0.268230 -0.534972
O15   O     O_R   0.597460 0.833370 0.731770 -0.534938
O16   O     O_R   0.833370 0.402540 0.268230 -0.535063
O17   O     O_R   0.166630 0.597460 0.731770 -0.534967
O18   O     O_R   0.597460 0.833370 0.268230 -0.534971
O19   O     O_R   0.402540 0.166630 0.731770 -0.534938
O20   O     O_R   0.166630 0.597460 0.268230 -0.535064
O21   O     O_R   0.833370 0.402540 0.731770 -0.534968
O22   O     O_R   0.402540 0.833370 0.731770 -0.535061
O23   O     O_3   0.000000 0.500000 0.250000 -0.437987
O24   O     O_R   0.597460 0.166630 0.268230 -0.534962
O25   O     O_R   0.833370 0.597460 0.731770 -0.534967
O26   O     O_R   0.166630 0.402540 0.268230 -0.534936
O27   O     O_R   0.597460 0.166630 0.731770 -0.535061
O28   O     O_R   0.402540 0.833370 0.268230 -0.534961
O29   O     O_R   0.166630 0.402540 0.731770 -0.534967
O30   O     O_R   0.833370 0.597460 0.268230 -0.534936
O31   O     O_R   0.902540 0.666630 0.768230 -0.534973
O32   O     O_R   0.097460 0.333370 0.231770 -0.534941
O33   O     O_R   0.333370 0.902540 0.768230 -0.535059
O34   O     O_3   1.000000 0.500000 0.750000 -0.438203
O35   O     O_R   0.666630 0.097460 0.231770 -0.534961
O36   O     O_R   0.097460 0.333370 0.768230 -0.534973
O37   O     O_R   0.902540 0.666630 0.231770 -0.534941
O38   O     O_R   0.666630 0.097460 0.768230 -0.535059
O39   O     O_R   0.333370 0.902540 0.231770 -0.534962
O40   O     O_R   0.902540 0.333370 0.231770 -0.535059
O41   O     O_R   0.097460 0.666630 0.768230 -0.534960
O42   O     O_R   0.333370 0.097460 0.231770 -0.534973
O43   O     O_R   0.666630 0.902540 0.768230 -0.534941
O44   O     O_R   0.097460 0.666630 0.231770 -0.535058
O45   O     O_R   0.500000 0.930740 0.319380 -0.544718
O46   O     O_R   0.902540 0.333370 0.768230 -0.534960
O47   O     O_R   0.666630 0.902540 0.231770 -0.534973
O48   O     O_R   0.333370 0.097460 0.768230 -0.534941
O49   O     O_R   0.500000 0.069260 0.680620 -0.544947
O50   O     O_R   0.069260 0.500000 0.319380 -0.544947
O51   O     O_R   0.930740 0.500000 0.680620 -0.544718
O52   O     O_R   0.500000 0.069260 0.319380 -0.544719
Zn1   Zn    Zn3+2 0.401050 1.000000 0.224090 0.946145
Zn2   Zn    Zn3+2 0.098950 0.500000 0.275910 0.945877
Zn3   Zn    Zn3+2 0.500000 0.901050 0.724090 0.945878
Zn4   Zn    Zn3+2 0.500000 0.098950 0.275910 0.946144
Zn5   Zn    Zn3+2 0.098950 0.500000 0.724090 0.946145
Zn6   Zn    Zn3+2 0.901050 0.500000 0.275910 0.945877
Zn7   Zn    Zn3+2 0.500000 0.098950 0.724090 0.945877
Zn8   Zn    Zn3+2 0.500000 0.901050 0.275910 0.946145
Zn9   Zn    Zn3+2 0.598950 1.000000 0.775910 0.945877
Zn10  Zn    Zn3+2 0.000000 0.401050 0.224090 0.945877
Zn11  Zn    Zn3+2 0.000000 0.598950 0.775910 0.946145
Zn12  Zn    Zn3+2 0.598950 1.000000 0.224090 0.946145
Zn13  Zn    Zn3+2 0.401050 1.000000 0.775910 0.945877
Zn14  Zn    Zn3+2 0.000000 0.598950 0.224090 0.945877
Zn15  Zn    Zn3+2 0.000000 0.401050 0.775910 0.946145
Zn16  Zn    Zn3+2 0.901050 0.500000 0.724090 0.946145

loop_
_geom_bond_atom_site_label_1
_geom_bond_atom_site_label_2
_ccdc_geom_bond_type
C126  C127  S    
N1    N13   A    
C19   C20   S    
O31   Zn11  S    
C14   H42   S    
O34   Zn16  S    
C29   H82   S    
C31   H86   S    
C23   H73   S    
C89   H7    S    
C2    O49   A    
C90   C107  A    
C112  C124  S    
C42   O17   A    
C75   H12   S    
C119  N16   A    
C122  N13   A    
C39   O15   A    
C55   C62   S    
C117  N6    A    
C54   O29   A    
C5    H21   S    
C79   H56   S    
C26   C104  S    
C23   C103  S    
C6    C94   S    
C51   O27   A    
C89   C106  A    
C111  C125  S    
O21   Zn16  S    
C51   C57   S    
O41   Zn11  S    
C1    C37   S    
O30   Zn6   S    
C33   H94   S    
O43   Zn9   S    
C4    H25   S    
C5    H20   S    
C21   C22   S    
C11   H39   S    
O37   Zn14  S    
C32   H96   S    
C1    C78   A    
C46   O46   A    
C3    H15   S    
C95   C109  A    
O32   Zn10  S    
C20   H61   S    
C124  N15   A    
C58   C70   T    
C81   C99   A    
C76   H23   S    
C27   H77   S    
C25   H71   S    
C17   H58   S    
O42   Zn1   S    
C57   C71   T    
C59   C69   T    
C49   O31   A    
C38   O14   A    
C55   O37   A    
C12   H46   S    
C77   H34   S    
O35   Zn12  S    
C79   C97   A    
C21   H69   S    
C4    C5    S    
C121  N3    A    
C128  H19   S    
C6    C7    S    
C123  N1    A    
C126  H13   S    
C9    H32   S    
C106  C115  A    
C89   C96   A    
C2    C96   S    
C103  C116  A    
O40   Zn10  S    
O10   Zn10  S    
C32   C33   S    
C86   H4    S    
O9    Zn11  S    
C18   H55   S    
C43   C66   S    
O23   Zn2   S    
O8    Zn1   S    
C24   O4    A    
C21   H68   S    
C17   C100  S    
C24   O51   A    
C119  N5    A    
C123  N12   A    
C40   O16   A    
C54   O36   A    
C13   C85   S    
O51   Zn16  S    
C11   H37   S    
N4    N7    A    
C125  N14   A    
C19   H63   S    
O46   Zn15  S    
C115  C121  S    
C15   H51   S    
C84   C102  A    
C120  N8    A    
O1    Zn4   S    
O2    Zn3   S    
C10   H41   S    
O19   Zn7   S    
O12   Zn13  S    
C27   H75   S    
O3    Zn6   S    
C31   H87   S    
C77   C94   A    
O23   Zn6   S    
C118  O45   A    
O44   Zn14  S    
C7    H28   S    
O27   Zn7   S    
C25   H70   S    
C74   C87   A    
C107  C118  S    
C30   H90   S    
C13   O50   A    
O7    Zn9   S    
C44   C65   S    
C8    C95   S    
C6    H30   S    
C16   H50   S    
O1    Zn8   S    
C4    H24   S    
C117  N2    A    
C62   C66   T    
O49   Zn7   S    
O52   Zn4   S    
C8    H36   S    
O34   Zn5   S    
C3    C128  S    
C109  C123  S    
C18   H53   S    
C56   C72   T    
O39   Zn1   S    
C35   O10   A    
C116  C120  S    
C10   C97   S    
O16   Zn6   S    
C20   H60   S    
C61   C67   T    
O11   Zn13  S    
C17   C18   S    
C39   C69   S    
C9    H33   S    
C2    O2    A    
C40   O40   A    
C21   C102  S    
C10   H40   S    
O20   Zn2   S    
C3    H17   S    
O47   Zn12  S    
O45   Zn8   S    
C42   C67   S    
N11   N14   A    
C42   O41   A    
C45   O20   A    
C53   C56   S    
C28   H85   S    
C83   C101  A    
O50   Zn2   S    
C12   C14   S    
C14   H43   S    
C52   C76   A    
C29   H81   S    
C49   C59   S    
C88   H6    S    
O28   Zn8   S    
C88   C105  A    
C128  H18   S    
C82   H89   S    
C54   C64   S    
C94   C112  A    
N9    N12   A    
C114  C117  S    
C10   C11   S    
C4    C93   S    
O38   Zn9   S    
C36   O7    A    
C43   O18   A    
O5    Zn15  S    
C81   H78   S    
C33   H93   S    
C38   C70   S    
C121  N7    A    
O12   Zn3   S    
C26   H79   S    
O34   Zn11  S    
C46   O21   A    
O25   Zn16  S    
C26   C27   S    
C28   C29   S    
O1    Zn1   S    
C30   C31   S    
C85   C88   A    
C102  C115  A    
C113  C119  S    
C17   H57   S    
C78   H45   S    
C22   H65   S    
C127  H10   S    
C120  N4    A    
C12   C98   S    
C16   H48   S    
C45   O44   A    
C101  C114  A    
C118  O52   A    
C36   C41   S    
O12   Zn7   S    
C74   C82   A    
O34   Zn15  S    
C29   H83   S    
C47   O22   A    
C73   H1    S    
C23   H74   S    
C50   C58   S    
O23   Zn10  S    
O15   Zn3   S    
C126  H14   S    
C5    H22   S    
C76   C93   A    
C41   C75   A    
C78   C95   A    
C34   O5    A    
C46   C71   S    
C93   C111  A    
O1    Zn12  S    
O6    Zn14  S    
O17   Zn5   S    
C83   C85   A    
C37   O13   A    
C53   O28   A    
C32   H95   S    
C53   O39   A    
C80   H67   S    
C35   O6    A    
C80   C98   A    
C3    H16   S    
O23   Zn14  S    
C47   C61   S    
C49   O25   A    
C28   H84   S    
O26   Zn2   S    
C1    C73   A    
C64   C65   T    
C108  C116  A    
C25   H72   S    
C110  C122  S    
C34   O9    A    
O48   Zn13  S    
C38   O42   A    
C90   C108  A    
C87   C104  A    
C122  N9    A    
C7    H27   S    
C60   C68   T    
C40   C68   S    
C35   C52   S    
C9    H31   S    
O12   Zn9   S    
O24   Zn4   S    
C52   C80   A    
O13   Zn12  S    
C30   H91   S    
C20   H59   S    
C50   O26   A    
C91   C126  S    
C87   H5    S    
N6    N16   A    
C86   C107  A    
C92   C110  A    
O29   Zn5   S    
C7    H26   S    
C37   O8    A    
C63   C81   A    
O36   Zn15  S    
O14   Zn4   S    
C18   H54   S    
C15   C16   S    
C36   O11   A    
C84   C96   A    
C124  N11   A    
O18   Zn8   S    
C8    C9    S    
C11   H38   S    
C28   C105  S    
N3    N8    A    
C15   H52   S    
C30   C106  S    
C45   C72   S    
C127  H11   S    
C86   C103  A    
C92   C128  S    
O4    Zn5   S    
C48   C60   S    
C43   O47   A    
C44   O48   A    
C27   H76   S    
C105  C114  A    
C73   C91   A    
C83   H2    S    
C14   H44   S    
O33   Zn13  S    
C31   H88   S    
C48   O24   A    
C104  C113  A    
C51   O38   A    
C90   H8    S    
C55   O30   A    
C75   C92   A    
C12   H47   S    
C50   O32   A    
C22   H64   S    
C6    H29   S    
C16   H49   S    
C63   C77   A    
C33   H92   S    
C98   C111  A    
C82   C100  A    
C26   H80   S    
C100  C113  A    
C15   C99   S    
C8    H35   S    
C41   C79   A    
C47   O33   A    
N2    N5    A    
C125  N10   A    
C84   H3    S    
C91   C109  A    
C39   O43   A    
C44   O19   A    
C97   C110  A    
C19   C101  S    
C24   C74   S    
C13   O3    A    
C99   C112  A    
C34   C63   S    
N10   N15   A    
C23   C25   S    
C19   H62   S    
C48   O35   A    
C32   C108  S    
O22   Zn3   S    
C22   H66   S    
C127  H9    S    
