data_mof_unit_37914.cif
_audit_creation_date              2012-12-10T19:50:03-0500
_audit_creation_method            fapswitch 2.2
_symmetry_space_group_name_H-M    P1
_symmetry_Int_Tables_number       1
_space_group_crystal_system       triclinic
_cell_length_a                    14.178775
_cell_length_b                    14.899016
_cell_length_c                    15.297711
_cell_angle_alpha                 90.700416
_cell_angle_beta                  68.993237
_cell_angle_gamma                 89.257541
_cell_volume                      3016.1116278

loop_
_atom_site_label
_atom_site_type_symbol
_atom_type_description
_atom_site_fract_x
_atom_site_fract_y
_atom_site_fract_z
_atom_type_partial_charge
C1    C     C_R   0.501606 0.672981 0.495144 0.852949
C2    C     C_R   0.500093 0.327966 0.501367 0.890588
C3    C     C_R   0.421230 0.639990 0.080363 -0.246871
C4    C     C_R   0.639823 0.541223 0.887746 -0.230267
C5    C     C_R   0.352922 0.654725 0.034993 -0.260157
C6    C     C_R   0.709478 0.529270 0.931578 -0.246465
C7    C     C_R   0.419957 0.914007 0.542933 -0.211898
C8    C     C_R   0.580527 0.089611 0.451404 -0.209408
C9    C     C_R   0.415778 0.824153 0.519121 -0.015745
C10   C     C_R   0.572662 0.180744 0.438602 -0.024706
C11   C     C_R   0.505315 0.771065 0.492260 -0.159580
C12   C     C_R   0.500013 0.232155 0.509304 -0.120145
C13   C     C_R   0.599860 0.812690 0.473799 0.005004
C14   C     C_R   0.437148 0.192715 0.593018 -0.024712
C15   C     C_R   0.601402 0.901882 0.500335 -0.231181
C16   C     C_R   0.446613 0.101033 0.604365 -0.222602
C17   C     C_R   0.511956 0.952513 0.534093 0.095797
C18   C     C_R   0.516947 0.049577 0.533087 0.090857
C19   C     C_R   0.862361 0.480835 0.582577 -0.279435
C20   C     C_R   0.128489 0.436301 0.444986 -0.272100
C21   C     C_R   0.764074 0.485968 0.581273 0.011938
C22   C     C_R   0.227962 0.441067 0.443229 0.003027
C23   C     C_R   0.437674 0.502985 0.676344 0.897648
C24   C     C_R   0.562828 0.503757 0.323868 0.872802
C25   C     C_R   0.827041 0.505840 0.417853 -0.017257
C26   C     C_R   0.179726 0.553751 0.561539 -0.017837
C27   C     C_R   0.927672 0.501577 0.415114 -0.069466
C28   C     C_R   0.078051 0.552261 0.566137 -0.067909
C29   C     C_R   0.946594 0.491675 0.499973 0.069059
C30   C     C_R   0.051816 0.493681 0.504296 0.063709
C31   C     C_R   0.403351 0.527669 0.775623 -0.043261
C32   C     C_R   0.604015 0.519133 0.223208 -0.058949
C33   C     C_R   0.294872 0.616908 0.907571 -0.224253
C34   C     C_R   0.743108 0.509178 0.074330 -0.242919
C35   C     C_R   0.312364 0.575043 0.820703 -0.206373
C36   C     C_R   0.706514 0.501585 0.171250 -0.204825
C37   C     C_R   0.474411 0.520358 0.818796 -0.271252
C38   C     C_R   0.541340 0.554575 0.179280 -0.293153
C39   C     C_R   0.462287 0.567840 0.901139 0.095264
C40   C     C_R   0.577260 0.564168 0.081908 0.097044
C41   C     C_R   0.369613 0.613874 0.947996 0.170283
C42   C     C_R   0.677651 0.535520 0.028920 0.176754
C43   C     C_R   0.538631 0.566745 0.940120 0.066030
C44   C     C_R   0.512219 0.591263 0.035264 0.072857
H1    H     H_    0.284174 0.693356 0.070353 0.146038
H2    H     H_    0.786345 0.508888 0.889919 0.150650
H3    H     H_    0.701091 0.477603 0.645880 0.124600
H4    H     H_    0.285801 0.396822 0.396664 0.130713
H5    H     H_    0.352947 0.956545 0.559208 0.140388
H6    H     H_    0.632076 0.048904 0.394641 0.142597
N1    N     N_R   0.747530 0.500020 0.500000 -0.091941
N2    N     N_R   0.252470 0.499980 0.500000 -0.096288
O1    O     O_R   0.420530 0.630930 0.499990 -0.612520
O2    O     O_R   0.579470 0.369070 0.500010 -0.601513
O3    O     O_R   0.579480 0.630940 0.499990 -0.594074
O4    O     O_R   0.420520 0.369060 0.500010 -0.625864
O5    O     O_R   0.375120 0.499990 0.632240 -0.609403
O6    O     O_R   0.624880 0.500010 0.367760 -0.619190
O7    O     O_R   0.534080 0.500000 0.632240 -0.629873
O8    O     O_R   0.465920 0.500000 0.367760 -0.621486
Zn1   Zn    Zn3+2 0.393860 0.499990 0.500000 0.938730
Zn2   Zn    Zn3+2 0.606140 0.500010 0.500000 0.955902
H7    H     H_    0.872421 0.469482 0.648504 0.151657
H8    H     H_    0.111675 0.388185 0.399248 0.158628
H9    H     H_    0.812296 0.513601 0.353692 0.136331
H10   H     H_    0.201017 0.598268 0.607535 0.133497
C45   C     C_R   0.009953 0.504787 0.322694 0.109035
C46   C     C_R   0.088263 0.566205 0.306199 -0.151104
C47   C     C_R   0.170087 0.563045 0.221742 -0.148364
C48   C     C_R   0.172828 0.500937 0.151553 -0.106349
C49   C     C_R   0.093067 0.442092 0.165837 -0.153054
C50   C     C_R   0.011898 0.443729 0.251190 -0.184194
H11   H     H_    0.087235 0.614828 0.359636 0.123338
H12   H     H_    0.231540 0.608243 0.211978 0.129129
H13   H     H_    0.236726 0.497820 0.086340 0.144351
H14   H     H_    0.094954 0.394215 0.111412 0.123910
H15   H     H_    0.951874 0.396021 0.262355 0.124503
C51   C     C_R   0.002133 0.610570 0.637567 0.119563
C52   C     C_R   0.935122 0.667039 0.613569 -0.140181
C53   C     C_R   0.862488 0.719326 0.682180 -0.158749
C54   C     C_R   0.856538 0.716588 0.775226 -0.098691
C55   C     C_R   0.923456 0.661779 0.799751 -0.145259
C56   C     C_R   0.995909 0.609027 0.731436 -0.193754
H16   H     H_    0.938489 0.670248 0.541971 0.123102
H17   H     H_    0.810776 0.761962 0.663156 0.129607
H18   H     H_    0.800054 0.756896 0.828342 0.131393
H19   H     H_    0.918632 0.659563 0.871929 0.128648
H20   H     H_    0.046103 0.565891 0.752080 0.114990
H21   H     H_    0.463000 0.569043 0.221030 0.156341
H22   H     H_    0.540541 0.478113 0.785915 0.142035
H23   H     H_    0.757271 0.477897 0.204996 0.160752
H24   H     H_    0.256963 0.582466 0.787463 0.147410
H25   H     H_    0.224027 0.652824 0.942284 0.137971
H26   H     H_    0.820964 0.490095 0.034722 0.130665
H27   H     H_    0.403309 0.668856 0.149775 0.138710
H28   H     H_    0.666957 0.532168 0.812552 0.147923
C57   C     C_R   0.322533 0.794593 0.505507 0.154810
C58   C     C_R   0.328043 0.761478 0.417208 -0.089595
C59   C     C_R   0.239927 0.746702 0.398739 -0.148412
C60   C     C_R   0.145866 0.766465 0.467423 -0.114282
C61   C     C_R   0.139491 0.798504 0.555640 -0.133773
C62   C     C_R   0.227349 0.812035 0.574975 -0.194590
H29   H     H_    0.400610 0.749697 0.361819 0.104170
H30   H     H_    0.244718 0.722270 0.330370 0.112349
H31   H     H_    0.078052 0.757761 0.451898 0.105352
H32   H     H_    0.066559 0.814306 0.608651 0.150118
H33   H     H_    0.221380 0.838807 0.642937 0.129270
C63   C     C_R   0.637289 0.219134 0.348455 0.124631
C64   C     C_R   0.593437 0.256979 0.288089 -0.164530
C65   C     C_R   0.654661 0.287556 0.200322 -0.129018
C66   C     C_R   0.759837 0.281782 0.172837 -0.119087
C67   C     C_R   0.803978 0.245297 0.233042 -0.161152
C68   C     C_R   0.743024 0.213430 0.320344 -0.132322
H34   H     H_    0.512045 0.261207 0.308277 0.120787
H35   H     H_    0.620574 0.315931 0.153642 0.142778
H36   H     H_    0.807106 0.305894 0.105017 0.125074
H37   H     H_    0.885418 0.241021 0.211736 0.123635
H38   H     H_    0.778043 0.184177 0.365940 0.124014
C69   C     C_R   0.697099 0.769762 0.413075 0.156926
C70   C     C_R   0.783487 0.773080 0.437724 -0.148986
C71   C     C_R   0.876044 0.738517 0.376361 -0.138805
C72   C     C_R   0.883241 0.700478 0.290222 -0.133882
C73   C     C_R   0.797675 0.695859 0.265616 -0.154043
C74   C     C_R   0.705026 0.730388 0.326508 -0.114718
H39   H     H_    0.779358 0.802974 0.503904 0.113378
H40   H     H_    0.942464 0.741932 0.395110 0.110535
H41   H     H_    0.955105 0.674615 0.242420 0.143446
H42   H     H_    0.803444 0.666556 0.198792 0.142605
H43   H     H_    0.639872 0.727953 0.305389 0.101277
C75   C     C_R   0.363190 0.246113 0.670099 0.099477
C76   C     C_R   0.382383 0.264590 0.752310 -0.180867
C77   C     C_R   0.313445 0.316388 0.824521 -0.144634
C78   C     C_R   0.225187 0.350045 0.815007 -0.121012
C79   C     C_R   0.205354 0.331434 0.733533 -0.130317
C80   C     C_R   0.273729 0.279097 0.661484 -0.088890
H44   H     H_    0.451042 0.239657 0.759980 0.133751
H45   H     H_    0.328874 0.331175 0.887499 0.136101
H46   H     H_    0.172373 0.390763 0.870636 0.120499
H47   H     H_    0.137111 0.357681 0.726127 0.118859
H48   H     H_    0.257520 0.264943 0.598730 0.126076
H49   H     H_    0.673156 0.934600 0.486059 0.131750
H50   H     H_    0.397070 0.069155 0.667090 0.141102

loop_
_geom_bond_atom_site_label_1
_geom_bond_atom_site_label_2
_ccdc_geom_bond_type
O6    Zn2   S    
C22   H4    S    
C61   C62   A    
C27   C29   A    
C10   C63   S    
C66   C67   A    
C1    C11   S    
C2    C12   S    
C25   N1    A    
C57   C58   A    
C73   C74   A    
C39   C41   A    
C20   C30   A    
C69   C74   A    
C23   O7    A    
C38   H21   S    
C60   H31   S    
C53   H17   S    
C37   H22   S    
C32   C36   A    
C19   C21   A    
N2    Zn1   S    
C52   H16   S    
C58   H29   S    
O3    Zn2   S    
C63   C64   A    
C23   O5    A    
C45   C50   A    
C72   H41   S    
C1    O1    A    
C65   C66   A    
C50   H15   S    
C4    H28   S    
O1    Zn1   S    
C51   C56   A    
C75   C80   A    
C19   H7    S    
C77   C78   A    
C7    C17   A    
C34   C42   A    
C66   H36   S    
C14   C16   A    
C32   C38   A    
C28   C51   S    
C57   C62   A    
C35   H24   S    
C40   C42   A    
C56   H20   S    
C78   H46   S    
C15   H49   S    
N1    Zn2   S    
C67   C68   A    
C13   C69   S    
C54   C55   A    
C80   H48   S    
C3    C44   A    
C45   C46   A    
C26   H10   S    
C34   H26   S    
C47   H12   S    
C25   H9    S    
C52   C53   A    
C7    H5    S    
C4    C6    A    
C76   H44   S    
C2    O2    A    
C79   H47   S    
C70   H39   S    
C46   C47   A    
C39   C43   A    
O2    Zn2   S    
C46   H11   S    
C5    H1    S    
C8    C18   A    
C31   C37   A    
O8    Zn1   S    
C23   C31   S    
C63   C68   A    
C20   H8    S    
C16   H50   S    
C43   C44   A    
C24   C32   S    
C29   C30   S    
C26   N2    A    
C59   C60   A    
C24   O8    A    
C17   C18   S    
C62   H33   S    
C16   C18   A    
C9    C11   A    
C71   C72   A    
C48   C49   A    
C10   C12   A    
C64   H34   S    
C36   H23   S    
C8    C10   A    
C12   C14   A    
C55   C56   A    
C13   C15   A    
C78   C79   A    
C31   C35   A    
C76   C77   A    
C19   C29   A    
C8    H6    S    
C21   N1    A    
C70   C71   A    
C22   N2    A    
C14   C75   S    
C61   H32   S    
C7    C9    A    
C5    C41   A    
O7    Zn2   S    
C9    C57   S    
C6    H2    S    
C51   C52   A    
C54   H18   S    
C20   C22   A    
C53   C54   A    
C3    C5    A    
C33   H25   S    
C69   C70   A    
O5    Zn1   S    
C79   C80   A    
C4    C43   A    
C25   C27   A    
C26   C28   A    
C67   H37   S    
C33   C41   A    
C28   C30   A    
C75   C76   A    
C1    O3    A    
C71   H40   S    
C37   C39   A    
C2    O4    A    
C64   C65   A    
C38   C40   A    
C11   C13   A    
C73   H42   S    
C49   H14   S    
C60   C61   A    
C33   C35   A    
C74   H43   S    
C59   H30   S    
C34   C36   A    
C47   C48   A    
C27   C45   S    
C68   H38   S    
C40   C44   A    
C49   C50   A    
C24   O6    A    
C58   C59   A    
C6    C42   A    
C48   H13   S    
O4    Zn1   S    
C3    H27   S    
C77   H45   S    
C72   C73   A    
C15   C17   A    
C65   H35   S    
C55   H19   S    
C21   H3    S    
