data_mof_unit_67345.cif
_audit_creation_date              2013-03-05T16:08:10-0500
_audit_creation_method            fapswitch 2.2
_symmetry_space_group_name_H-M    P1
_symmetry_Int_Tables_number       1
_space_group_crystal_system       triclinic
_cell_length_a                    20.689491
_cell_length_b                    23.5496
_cell_length_c                    9.005214
_cell_angle_alpha                 89.718051
_cell_angle_beta                  103.805174
_cell_angle_gamma                 90.162957
_cell_volume                      4260.79979548

loop_
_atom_site_label
_atom_site_type_symbol
_atom_site_description
_atom_site_fract_x
_atom_site_fract_y
_atom_site_fract_z
_atom_type_partial_charge
P1    P     P_3+3 0.853370 0.434890 0.996520 0.626013
P2    P     P_3+3 0.853370 0.565110 0.496520 0.639093
P3    P     P_3+3 0.353370 0.934890 0.996520 0.632946
P4    P     P_3+3 0.353370 0.065110 0.496520 0.602243
O1    O     O_2   0.860260 0.414960 0.826400 -0.319599
O2    O     O_2   0.860260 0.585040 0.326400 -0.295707
O3    O     O_2   0.360260 0.914960 0.826400 -0.305034
O4    O     O_2   0.360260 0.085040 0.326400 -0.337201
O5    O     O_3   0.918600 0.470180 0.098890 -0.302816
O6    O     O_3   0.918600 0.529820 0.598890 -0.290357
O7    O     O_3   0.418600 0.970180 0.098890 -0.302177
O8    O     O_3   0.418600 0.029820 0.598890 -0.298103
O9    O     O_3   0.975750 0.362410 0.628650 -0.222801
O10   O     O_3   0.975750 0.637590 0.128650 -0.222398
O11   O     O_3   0.475750 0.862410 0.628650 -0.256933
O12   O     O_3   0.475750 0.137590 0.128650 -0.258943
O13   O     O_2   0.873906 0.307269 0.685518 -0.304620
O14   O     O_2   0.866822 0.689423 0.139672 -0.235022
O15   O     O_2   0.367104 0.824497 0.684476 -0.246809
O16   O     O_2   0.369503 0.185670 0.172779 -0.270204
O17   O     O_3   0.778499 0.474698 0.966654 -0.574453
O18   O     O_3   0.776065 0.527931 0.464740 -0.589999
O19   O     O_3   0.277699 0.973427 0.973218 -0.590781
O20   O     O_3   0.275805 0.029332 0.469798 -0.564851
O21   O     O_3   0.960157 0.248235 0.574173 -0.569868
O22   O     O_3   0.961122 0.756144 0.104061 -0.516704
O23   O     O_3   0.450986 0.748888 0.657143 -0.547102
O24   O     O_3   0.462712 0.252238 0.116669 -0.577079
C1    C     C_3   0.052758 0.191418 0.712866 1.005772
C2    C     C_3   0.067272 0.808078 0.137022 1.079761
C3    C     C_3   0.534110 0.675161 0.652175 0.986152
C4    C     C_3   0.569445 0.303083 0.169564 1.152778
P5    P     P_3+3 0.146350 0.434230 0.693140 0.686301
P6    P     P_3+3 0.146350 0.565770 0.193140 0.677200
P7    P     P_3+3 0.646350 0.934230 0.693140 0.705009
P8    P     P_3+3 0.646350 0.065770 0.193140 0.668684
P9    P     P_3+3 0.090355 0.311485 0.128151 0.671937
P10   P     P_3+3 0.090263 0.687868 0.635956 0.592008
P11   P     P_3+3 0.588430 0.810666 0.114204 0.626143
P12   P     P_3+3 0.587695 0.189355 0.631448 0.576183
O25   O     O_2   0.139400 0.414340 0.863230 -0.311953
O26   O     O_2   0.139400 0.585660 0.363230 -0.307767
O27   O     O_2   0.639400 0.914340 0.863230 -0.273148
O28   O     O_2   0.639400 0.085660 0.363230 -0.283002
O29   O     O_3   0.023740 0.362300 0.060930 -0.234713
O30   O     O_3   0.023740 0.637700 0.560930 -0.281846
O31   O     O_3   0.523740 0.862300 0.060930 -0.263567
O32   O     O_3   0.523740 0.137700 0.560930 -0.335820
O33   O     O_2   0.133198 0.319014 0.010640 -0.306054
O34   O     O_2   0.134168 0.689401 0.518455 -0.320167
O35   O     O_2   0.632738 0.822244 0.001587 -0.333364
O36   O     O_2   0.635676 0.177865 0.527315 -0.280589
O37   O     O_3   0.221127 0.472958 0.726292 -0.575921
O38   O     O_3   0.222538 0.529322 0.223142 -0.562693
O39   O     O_3   0.720691 0.972865 0.717408 -0.539946
O40   O     O_3   0.721156 0.028720 0.227641 -0.576370
O41   O     O_3   0.055873 0.241818 0.084283 -0.540541
O42   O     O_3   0.051523 0.755260 0.611619 -0.566759
O43   O     O_3   0.550331 0.744364 0.048116 -0.549037
O44   O     O_3   0.556265 0.257725 0.567280 -0.571032
C5    C     C_3   0.019314 0.224576 0.191619 0.819939
C6    C     C_3   0.981258 0.753232 0.568091 0.835916
C7    C     C_3   0.510911 0.725226 0.147430 0.882859
C8    C     C_3   0.490883 0.271260 0.583511 0.798500
C9    C     C_3   0.979289 0.166938 0.152317 0.614005
C10   C     C_3   0.951084 0.815691 0.545438 0.633246
C11   C     C_3   0.470465 0.668307 0.094000 0.611231
C12   C     C_3   0.493340 0.327213 0.679299 0.690804
C13   C     C_3   0.223631 0.475026 0.283695 1.130676
C14   C     C_3   0.219955 0.527381 0.783629 1.037285
C15   C     C_3   0.717287 0.973240 0.271787 1.141727
C16   C     C_3   0.721696 0.025537 0.783322 1.151486
C17   C     C_3   0.297651 0.455501 0.329067 0.772764
C18   C     C_3   0.293379 0.548419 0.837414 0.841701
C19   C     C_3   0.789063 0.951423 0.321811 0.853464
C20   C     C_3   0.796098 0.044228 0.832663 0.802916
Ba1   Ba    Ba6+2 0.999900 0.457470 0.844900 1.953693
Ba2   Ba    Ba6+2 0.999900 0.542530 0.344900 1.946835
Ba3   Ba    Ba6+2 0.499900 0.957470 0.844900 1.955103
Ba4   Ba    Ba6+2 0.499900 0.042530 0.344900 1.927698
C21   C     C_3   0.774468 0.526251 0.885288 0.813996
C22   C     C_3   0.770323 0.476981 0.382386 0.774230
C23   C     C_3   0.266853 0.023058 0.882944 0.835728
C24   C     C_3   0.268670 0.977975 0.389347 0.807742
C25   C     C_3   0.699026 0.541796 0.820159 0.615214
C26   C     C_3   0.694579 0.462160 0.310958 0.635165
C27   C     C_3   0.189069 0.033890 0.831642 0.592035
C28   C     C_3   0.192747 0.963640 0.329485 0.636227
O45   O     O_3   0.081330 0.529680 0.090830 -0.247063
O46   O     O_3   0.081330 0.470320 0.590830 -0.246344
O47   O     O_3   0.581330 0.029680 0.090830 -0.249233
O48   O     O_3   0.581330 0.970320 0.590830 -0.257155
P13   P     P_3+3 0.918285 0.691787 0.041116 0.737044
P14   P     P_3+3 0.913406 0.311611 0.559633 0.728957
P15   P     P_3+3 0.415907 0.189647 0.061476 0.639237
P16   P     P_3+3 0.411677 0.811809 0.573770 0.735433
C29   C     C_3   0.021860 0.251543 0.681245 1.182805
C30   C     C_3   0.016436 0.766315 0.039773 1.020411
C31   C     C_3   0.495780 0.728284 0.574303 1.180600
C32   C     C_3   0.532802 0.244895 0.134532 1.065481
C33   C     C_R   0.145713 0.687712 0.840658 0.047218
C34   C     C_R   0.147583 0.313723 0.333518 0.067703
C35   C     C_R   0.643173 0.189010 0.837805 0.144817
C36   C     C_R   0.641468 0.811139 0.324573 0.104395
C37   C     C_R   0.193200 0.732210 0.908496 -0.062633
C38   C     C_R   0.197582 0.270775 0.399283 -0.067452
C39   C     C_R   0.692682 0.232148 0.903554 -0.088846
C40   C     C_R   0.690313 0.767513 0.390375 -0.043204
C41   C     C_R   0.787793 0.320869 0.043417 -0.044901
C42   C     C_R   0.786160 0.678931 0.530650 -0.046952
C43   C     C_R   0.290409 0.819729 0.046744 -0.057980
C44   C     C_R   0.292781 0.181522 0.539098 -0.037494
C45   C     C_R   0.753465 0.322759 0.891651 -0.046665
C46   C     C_R   0.751924 0.677273 0.378041 -0.000422
C47   C     C_R   0.256425 0.821336 0.894722 -0.022656
C48   C     C_R   0.259062 0.180656 0.386454 -0.038715
C49   C     C_R   0.207194 0.781845 0.829049 0.363876
C50   C     C_R   0.215796 0.224016 0.315420 0.309162
C51   C     C_R   0.709379 0.280099 0.820769 0.341976
C52   C     C_R   0.708479 0.720596 0.306182 0.306775
C53   C     C_R   0.834757 0.365744 0.106720 0.153003
C54   C     C_R   0.835116 0.635504 0.596166 0.194760
C55   C     C_R   0.336149 0.865276 0.110603 0.156097
C56   C     C_R   0.339336 0.136296 0.603510 0.050108
H1    H     H_    0.762445 0.357613 0.821607 0.217489
H2    H     H_    0.761441 0.642869 0.307984 0.213445
H3    H     H_    0.262671 0.857481 0.825953 0.208665
H4    H     H_    0.267192 0.145916 0.315783 0.205166
C57   C     C_R   0.865722 0.360382 0.264392 0.305124
C58   C     C_R   0.869197 0.642945 0.749453 0.233645
C59   C     C_R   0.365484 0.860378 0.270617 0.316327
C60   C     C_R   0.371186 0.142028 0.761359 0.300147
C61   C     C_R   0.166775 0.635683 0.089245 0.131774
C62   C     C_R   0.167123 0.364444 0.585931 0.144168
C63   C     C_R   0.664897 0.136759 0.088781 0.130235
C64   C     C_R   0.662638 0.863109 0.579020 0.103452
C65   C     C_R   0.216061 0.679388 0.154307 -0.206988
C66   C     C_R   0.217777 0.321141 0.649123 -0.215505
C67   C     C_R   0.716569 0.178884 0.150777 -0.166100
C68   C     C_R   0.713164 0.819784 0.637831 -0.193684
C69   C     C_R   0.228303 0.727854 0.066071 0.104425
C70   C     C_R   0.230748 0.273441 0.558922 0.096322
C71   C     C_R   0.727827 0.227773 0.062021 0.116812
C72   C     C_R   0.723848 0.770702 0.549293 0.105851
C73   C     C_R   0.256796 0.675338 0.302981 0.275432
C74   C     C_R   0.259934 0.325476 0.796955 0.317954
C75   C     C_R   0.760780 0.172776 0.296012 0.278981
C76   C     C_R   0.760259 0.827393 0.776263 0.270075
C77   C     C_R   0.805455 0.215529 0.364702 0.253843
C78   C     C_R   0.806046 0.785387 0.841809 0.268850
C79   C     C_R   0.294596 0.721285 0.376835 0.203115
C80   C     C_R   0.307665 0.284222 0.861034 0.285039
C81   C     C_R   0.812418 0.267441 0.287749 -0.288462
C82   C     C_R   0.812902 0.733461 0.769752 -0.249555
C83   C     C_R   0.308947 0.769384 0.295239 -0.250337
C84   C     C_R   0.317183 0.234085 0.782753 -0.221605
C85   C     C_R   0.775927 0.272131 0.131442 0.112911
C86   C     C_R   0.773573 0.727178 0.617241 0.065262
C87   C     C_R   0.276285 0.772303 0.136136 0.070570
C88   C     C_R   0.279781 0.229301 0.627561 0.109336
C89   C     C_R   0.856869 0.313124 0.355779 0.277229
C90   C     C_R   0.862075 0.690787 0.836624 0.253693
C91   C     C_R   0.356481 0.812919 0.363522 0.234203
C92   C     C_R   0.364579 0.190327 0.850380 0.182223
C93   C     C_R   0.135384 0.641084 0.931894 0.071735
C94   C     C_R   0.134375 0.358391 0.428570 0.104024
C95   C     C_R   0.631791 0.143118 0.931736 -0.008061
C96   C     C_R   0.628772 0.856472 0.421127 0.094857
O49   O     O_3   0.013113 0.275128 0.817246 -0.700980
H5    H     H_    0.974758 0.255473 0.842072 0.363195
O50   O     O_3   0.049518 0.716109 0.022517 -0.838391
H6    H     H_    0.067388 0.700173 0.126100 0.301806
O51   O     O_3   0.542845 0.770170 0.561381 -0.718176
H7    H     H_    0.562315 0.785142 0.665275 0.279984
O52   O     O_3   0.559279 0.207516 0.255125 -0.726181
H8    H     H_    0.528468 0.207248 0.323773 0.350665
O53   O     O_3   0.336676 0.496734 0.421241 -0.670841
H9    H     H_    0.383430 0.483174 0.447546 0.378735
O54   O     O_3   0.328644 0.513241 0.955847 -0.669462
H10   H     H_    0.375879 0.525782 0.980657 0.401112
O55   O     O_3   0.823082 0.981549 0.452252 -0.676646
H11   H     H_    0.868195 0.964861 0.487976 0.376167
O56   O     O_3   0.830776 0.004651 0.939701 -0.627576
H12   H     H_    0.877968 0.016913 0.972019 0.380926
N1    N     N_R   0.301619 0.403109 0.416064 0.185394
O57   O     O_R   0.293531 0.405789 0.554098 -0.364588
O58   O     O_R   0.301938 0.354120 0.350796 -0.310360
N2    N     N_R   0.294153 0.605873 0.896523 0.211654
O59   O     O_R   0.305254 0.613551 0.042628 -0.367548
O60   O     O_R   0.283086 0.649440 0.805472 -0.320250
N3    N     N_R   0.786765 0.891563 0.357710 0.195377
O61   O     O_R   0.800485 0.875342 0.499108 -0.405385
O62   O     O_R   0.762896 0.855208 0.250750 -0.325244
N4    N     N_R   0.801520 0.100695 0.902333 0.176169
O63   O     O_R   0.820770 0.106040 0.049827 -0.367783
O64   O     O_R   0.782923 0.145556 0.819321 -0.341226
O65   O     O_3   0.321494 0.447666 0.197120 -0.631747
H13   H     H_    0.367188 0.431849 0.229185 0.388681
O66   O     O_3   0.324951 0.547719 0.715548 -0.621341
H14   H     H_    0.336879 0.507745 0.700639 0.389144
O67   O     O_3   0.821133 0.959584 0.202464 -0.613490
H15   H     H_    0.869803 0.956060 0.244412 0.376709
O68   O     O_3   0.822793 0.044791 0.703076 -0.625416
H16   H     H_    0.871642 0.049590 0.736464 0.391472
O69   O     O_3   0.803953 0.520710 0.763154 -0.830290
H17   H     H_    0.784026 0.487022 0.706060 0.365148
O70   O     O_3   0.800627 0.483073 0.261480 -0.817388
H18   H     H_    0.779541 0.516525 0.203157 0.358247
O71   O     O_3   0.291849 0.016062 0.754694 -0.800635
H19   H     H_    0.270025 0.981969 0.703146 0.364884
O72   O     O_3   0.295890 0.983297 0.263137 -0.813053
H20   H     H_    0.274977 0.017338 0.206706 0.352751
N5    N     N_R   0.808627 0.571103 0.988021 0.185102
O73   O     O_R   0.871550 0.566630 0.050238 -0.329408
O74   O     O_R   0.776269 0.612002 0.034215 -0.337894
N6    N     N_R   0.803167 0.431484 0.486305 0.187789
O75   O     O_R   0.769396 0.394060 0.543142 -0.324606
O76   O     O_R   0.866046 0.435419 0.549493 -0.338924
N7    N     N_R   0.300770 0.071054 0.972991 0.200921
O77   O     O_R   0.360763 0.064641 0.055282 -0.312815
O78   O     O_R   0.272593 0.120365 0.973425 -0.346558
N8    N     N_R   0.302516 0.932579 0.491770 0.185852
O79   O     O_R   0.269380 0.894833 0.549282 -0.341570
O80   O     O_R   0.365351 0.937052 0.554096 -0.317699
N9    N     N_R   0.659874 0.494274 0.739640 0.243282
O81   O     O_R   0.596315 0.501014 0.682620 -0.296123
O82   O     O_R   0.685705 0.444324 0.734606 -0.300398
N10   N     N_R   0.657651 0.509100 0.219675 0.234495
O83   O     O_R   0.598079 0.498718 0.137037 -0.233414
O84   O     O_R   0.673935 0.561634 0.253493 -0.320986
N11   N     N_R   0.151795 0.980228 0.806148 0.270437
O85   O     O_R   0.090366 0.978409 0.818209 -0.217896
O86   O     O_R   0.175634 0.936729 0.749634 -0.308999
N12   N     N_R   0.155880 0.010137 0.237943 0.243995
O87   O     O_R   0.099363 0.998480 0.143223 -0.222411
O88   O     O_R   0.167681 0.062463 0.281913 -0.290830
N13   N     N_R   0.694774 0.590269 0.714794 0.199938
O89   O     O_R   0.703536 0.641744 0.767305 -0.352050
O90   O     O_R   0.680503 0.582515 0.567772 -0.368777
N14   N     N_R   0.692756 0.412815 0.211750 0.224187
O91   O     O_R   0.713694 0.364118 0.271934 -0.366965
O92   O     O_R   0.677454 0.418063 0.063596 -0.328713
N15   N     N_R   0.172520 0.068149 0.690120 0.229427
O93   O     O_R   0.200427 0.117288 0.684098 -0.373811
O94   O     O_R   0.124424 0.052871 0.575744 -0.254257
N16   N     N_R   0.187319 0.912556 0.234863 0.223279
O95   O     O_R   0.197222 0.862883 0.299321 -0.304162
O96   O     O_R   0.189071 0.917314 0.092150 -0.363770
O97   O     O_3   0.670591 0.556562 0.940861 -0.635329
H21   H     H_    0.626299 0.572826 0.894176 0.405264
O98   O     O_3   0.661864 0.447293 0.425383 -0.613619
H22   H     H_    0.640128 0.481747 0.452753 0.384488
O99   O     O_3   0.168868 0.062801 0.948758 -0.654545
H23   H     H_    0.124592 0.079206 0.903366 0.396771
O100  O     O_3   0.163799 0.953492 0.452989 -0.641394
H24   H     H_    0.116623 0.942778 0.410124 0.410738
O101  O     O_3   0.065318 0.285297 0.621729 -0.744976
H25   H     H_    0.099374 0.299264 0.710873 0.289603
O102  O     O_3   0.993166 0.791919 0.898613 -0.684173
H26   H     H_    0.030787 0.794920 0.848942 0.333490
O103  O     O_3   0.459581 0.713303 0.428711 -0.747476
H27   H     H_    0.428879 0.682148 0.438049 0.362345
O104  O     O_3   0.548258 0.223069 0.002714 -0.789060
H28   H     H_    0.507937 0.212738 0.925541 0.344297
O105  O     O_3   0.064013 0.167184 0.579357 -0.692784
H29   H     H_    0.020546 0.153540 0.517625 0.397709
O106  O     O_3   0.122706 0.811333 0.072470 -0.777684
H30   H     H_    0.113713 0.840856 0.991653 0.385993
O107  O     O_3   0.582825 0.660552 0.573703 -0.703183
H31   H     H_    0.561790 0.635181 0.488172 0.383717
O108  O     O_3   0.625308 0.303416 0.105724 -0.762646
H32   H     H_    0.613604 0.321635 0.003939 0.388648
O109  O     O_3   0.113402 0.194942 0.822386 -0.640844
H33   H     H_    0.147420 0.210019 0.771193 0.341682
O110  O     O_3   0.088135 0.788369 0.288036 -0.630471
H34   H     H_    0.126111 0.762065 0.294266 0.346698
O111  O     O_3   0.564923 0.687077 0.805070 -0.680190
H35   H     H_    0.605996 0.709190 0.806854 0.368253
O112  O     O_3   0.591305 0.310534 0.327357 -0.633811
H36   H     H_    0.631211 0.286352 0.360542 0.390847
O113  O     O_3   0.936437 0.160777 0.251381 -0.674849
H37   H     H_    0.897644 0.185961 0.214872 0.332603
O114  O     O_3   0.919160 0.829667 0.661614 -0.618122
H38   H     H_    0.879772 0.805104 0.650753 0.352530
O115  O     O_3   0.420310 0.661567 0.173772 -0.671636
H39   H     H_    0.385915 0.691124 0.138976 0.341726
O116  O     O_3   0.508779 0.312553 0.833258 -0.752835
H40   H     H_    0.467840 0.297611 0.857704 0.362779
N17   N     N_R   0.162126 0.802880 0.697569 0.273888
O117  O     O_R   0.179274 0.804875 0.568117 -0.210474
O118  O     O_R   0.120361 0.840355 0.722687 -0.303235
N18   N     N_R   0.190941 0.216855 0.155241 0.265086
O119  O     O_R   0.162550 0.168817 0.109685 -0.257023
O120  O     O_R   0.221605 0.242421 0.064279 -0.317372
N19   N     N_R   0.687463 0.286323 0.659649 0.252558
O121  O     O_R   0.719177 0.258383 0.575901 -0.334528
O122  O     O_R   0.662551 0.334969 0.607394 -0.225627
N20   N     N_R   0.685874 0.714956 0.144314 0.250852
O123  O     O_R   0.657128 0.667811 0.091267 -0.277541
O124  O     O_R   0.717477 0.742236 0.058162 -0.297460
N21   N     N_R   0.848932 0.200022 0.508289 0.274636
O125  O     O_R   0.893393 0.160795 0.511149 -0.267837
O126  O     O_R   0.829229 0.207714 0.632643 -0.202704
N22   N     N_R   0.850095 0.800902 0.980259 0.270661
O127  O     O_R   0.828410 0.793383 0.101279 -0.192278
O128  O     O_R   0.893222 0.841206 0.980367 -0.247717
N23   N     N_R   0.317752 0.716694 0.538556 0.268120
O129  O     O_R   0.356029 0.674624 0.596838 -0.218025
O130  O     O_R   0.283029 0.740669 0.622599 -0.298287
N24   N     N_R   0.352384 0.300129 0.001019 0.268144
O131  O     O_R   0.333213 0.294020 0.126833 -0.193412
O132  O     O_R   0.396765 0.338927 0.997463 -0.244138
N25   N     N_R   0.275613 0.621328 0.367970 0.275217
O133  O     O_R   0.257603 0.607385 0.491355 -0.287091
O134  O     O_R   0.330771 0.600470 0.346771 -0.214484
N26   N     N_R   0.265710 0.377049 0.878899 0.264860
O135  O     O_R   0.313062 0.411153 0.863270 -0.233417
O136  O     O_R   0.249722 0.376082 0.009416 -0.299367
N27   N     N_R   0.771025 0.119171 0.370111 0.264398
O137  O     O_R   0.756090 0.114366 0.501371 -0.262768
O138  O     O_R   0.819116 0.088000 0.344945 -0.222189
N28   N     N_R   0.776624 0.882898 0.833364 0.271241
O139  O     O_R   0.822403 0.910116 0.784338 -0.220923
O140  O     O_R   0.766920 0.895878 0.966161 -0.222583
O141  O     O_3   0.913420 0.398153 0.331208 -0.647090
H41   H     H_    0.896858 0.436771 0.311761 0.376500
O142  O     O_3   0.917591 0.605905 0.814336 -0.673534
H42   H     H_    0.899300 0.567709 0.811953 0.382935
O143  O     O_3   0.410000 0.900015 0.340552 -0.643288
H43   H     H_    0.393670 0.937968 0.308979 0.373857
O144  O     O_3   0.409897 0.099429 0.836856 -0.654916
H44   H     H_    0.389606 0.062703 0.805294 0.375569
N29   N     N_R   0.080371 0.604949 0.872747 0.230326
O145  O     O_R   0.030076 0.609672 0.930653 -0.331077
O146  O     O_R   0.079041 0.566905 0.768566 -0.300789
N30   N     N_R   0.080199 0.395360 0.367995 0.237949
O147  O     O_R   0.030109 0.393933 0.428257 -0.276696
O148  O     O_R   0.081741 0.433918 0.265916 -0.312829
N31   N     N_R   0.578201 0.105620 0.870926 0.233366
O149  O     O_R   0.525524 0.110204 0.920268 -0.319727
O150  O     O_R   0.580801 0.065889 0.773606 -0.318261
N32   N     N_R   0.574144 0.893221 0.362874 0.242529
O151  O     O_R   0.526339 0.892213 0.429796 -0.280759
O152  O     O_R   0.574537 0.933207 0.263760 -0.327119
O153  O     O_3   0.009669 0.156596 0.770143 -0.691183
H45   H     H_    0.026132 0.117064 0.769994 0.379320
O154  O     O_3   0.039916 0.862787 0.136979 -0.626639
H46   H     H_    0.998749 0.859119 0.173331 0.386941
O155  O     O_3   0.490232 0.629262 0.648518 -0.665033
H47   H     H_    0.517480 0.596387 0.696319 0.390300
O156  O     O_3   0.526984 0.348599 0.111307 -0.624859
H48   H     H_    0.552722 0.384133 0.140383 0.396751
N33   N     N_R   0.972569 0.269049 0.203807 0.182601
O157  O     O_R   0.986297 0.299833 0.325122 -0.360495
O158  O     O_R   0.932467 0.289164 0.081823 -0.442864
N34   N     N_R   0.961035 0.721663 0.426340 0.246369
O159  O     O_R   0.912772 0.685538 0.414672 -0.341805
O160  O     O_R   0.004894 0.712552 0.348081 -0.329995
N35   N     N_R   0.464253 0.770394 0.159941 0.194793
O161  O     O_R   0.478298 0.802133 0.280119 -0.358393
O162  O     O_R   0.425611 0.791203 0.036832 -0.416226
N36   N     N_R   0.446687 0.280967 0.431372 0.208964
O163  O     O_R   0.387369 0.258891 0.398796 -0.327665
O164  O     O_R   0.458848 0.322298 0.345966 -0.284471
O165  O     O_3   0.063868 0.217904 0.334457 -0.739596
H49   H     H_    0.097667 0.189569 0.323939 0.340067
O166  O     O_3   0.954613 0.725559 0.678709 -0.819733
H50   H     H_    0.987893 0.701372 0.746599 0.359415
O167  O     O_3   0.552992 0.715178 0.292251 -0.739074
H51   H     H_    0.587164 0.687462 0.280780 0.322977
O168  O     O_3   0.464161 0.228081 0.660420 -0.840174
H52   H     H_    0.442526 0.199120 0.586260 0.331871
N37   N     N_R   0.939326 0.163896 0.993739 0.249208
O169  O     O_R   0.933590 0.115113 0.924948 -0.314439
O170  O     O_R   0.894137 0.201736 0.940819 -0.314862
N38   N     N_R   0.901543 0.818339 0.401442 0.222386
O171  O     O_R   0.905616 0.856151 0.298494 -0.333063
O172  O     O_R   0.850455 0.784425 0.381764 -0.338369
N39   N     N_R   0.438509 0.667589 0.930537 0.255021
O173  O     O_R   0.428220 0.618599 0.863059 -0.239889
O174  O     O_R   0.398730 0.708604 0.872746 -0.261737
N40   N     N_R   0.429251 0.356407 0.645453 0.237300
O175  O     O_R   0.427604 0.410161 0.677490 -0.271154
O176  O     O_R   0.376373 0.326081 0.639777 -0.375394
N41   N     N_R   0.025141 0.118630 0.179639 0.263320
O177  O     O_R   0.024071 0.082104 0.288035 -0.214974
O178  O     O_R   0.058627 0.106599 0.079352 -0.275474
N42   N     N_R   0.001456 0.859723 0.546354 0.273921
O179  O     O_R   0.001865 0.905494 0.627034 -0.208216
O180  O     O_R   0.038509 0.858464 0.449044 -0.291162
N43   N     N_R   0.514344 0.618719 0.130033 0.251254
O181  O     O_R   0.508378 0.583215 0.237296 -0.262114
O182  O     O_R   0.551380 0.604687 0.038664 -0.272858
N44   N     N_R   0.544098 0.367094 0.654981 0.277953
O183  O     O_R   0.585007 0.388228 0.774279 -0.224583
O184  O     O_R   0.538382 0.392226 0.523524 -0.232987
O185  O     O_3   0.196856 0.475480 0.411839 -0.768873
H53   H     H_    0.222166 0.504873 0.479207 0.365806
O186  O     O_3   0.191074 0.526907 0.908282 -0.768391
H54   H     H_    0.212833 0.495443 0.973899 0.378712
O187  O     O_3   0.687520 0.969377 0.395364 -0.813289
H55   H     H_    0.706395 0.000691 0.464733 0.375183
O188  O     O_3   0.694369 0.021181 0.910034 -0.690498
H56   H     H_    0.708472 0.055476 0.969206 0.244816
O189  O     O_3   0.186468 0.439332 0.171683 -0.686510
H57   H     H_    0.192023 0.400336 0.212653 0.299460
O190  O     O_3   0.183530 0.561374 0.665521 -0.673043
H58   H     H_    0.183409 0.600222 0.704013 0.308343
O191  O     O_3   0.681371 0.943540 0.144714 -0.637537
H59   H     H_    0.667329 0.907235 0.180399 0.312485
O192  O     O_3   0.684893 0.061966 0.671886 -0.700619
H60   H     H_    0.683882 0.099302 0.718629 0.295353

loop_
_geom_bond_atom_site_label_1
_geom_bond_atom_site_label_2
_geom_bond_distance
_ccdc_geom_bond_type
N28   O140  1.297061 A    
C61   C65   1.468756 A    
P1    Ba1   3.646492 S    
C40   C52   1.443410 A    
N4    O64   1.296249 A    
P6    O26   1.642780 D    
C64   C68   1.466550 A    
P3    Ba3   3.646492 S    
P2    O2    1.638381 D    
N21   O125  1.301363 A    
C63   C67   1.467418 A    
Ba1   O45   2.979081 S    
O18   C22   1.403437 S    
O3    Ba3   3.021957 S    
C15   O187  1.397039 S    
C44   C56   1.460015 A    
P9    C34   1.944336 S    
O108  H32   0.986740 S    
C77   C81   1.426115 A    
C5    N33   1.449760 S    
C80   C84   1.416173 A    
C14   C18   1.560326 S    
C26   N14   1.464178 S    
C79   C83   1.416030 A    
P4    O8    1.663413 S    
C16   O188  1.392342 S    
C13   O189  1.396327 S    
O22   P13   1.778996 S    
C47   H3    1.075706 S    
C2    O110  1.402109 S    
C38   C50   1.439182 A    
C33   C37   1.466487 A    
N12   O88   1.300685 A    
N10   O83   1.301923 A    
N33   O158  1.296766 A    
P3    C55   2.006170 S    
C38   C70   1.439203 A    
C7    C11   1.592587 S    
N5    O74   1.299769 A    
Ba2   O45   3.164486 S    
N24   O132  1.299196 A    
C80   N24   1.425309 S    
N3    O61   1.292747 A    
O98   H22   0.989068 S    
C4    O156  1.405633 S    
P8    Ba4   3.647926 S    
C96   N32   1.421167 S    
O11   P16   1.762298 S    
C9    N37   1.471458 S    
N32   O151  1.275218 A    
N29   O145  1.275647 A    
C81   C89   1.452728 A    
N26   O135  1.298031 A    
O12   Ba4   2.924461 S    
Ba4   O48   2.972102 S    
O56   H12   0.992472 S    
P2    Ba2   3.650965 S    
O52   H8    0.988210 S    
C5    O165  1.400678 S    
N25   O134  1.299271 A    
C23   O71   1.384131 S    
P8    O47   1.670490 S    
P6    O38   1.759707 S    
C77   N21   1.434069 S    
P8    O28   1.642780 D    
N20   O123  1.296312 A    
C39   C71   1.442056 A    
P8    C63   1.994535 S    
C40   C72   1.435946 A    
P11   O31   1.788055 S    
C26   O98   1.403712 S    
P12   O32   1.797586 S    
C44   C88   1.444222 A    
C24   C28   1.570564 S    
N30   O147  1.279700 A    
O41   C5    1.419354 S    
O11   Ba3   2.936929 S    
O43   C7    1.417806 S    
O9    P14   1.759857 S    
O44   C8    1.431808 S    
N18   O120  1.294963 A    
O189  H57   0.984745 S    
C41   C53   1.456598 A    
C48   C50   1.406639 A    
P3    O7    1.664111 S    
N44   O183  1.298885 A    
C28   N16   1.466133 S    
C5    C9    1.584888 S    
C31   O103  1.392391 S    
C7    N35   1.461130 S    
N35   O161  1.292664 A    
C82   C86   1.427656 A    
N29   O146  1.295919 A    
C4    O108  1.408327 S    
C35   C39   1.463670 A    
C2    O106  1.405857 S    
O191  H59   0.979333 S    
O165  H49   0.988996 S    
P9    O41   1.794968 S    
N15   O93   1.298440 A    
N41   O178  1.295418 A    
P11   O35   1.543606 D    
N27   O138  1.301385 A    
C25   O97   1.399477 S    
O155  H47   0.992912 S    
P12   O44   1.779500 S    
O156  H48   0.992687 S    
C41   C85   1.445082 A    
O187  H55   0.986412 S    
N1    O57   1.295069 A    
C24   O72   1.388621 S    
P11   C36   1.949646 S    
N19   O122  1.296838 A    
O97   H21   0.989825 S    
C6    N34   1.452552 S    
C8    C12   1.572507 S    
N6    O76   1.292815 A    
P4    Ba4   3.650965 S    
O103  H27   0.985432 S    
C59   O143  1.356547 S    
N1    O58   1.298094 A    
N7    O78   1.301308 A    
N36   O163  1.299448 A    
O186  H54   0.985629 S    
C12   N40   1.460818 S    
C56   C60   1.423861 A    
N2    O60   1.296473 A    
O101  H25   0.990147 S    
C67   C71   1.448053 A    
C69   C87   1.476806 A    
C21   N5    1.471169 S    
N42   O179  1.301720 A    
C9    N41   1.465161 S    
P7    O27   1.638244 D    
C42   C46   1.388418 A    
O10   P13   1.793138 S    
Ba3   O47   2.979081 S    
C58   C90   1.404317 A    
N22   O128  1.300713 A    
C34   C94   1.426881 A    
P10   O42   1.768937 S    
O111  H35   0.992278 S    
N38   O172  1.301419 A    
N17   O117  1.297606 A    
C28   O100  1.402567 S    
C1    O109  1.401256 S    
C6    C10   1.592582 S    
C83   C87   1.432270 A    
C51   N19   1.420059 S    
C84   C88   1.431620 A    
C60   O144  1.359448 S    
C83   C91   1.451994 A    
C4    C32   1.560838 S    
C19   N3    1.447901 S    
P2    O18   1.783994 S    
C12   O116  1.388507 S    
C23   N7    1.469851 S    
C12   N44   1.461162 S    
N34   O160  1.293790 A    
O71   H19   0.982627 S    
C57   C89   1.418161 A    
N8    O80   1.291406 A    
P14   C89   1.927248 S    
C4    O112  1.396334 S    
C20   N4    1.465715 S    
O21   C29   1.406485 S    
N27   O137  1.295467 A    
C25   N9    1.468627 S    
C15   O191  1.396392 S    
C44   C48   1.385335 A    
N7    O77   1.293666 A    
N16   O95   1.298159 A    
C53   C57   1.416681 A    
C49   N17   1.409499 S    
C93   N29   1.418775 S    
C82   C90   1.454340 A    
C17   N1    1.450230 S    
O106  H30   0.989339 S    
C2    C30   1.550297 S    
O67   H15   0.991062 S    
P6    O45   1.670490 S    
N19   O121  1.294491 A    
C16   O192  1.397621 S    
C10   N38   1.449554 S    
O185  H53   0.985821 S    
P12   C35   1.937193 S    
P5    Ba1   3.652529 S    
C66   C74   1.410710 A    
P7    Ba3   3.652529 S    
N14   O91   1.296607 A    
N9    O82   1.298853 A    
N28   O139  1.302377 A    
C10   N42   1.466709 S    
C10   O114  1.404809 S    
O23   C31   1.409555 S    
P1    C53   1.986843 S    
P10   O30   1.816972 S    
O51   H7    0.992218 S    
O66   H14   0.991708 S    
O114  H38   0.983910 S    
O14   P13   1.540983 D    
C63   C95   1.424013 A    
O29   Ba1   2.925124 S    
C3    O155  1.405008 S    
C72   C86   1.477413 A    
C21   C25   1.574337 S    
O102  H26   0.988158 S    
C19   O55   1.410426 S    
C30   O102  1.383218 S    
O42   C6    1.413202 S    
C23   C27   1.585797 S    
N40   O175  1.302093 A    
C1    O105  1.402334 S    
C95   N31   1.420705 S    
O110  H34   0.992748 S    
O50   H6    0.990148 S    
C50   N18   1.421765 S    
N10   O84   1.299682 A    
N33   O157  1.287730 A    
C19   O67   1.403495 S    
C20   O68   1.405137 S    
N39   O173  1.299752 A    
N5    O73   1.293033 A    
Ba2   O46   2.972102 S    
C35   C95   1.422535 A    
O19   C23   1.407962 S    
P1    O1    1.642924 D    
C65   C73   1.404485 A    
C75   C77   1.406629 A    
P10   C33   1.924816 S    
P3    O3    1.642924 D    
N37   O170  1.297395 A    
P4    O20   1.775699 S    
N32   O152  1.295593 A    
O168  H52   0.985703 S    
O8    Ba3   2.973372 S    
N26   O136  1.294822 A    
O49   H5    0.987664 S    
C43   C87   1.443043 A    
C45   C51   1.404244 A    
P5    C62   2.008799 S    
C18   O54   1.406935 S    
O188  H56   0.974699 S    
C2    O154  1.408643 S    
C47   C49   1.401660 A    
C11   N39   1.462861 S    
C78   N22   1.406701 S    
O112  H36   0.989203 S    
C62   C94   1.425020 A    
C13   C17   1.557948 S    
C3    C31   1.554780 S    
C20   O56   1.406203 S    
C42   C86   1.440175 A    
P4    O4    1.638381 D    
P7    O48   1.669767 S    
P2    C54   1.968727 S    
N4    O63   1.299046 A    
O21   P14   1.768072 S    
O107  H31   0.991325 S    
C37   C49   1.432013 A    
O23   P16   1.767826 S    
N20   O124  1.294976 A    
O37   C14   1.386521 S    
C39   C51   1.436207 A    
C11   N43   1.467944 S    
C18   N2    1.455040 S    
N21   O126  1.293561 A    
Ba1   O46   3.161417 S    
C43   C55   1.455100 A    
O70   H18   0.987563 S    
O28   Ba4   3.024327 S    
P1    O5    1.664111 S    
N30   O148  1.294669 A    
C66   C70   1.452031 A    
O154  H46   0.986119 S    
O30   Ba2   2.937617 S    
C22   C26   1.584112 S    
N23   O129  1.298132 A    
O144  H44   0.973875 S    
C60   C92   1.420275 A    
O115  H39   0.991644 S    
P8    O40   1.740310 S    
C61   C93   1.416093 A    
P9    O33   1.543335 D    
N31   O149  1.276368 A    
C31   O51   1.407905 S    
C32   O104  1.401284 S    
C59   C91   1.431000 A    
O40   C15   1.371491 S    
P11   O43   1.786534 S    
C1    O153  1.394402 S    
N11   O86   1.295919 A    
C33   C93   1.414231 A    
C14   O186  1.391836 S    
N44   O184  1.300908 A    
C22   N6    1.475219 S    
O9    Ba1   2.936929 S    
N12   O87   1.301802 A    
C36   C40   1.463555 A    
N41   O177  1.301980 A    
C65   C69   1.443500 A    
N24   O131  1.293914 A    
C55   C59   1.428080 A    
C57   O141  1.357939 S    
C68   C72   1.454387 A    
C76   C78   1.398956 A    
C28   N12   1.468390 S    
P5    O25   1.638244 D    
Ba4   O47   3.164486 S    
O142  H42   0.973216 S    
C8    O168  1.411342 S    
P15   C92   1.943718 S    
C42   C54   1.461047 A    
O25   Ba1   3.029291 S    
N25   O133  1.294028 A    
O99   H23   0.988557 S    
O38   C13   1.385719 S    
N36   O164  1.298377 A    
P13   C90   1.929339 S    
C46   H2    1.076299 S    
C25   N13   1.470097 S    
O5    Ba2   2.980375 S    
C81   C85   1.433610 A    
O141  H41   0.972991 S    
O2    Ba2   3.026853 S    
O7    Ba4   2.980375 S    
O54   H10   0.993465 S    
C27   O99   1.403419 S    
C18   O66   1.404874 S    
N42   O180  1.295174 A    
O53   H9    0.992707 S    
O192  H60   0.979108 S    
C9    O113  1.406546 S    
P5    O46   1.669767 S    
C46   C52   1.410225 A    
O68   H16   0.989573 S    
P1    O17   1.776979 S    
P9    O29   1.817157 S    
C26   N10   1.475648 S    
O143  H43   0.973241 S    
P3    O19   1.779931 S    
O166  H50   0.984989 S    
O31   Ba3   2.925124 S    
C16   C20   1.559620 S    
C68   C76   1.398954 A    
N3    O62   1.297440 A    
C29   O101  1.396156 S    
N43   O181  1.302179 A    
O69   H17   0.982186 S    
P4    C56   1.993762 S    
C94   N30   1.421590 S    
O24   P15   1.768285 S    
N18   O119  1.295724 A    
C37   C69   1.434813 A    
N39   O174  1.294708 A    
C45   H1    1.075204 S    
O27   Ba3   3.029291 S    
O55   H11   0.993296 S    
C29   O49   1.397939 S    
C14   O190  1.397330 S    
O72   H20   0.990527 S    
C73   N25   1.413730 S    
N15   O94   1.301140 A    
C17   O65   1.404150 S    
C3    O107  1.406364 S    
O190  H58   0.980120 S    
C8    N36   1.471604 S    
O105  H29   0.991247 S    
O39   C16   1.375720 S    
Ba1   Ba2   4.937079 S    
C17   O53   1.402635 S    
O24   C32   1.431252 S    
O65   H13   0.993242 S    
C32   O52   1.401318 S    
C76   N28   1.417255 S    
C22   O70   1.386674 S    
O6    Ba1   2.973372 S    
C71   C85   1.475129 A    
P5    O37   1.757461 S    
N16   O96   1.298577 A    
P7    O39   1.753519 S    
C7    O167  1.403947 S    
N6    O75   1.299849 A    
C64   C96   1.436364 A    
P6    C61   1.983475 S    
O113  H37   0.989370 S    
P12   O36   1.544781 D    
N43   O182  1.295515 A    
C58   O142  1.351116 S    
C75   N27   1.417589 S    
N2    O59   1.293988 A    
N23   O130  1.293696 A    
C36   C96   1.443767 A    
C27   N15   1.474966 S    
N14   O92   1.300961 A    
N9    O81   1.302393 A    
N35   O162  1.297022 A    
C52   N20   1.427350 S    
Ba3   O48   3.161417 S    
C73   C79   1.406687 A    
O22   C30   1.419689 S    
C74   C80   1.407139 A    
C30   O50   1.395593 S    
C67   C75   1.412747 A    
N22   O127  1.285036 A    
N31   O150  1.295083 A    
O16   P15   1.546902 D    
O17   C21   1.407270 S    
O26   Ba2   3.024327 S    
N13   O90   1.299586 A    
O116  H40   0.988051 S    
C48   H4    1.076850 S    
C13   O185  1.394219 S    
O100  H24   0.992514 S    
P2    O6    1.663413 S    
N38   O171  1.299305 A    
C21   O69   1.385956 S    
O167  H51   0.987239 S    
O12   P15   1.745183 S    
N40   O176  1.295659 A    
C6    O166  1.405174 S    
C70   C88   1.480579 A    
P7    C64   2.039687 S    
C62   C66   1.475764 A    
P10   O34   1.550554 D    
C41   C45   1.382241 A    
C79   N23   1.424038 S    
P16   C91   1.964000 S    
C1    C29   1.552046 S    
O32   Ba4   2.937617 S    
O104  H28   0.980775 S    
O20   C24   1.402119 S    
C11   O115  1.404184 S    
N37   O169  1.299523 A    
P6    Ba2   3.647926 S    
C15   C19   1.534595 S    
C24   N8    1.473192 S    
C27   N11   1.468749 S    
C74   N26   1.414125 S    
N34   O159  1.295324 A    
N17   O118  1.294688 A    
C34   C38   1.466796 A    
O10   Ba2   2.924461 S    
N8    O79   1.299929 A    
C3    O111  1.401702 S    
Ba3   Ba4   4.937079 S    
C84   C92   1.452216 A    
C78   C82   1.410401 A    
N11   O85   1.301691 A    
O4    Ba4   3.026853 S    
C43   C47   1.382104 A    
O13   P14   1.550455 D    
O153  H45   0.992356 S    
N13   O89   1.299780 A    
O1    Ba1   3.021957 S    
C54   C58   1.403752 A    
O15   P16   1.541713 D    
O109  H33   0.992850 S    
