data_mof_unit_12244.cif
_audit_creation_date              2012-12-11T15:39:13-0500
_audit_creation_method            fapswitch 2.2
_symmetry_space_group_name_H-M    P1
_symmetry_Int_Tables_number       1
_space_group_crystal_system       triclinic
_cell_length_a                    14.351929
_cell_length_b                    14.793656
_cell_length_c                    33.186441
_cell_angle_alpha                 97.595429
_cell_angle_beta                  90.338563
_cell_angle_gamma                 118.918983
_cell_volume                      6093.50608649

loop_
_atom_site_label
_atom_site_type_symbol
_atom_type_description
_atom_site_fract_x
_atom_site_fract_y
_atom_site_fract_z
_atom_type_partial_charge
C1    C     C_R   0.616954 0.910265 0.437034 0.543605
C2    C     C_R   0.712398 0.438083 0.949147 0.532943
C3    C     C_R   0.754154 0.819651 0.765706 -0.115135
C4    C     C_R   0.746891 0.840682 0.726609 -0.115014
C5    C     C_R   0.686049 0.759342 0.694723 0.032797
C6    C     C_R   0.632942 0.655738 0.702932 -0.111945
C7    C     C_R   0.640144 0.634547 0.742450 -0.110877
C8    C     C_R   0.700978 0.716647 0.774158 0.032817
C9    C     C_R   0.571046 0.734927 0.632814 -0.119590
C10   C     C_R   0.553615 0.771142 0.598339 -0.126888
C11   C     C_R   0.739303 0.905837 0.604727 -0.128693
C12   C     C_R   0.743503 0.716476 0.945933 0.567156
C13   C     C_R   0.829970 0.440667 0.165319 -0.119293
C14   C     C_R   0.827805 0.453531 0.124508 -0.125498
C15   C     C_R   0.781721 0.357010 0.246762 -0.114698
C16   C     C_R   0.774626 0.344459 0.287695 -0.111907
C17   C     C_R   0.733837 0.396543 0.314275 0.031163
C18   C     C_R   0.706117 0.465973 0.299791 -0.115555
C19   C     C_R   0.712682 0.478043 0.258839 -0.113414
C20   C     C_R   0.747481 0.421224 0.231847 0.030191
C21   C     C_R   0.742643 0.425229 0.187923 0.031904
C22   C     C_R   0.607448 0.346615 0.368693 -0.118305
C23   C     C_R   0.594096 0.205665 0.456667 0.544251
C24   C     C_R   0.572856 0.299556 0.403348 -0.126223
C25   C     C_R   0.740966 0.300700 0.413168 -0.126799
C26   C     C_R   0.775646 0.348053 0.378565 -0.121658
C27   C     C_R   0.707557 0.367703 0.355188 0.032985
C28   C     C_R   0.637672 0.272430 0.424927 0.022033
C29   C     C_R   0.244666 0.878060 0.393428 0.020212
C30   C     C_R   0.232347 0.959263 0.380870 -0.127747
C31   C     C_R   0.208273 0.956902 0.339773 -0.114961
C32   C     C_R   0.757004 0.868846 0.638974 -0.119167
C33   C     C_R   0.195566 0.873206 0.310846 0.040488
C34   C     C_R   0.200717 0.788915 0.323351 -0.112861
C35   C     C_R   0.295602 0.892799 0.434404 0.541895
C36   C     C_R   0.224887 0.791086 0.364420 -0.128020
C37   C     C_R   0.195330 0.807645 0.163255 -0.112509
C38   C     C_R   0.167510 0.786284 0.121376 -0.125569
C39   C     C_R   0.089831 0.900588 0.129671 -0.128541
C40   C     C_R   0.117243 0.921378 0.171670 -0.114508
C41   C     C_R   0.166534 0.871891 0.188620 0.039679
C42   C     C_1   0.177402 0.877237 0.232024 -0.030161
C43   C     C_R   0.672176 0.785334 0.654233 0.033349
C44   C     C_1   0.184846 0.876677 0.268121 -0.030015
C45   C     C_R   0.110272 0.828894 0.104424 0.020213
C46   C     C_R   0.637642 0.878486 0.395552 0.020379
C47   C     C_R   0.613899 0.904765 0.551556 0.543449
C48   C     C_R   0.552984 0.799763 0.368519 -0.130370
C49   C     C_R   0.565327 0.787407 0.326819 -0.117403
C50   C     C_R   0.662401 0.852885 0.311889 0.038707
C51   C     C_R   0.749322 0.926058 0.338825 -0.114382
C52   C     C_R   0.737201 0.938724 0.380501 -0.125974
C53   C     C_R   0.778689 0.919886 0.174749 -0.115380
C54   C     C_R   0.636752 0.859033 0.584715 0.019363
C55   C     C_R   0.793702 0.906957 0.133296 -0.128951
C56   C     C_R   0.618720 0.752301 0.121609 -0.125621
C57   C     C_R   0.603824 0.765597 0.162977 -0.114989
C58   C     C_R   0.685307 0.847106 0.189733 0.039950
C59   C     C_R   0.589812 0.199650 0.570817 0.541542
C60   C     C_1   0.676953 0.850055 0.232775 -0.033187
C61   C     C_1   0.670454 0.850736 0.268856 -0.033519
C62   C     C_R   0.715657 0.820319 0.106682 0.021833
C63   C     C_R   0.624051 0.251986 0.613478 0.019862
C64   C     C_R   0.560007 0.284993 0.635835 -0.129311
C65   C     C_R   0.052091 0.781295 0.063793 0.544347
C66   C     C_R   0.577721 0.311333 0.678190 -0.116607
C67   C     C_R   0.659618 0.305253 0.698540 0.041405
C68   C     C_R   0.728522 0.279938 0.676373 -0.114365
C69   C     C_R   0.711229 0.253871 0.634003 -0.129474
C70   C     C_R   0.764359 0.349280 0.844638 -0.115980
C71   C     C_R   0.288866 0.886705 0.548439 0.544495
C72   C     C_R   0.773110 0.373515 0.887058 -0.129256
C73   C     C_R   0.594486 0.352123 0.884606 -0.126137
C74   C     C_R   0.585970 0.327846 0.842198 -0.113341
C75   C     C_R   0.672333 0.330192 0.822160 0.042188
C76   C     C_R   0.743987 0.486897 0.066239 0.546255
C77   C     C_1   0.669581 0.321399 0.778618 -0.031632
C78   C     C_1   0.666489 0.315340 0.742125 -0.032315
C79   C     C_R   0.690116 0.379985 0.907335 0.021598
C80   C     C_R   0.064024 0.751036 0.907515 0.021731
C81   C     C_R   0.101937 0.849590 0.895562 -0.143064
C82   C     C_R   0.117384 0.860983 0.854734 -0.127973
C83   C     C_R   0.738006 0.450639 0.105816 0.020800
C84   C     C_R   0.095182 0.773943 0.825485 0.031238
C85   C     C_R   0.064009 0.677003 0.838001 -0.117846
C86   C     C_R   0.049210 0.665782 0.878739 -0.120256
C87   C     C_R   0.742954 0.789225 0.066407 0.553232
C88   C     C_R   0.142814 0.730653 0.756465 -0.113363
C89   C     C_R   0.146913 0.737656 0.715149 -0.111276
C90   C     C_R   0.108199 0.796562 0.698363 0.032941
C91   C     C_R   0.063515 0.846966 0.723468 -0.109630
C92   C     C_R   0.059713 0.840201 0.764958 -0.109976
C93   C     C_R   0.100011 0.782481 0.781798 0.032978
C94   C     C_R   0.174370 0.917505 0.647197 -0.120906
C95   C     C_R   0.648057 0.428054 0.127860 -0.124041
C96   C     C_R   0.219996 0.939981 0.610398 -0.129279
C97   C     C_R   0.163239 0.756362 0.589302 -0.128069
C98   C     C_R   0.021451 0.732008 0.947350 0.532032
C99   C     C_R   0.116864 0.733825 0.625919 -0.121930
C100  C     C_R   0.127555 0.815048 0.656021 0.032233
C101  C     C_R   0.219844 0.860284 0.582238 0.022067
C102  C     C_R   0.728164 0.701586 0.901122 0.016717
C103  C     C_R   0.629362 0.635857 0.878619 -0.124414
C104  C     C_R   0.620290 0.634949 0.836313 -0.116025
C105  C     C_R   0.710276 0.698402 0.816416 0.032565
C106  C     C_R   0.809820 0.755902 0.838702 -0.114598
C107  C     C_R   0.650569 0.415834 0.168604 -0.120010
C108  C     C_R   0.818225 0.758519 0.880436 -0.123103
Cr1   Cr    Cr6+3 0.424820 0.846020 0.489780 1.008638
Cr2   Cr    Cr6+3 0.657880 0.078580 0.505700 1.008062
Cr3   Cr    Cr6+3 0.417280 0.075360 0.504550 1.008471
Cr4   Cr    Cr6+3 0.903360 0.812540 0.006510 1.004196
Cr5   Cr    Cr6+3 0.914630 0.587050 0.006280 1.004634
Cr6   Cr    Cr6+3 0.673560 0.582680 0.008540 1.009425
H1    H     H_    0.577508 0.424830 0.114274 0.129212
H2    H     H_    0.094576 0.971210 0.191106 0.105475
H3    H     H_    0.044945 0.933841 0.117603 0.124063
H4    H     H_    0.898410 0.471022 0.108295 0.128140
H5    H     H_    0.204043 0.022326 0.330377 0.105396
H6    H     H_    0.869377 0.960225 0.122747 0.120514
H7    H     H_    0.842079 0.983357 0.195368 0.103694
H8    H     H_    0.824930 0.976639 0.327442 0.105993
H9    H     H_    0.803906 0.999801 0.400561 0.125785
H10   H     H_    0.475239 0.752461 0.379122 0.125372
H11   H     H_    0.531122 0.709194 0.174385 0.104078
H12   H     H_    0.493020 0.279008 0.411784 0.126010
H13   H     H_    0.557120 0.685021 0.101808 0.121325
H14   H     H_    0.497767 0.730265 0.306073 0.104627
H15   H     H_    0.847907 0.394768 0.903581 0.123617
H16   H     H_    0.853844 0.365183 0.369076 0.102065
H17   H     H_    0.831442 0.350819 0.829298 0.103079
H18   H     H_    0.792350 0.275399 0.691958 0.105585
H19   H     H_    0.761998 0.228855 0.617706 0.126796
H20   H     H_    0.492492 0.284674 0.620932 0.123498
H21   H     H_    0.514223 0.312691 0.824942 0.103819
H22   H     H_    0.529269 0.356696 0.899189 0.126434
H23   H     H_    0.901543 0.447600 0.179713 0.104161
H24   H     H_    0.524357 0.331439 0.695194 0.099645
H25   H     H_    0.113937 0.916326 0.917370 0.116617
H26   H     H_    0.018703 0.588617 0.887103 0.124302
H27   H     H_    0.078968 0.653896 0.631850 0.105254
H28   H     H_    0.795108 0.289278 0.297940 0.104507
H29   H     H_    0.184594 0.700508 0.696662 0.103514
H30   H     H_    0.175770 0.686942 0.768802 0.101661
H31   H     H_    0.143626 0.936988 0.845842 0.104563
H32   H     H_    0.033186 0.892771 0.711110 0.099022
H33   H     H_    0.025451 0.880207 0.783787 0.090317
H34   H     H_    0.793249 0.281960 0.429583 0.123271
H35   H     H_    0.183913 0.981537 0.670008 0.102116
H36   H     H_    0.262512 0.020720 0.605480 0.126573
H37   H     H_    0.045513 0.608472 0.816007 0.102711
H38   H     H_    0.160108 0.693287 0.567587 0.124602
H39   H     H_    0.558957 0.589597 0.893813 0.122190
H40   H     H_    0.808628 0.312448 0.226364 0.103856
H41   H     H_    0.895303 0.808755 0.896933 0.138023
H42   H     H_    0.836473 0.907868 0.654348 0.100160
H43   H     H_    0.786093 0.921461 0.721746 0.099929
H44   H     H_    0.799660 0.884845 0.789722 0.101932
H45   H     H_    0.184272 0.730813 0.102710 0.124058
H46   H     H_    0.542512 0.589396 0.819663 0.101513
H47   H     H_    0.585736 0.591335 0.678878 0.100392
H48   H     H_    0.598995 0.554451 0.748182 0.101433
H49   H     H_    0.503857 0.671204 0.643952 0.101103
H50   H     H_    0.473578 0.733123 0.583520 0.129018
H51   H     H_    0.880785 0.803405 0.824132 0.106499
H52   H     H_    0.581365 0.401397 0.185350 0.105752
H53   H     H_    0.805183 0.972733 0.594604 0.123702
H54   H     H_    0.675991 0.508130 0.319842 0.105935
H55   H     H_    0.688140 0.529848 0.247985 0.109560
H56   H     H_    0.233747 0.769195 0.176116 0.107126
H57   H     H_    0.552869 0.359990 0.351000 0.103311
H58   H     H_    0.190613 0.723565 0.301126 0.106356
H59   H     H_    0.234134 0.727563 0.373004 0.123219
H60   H     H_    0.247219 0.027461 0.402388 0.123839
O1    O     O_R   0.318160 0.824460 0.443680 -0.521702
O2    O     O_R   0.668160 0.499860 0.053480 -0.517065
O3    O     O_R   0.689170 0.693840 0.050110 -0.495031
O4    O     O_R   0.525040 0.857250 0.449830 -0.502676
O5    O     O_R   0.803860 0.812940 0.962540 -0.510766
O6    O     O_R   0.982950 0.787950 0.964120 -0.527497
O7    O     O_R   0.007050 0.649970 0.960540 -0.516703
O8    O     O_R   0.807910 0.482370 0.965590 -0.504604
O9    O     O_R   0.643310 0.460980 0.963840 -0.526000
O10   O     O_R   0.666140 0.657800 0.967020 -0.499452
O11   O     O_3   0.830520 0.660760 0.007110 -0.261130
O12   O     O_R   0.645130 0.163230 0.552140 -0.502489
O13   O     O_R   0.684760 0.998800 0.456360 -0.518502
O14   O     O_R   0.647540 0.166310 0.470260 -0.501604
O15   O     O_R   0.500960 0.181750 0.467450 -0.520130
O16   O     O_R   0.331100 0.981120 0.457080 -0.501386
O17   O     O_R   0.315560 0.821140 0.532010 -0.520426
O18   O     O_R   0.522630 0.854180 0.531710 -0.501242
O19   O     O_R   0.682160 0.995480 0.544690 -0.519313
O20   O     O_R   0.498360 0.178430 0.555780 -0.520081
O21   O     O_R   0.328690 0.978040 0.538950 -0.501730
O22   O     O_3   0.499990 0.999990 0.500010 -0.233128
O23   O     O_R   0.828710 0.851830 0.052170 -0.515304
O24   O     O_R   0.005980 0.823990 0.047210 -0.500980
O25   O     O_R   0.031900 0.688850 0.050170 -0.514692
O26   O     O_R   0.830940 0.518420 0.048680 -0.498198

loop_
_geom_bond_atom_site_label_1
_geom_bond_atom_site_label_2
_ccdc_geom_bond_type
C24   H12   S    
C41   C42   S    
C73   C74   A    
C19   C20   A    
C23   O15   A    
C8    C105  S    
C81   C82   A    
C90   C91   A    
C72   H15   S    
C12   O10   A    
C77   C78   T    
C25   C28   A    
C29   C36   A    
Cr2   O14   S    
C26   C27   A    
C37   C38   A    
Cr6   O11   S    
C59   O12   A    
C5    C6    A    
Cr4   O11   S    
C38   H45   S    
C72   C79   A    
C85   C86   A    
C30   C31   A    
C52   H9    S    
C1    C46   S    
Cr1   O18   S    
C58   C60   S    
C15   C16   A    
C55   C62   A    
C46   C52   A    
C56   C57   A    
Cr1   O22   S    
C68   H18   S    
C18   C19   A    
C2    O8    A    
C56   H13   S    
Cr4   O24   S    
C47   O18   A    
C9    H49   S    
C92   C93   A    
C38   C45   A    
C80   C86   A    
C2    C79   S    
C103  C104  A    
C65   O25   A    
Cr1   O4    S    
Cr5   O26   S    
Cr5   O7    S    
C63   C69   A    
C95   H1    S    
C16   C17   A    
C15   H40   S    
C3    H44   S    
C10   H50   S    
C73   H22   S    
C102  C108  A    
C25   H34   S    
C9    C10   A    
C22   H57   S    
C26   H16   S    
C86   H26   S    
Cr3   O22   S    
Cr4   O6    S    
C56   C62   A    
Cr6   O2    S    
C66   C67   A    
C71   C101  S    
C107  H52   S    
C96   H36   S    
C36   H59   S    
C32   H42   S    
C13   C14   A    
C92   H33   S    
C11   H53   S    
C67   C78   S    
C42   C44   T    
C14   C83   A    
C104  H46   S    
C76   C83   S    
C90   C100  S    
C104  C105  A    
C97   C99   A    
C99   H27   S    
C17   C18   A    
C46   C48   A    
C55   H6    S    
C53   C55   A    
C59   O20   A    
Cr5   O25   S    
C15   C20   A    
C7    H48   S    
C64   H20   S    
Cr2   O13   S    
C9    C43   A    
C74   C75   A    
C67   C68   A    
C17   C27   S    
C106  H51   S    
C24   C28   A    
C7    C8    A    
C76   O2    A    
C96   C101  A    
C84   C85   A    
C3    C8    A    
C76   O26   A    
C91   C92   A    
C18   H54   S    
C68   C69   A    
C14   H4    S    
C25   C26   A    
C39   H3    S    
C51   C52   A    
C60   C61   T    
C94   H35   S    
C13   H23   S    
C16   H28   S    
C85   H37   S    
C12   C102  S    
C29   C30   A    
C87   O3    A    
C1    O4    A    
C71   O21   A    
C4    H43   S    
C66   H24   S    
C6    H47   S    
C94   C100  A    
C1    O13   A    
Cr6   O3    S    
C83   C95   A    
C74   H21   S    
C20   C21   S    
Cr2   O19   S    
C31   C33   A    
C33   C34   A    
C73   C79   A    
C13   C21   A    
C50   C51   A    
C21   C107  A    
C23   C28   S    
C65   O24   A    
C94   C96   A    
C75   C77   S    
Cr2   O12   S    
Cr5   O11   S    
C11   C54   A    
C95   C107  A    
C47   C54   S    
C23   O14   A    
C40   C41   A    
C11   C32   A    
Cr3   O15   S    
C35   O16   A    
C82   C84   A    
C22   C27   A    
Cr4   O5    S    
C45   C65   S    
C22   C24   A    
C87   O23   A    
C98   O6    A    
C3    C4    A    
Cr5   O8    S    
Cr4   O23   S    
C37   H56   S    
C82   H31   S    
C34   H58   S    
C105  C106  A    
C81   H25   S    
C49   H14   S    
C88   C93   A    
C48   C49   A    
C69   H19   S    
C80   C98   S    
C33   C44   S    
C50   C61   S    
C47   O19   A    
C19   H55   S    
C80   C81   A    
C48   H10   S    
C70   C72   A    
C53   C58   A    
Cr1   O1    S    
C6    C7    A    
C62   C87   S    
C29   C35   S    
C59   C63   S    
C84   C93   S    
C99   C100  A    
C39   C45   A    
C35   O1    A    
C98   O7    A    
C89   H29   S    
C57   H11   S    
C103  H39   S    
C57   C58   A    
C40   H2    S    
C108  H41   S    
C106  C108  A    
Cr1   O17   S    
Cr6   O10   S    
C70   H17   S    
C32   C43   A    
C30   H60   S    
Cr2   O22   S    
C34   C36   A    
C2    O9    A    
C37   C41   A    
C102  C103  A    
C10   C54   A    
Cr3   O20   S    
C63   C64   A    
C39   C40   A    
C4    C5    A    
C12   O5    A    
C88   C89   A    
Cr3   O16   S    
C49   C50   A    
Cr3   O21   S    
C70   C75   A    
C51   H8    S    
C5    C43   S    
C97   H38   S    
C53   H7    S    
C71   O17   A    
C89   C90   A    
C31   H5    S    
C88   H30   S    
C91   H32   S    
C97   C101  A    
Cr6   O9    S    
C64   C66   A    
