data_mof_unit_67182.cif
_audit_creation_date              2012-12-11T17:48:55-0500
_audit_creation_method            fapswitch 2.2
_symmetry_space_group_name_H-M    P1
_symmetry_Int_Tables_number       1
_space_group_crystal_system       triclinic
_cell_length_a                    8.160225
_cell_length_b                    12.679175
_cell_length_c                    14.928803
_cell_angle_alpha                 96.737251
_cell_angle_beta                  97.70746
_cell_angle_gamma                 98.491231
_cell_volume                      1498.98606638

loop_
_atom_site_label
_atom_site_type_symbol
_atom_type_description
_atom_site_fract_x
_atom_site_fract_y
_atom_site_fract_z
_atom_type_partial_charge
Ba1   Ba    Ba6+2 0.843750 0.550210 0.455600 1.641209
Ba2   Ba    Ba6+2 0.346090 0.449880 0.544410 1.630640
C1    C     C_3   0.596898 0.939438 0.221346 -0.385300
C2    C     C_R   0.895549 0.438882 0.922527 -0.032341
C3    C     C_R   0.038796 0.453228 0.109420 -0.022037
C4    C     C_3   0.117757 0.839678 0.210018 0.300336
C5    C     C_R   0.877447 0.395310 0.076096 -0.047544
C6    C     C_R   0.806182 0.390132 0.985230 -0.107489
C7    C     C_R   0.109029 0.465081 0.203509 0.051502
C8    C     C_R   0.272728 0.519814 0.231232 -0.291746
C9    C     C_R   0.083482 0.532495 0.796188 0.036055
C10   C     C_R   0.154571 0.543142 0.890069 -0.034753
C11   C     C_R   0.061112 0.494207 0.952881 0.007409
C12   C     C_3   0.597031 0.830821 0.255323 0.363515
C13   C     C_R   0.317281 0.598938 0.923025 -0.037874
C14   C     C_R   0.390896 0.600244 0.012931 -0.108256
C15   C     C_R   0.300163 0.553911 0.076229 -0.042102
C16   C     C_3   0.010754 0.812098 0.114919 -0.199222
C17   C     C_R   0.133040 0.501009 0.046395 0.010135
C18   C     C_R   0.370403 0.560824 0.168945 -0.007788
C19   C     C_R   0.922431 0.474149 0.767820 -0.298906
C20   C     C_R   0.776600 0.180361 0.533907 -0.277927
C21   C     C_R   0.423964 0.808580 0.460030 -0.274904
C22   C     C_R   0.391845 0.986553 0.428373 -0.111500
C23   C     C_3   0.413507 0.283975 0.265043 0.305310
C24   C     C_R   0.326383 0.878238 0.422189 -0.030192
C25   C     C_R   0.582042 0.847754 0.511516 0.058895
C26   C     C_R   0.649593 0.959344 0.520637 -0.058958
C27   C     C_R   0.552985 0.028857 0.476766 -0.052486
C28   C     C_3   0.266115 0.778088 0.649538 0.293084
C29   C     C_R   0.618059 0.139588 0.484413 0.041622
C30   C     C_R   0.875486 0.112981 0.574213 -0.008546
C31   C     C_R   0.810298 0.003794 0.570779 -0.097165
C32   C     C_3   0.304037 0.900058 0.669289 -0.377201
C33   C     C_3   0.937730 0.214807 0.346841 0.275591
C34   C     C_3   0.369011 0.250368 0.162299 -0.400556
C35   C     C_3   0.999297 0.107836 0.334583 -0.346875
C36   C     C_3   0.766317 0.691530 0.728355 0.312783
C37   C     C_3   0.814319 0.720949 0.831180 -0.416601
C38   C     C_R   0.095077 0.862687 0.043051 -0.000003
C39   C     C_R   0.013411 0.928657 0.988972 -0.067634
C40   C     C_R   0.088830 0.971421 0.919617 -0.070107
C41   C     C_R   0.248611 0.952665 0.906235 -0.031096
C42   C     C_R   0.331177 0.887710 0.959911 -0.047925
C43   C     C_R   0.253781 0.841922 0.027428 -0.073954
C44   C     C_3   0.135695 0.246600 0.798645 0.359837
C45   C     C_3   0.196325 0.237760 0.898262 -0.358698
C46   C     C_3   0.622409 0.169189 0.755976 0.345576
C47   C     C_3   0.694436 0.092266 0.815232 -0.420963
C48   C     C_R   0.825631 0.432012 0.829797 -0.003073
H1    H     H_    0.694395 0.840725 0.316715 0.098526
H2    H     H_    0.871083 0.660638 0.699907 0.008115
H3    H     H_    0.654328 0.627789 0.714432 0.081823
H4    H     H_    0.608865 0.004015 0.279977 0.086833
H5    H     H_    0.946677 0.761584 0.846999 0.128879
H6    H     H_    0.801749 0.647764 0.865238 0.067869
H7    H     H_    0.731435 0.774739 0.858556 0.127634
H8    H     H_    0.471908 0.804663 0.274122 -0.086298
H9    H     H_    0.478850 0.939728 0.175588 0.102308
H10   H     H_    0.300841 0.305882 0.291729 0.013888
H11   H     H_    0.515189 0.355053 0.278221 0.060900
H12   H     H_    0.419191 0.925224 0.720334 0.100522
H13   H     H_    0.264487 0.180884 0.146964 0.127657
H14   H     H_    0.329691 0.318116 0.128804 0.056384
H15   H     H_    0.479702 0.227026 0.133989 0.123137
H16   H     H_    0.701469 0.956719 0.182102 0.128850
H17   H     H_    0.217807 0.316032 0.780938 0.114889
H18   H     H_    0.005119 0.262691 0.791972 -0.065059
H19   H     H_    0.301903 0.191741 0.904077 0.158136
H20   H     H_    0.241023 0.319279 0.937240 0.089126
H21   H     H_    0.092640 0.198490 0.930015 0.077703
H22   H     H_    0.725598 0.207642 0.722929 -0.051530
H23   H     H_    0.324380 0.934787 0.606411 0.092019
H24   H     H_    0.524337 0.122529 0.701097 0.074144
H25   H     H_    0.794828 0.138007 0.869255 0.109662
H26   H     H_    0.747704 0.032012 0.772729 0.093100
H27   H     H_    0.186243 0.771344 0.220950 -0.034864
H28   H     H_    0.595494 0.049709 0.848338 0.116757
H29   H     H_    0.802871 0.353363 0.119479 0.100337
H30   H     H_    0.680249 0.346237 0.965012 0.105145
H31   H     H_    0.518658 0.641340 0.032426 0.105263
H32   H     H_    0.391764 0.641543 0.880003 0.103119
H33   H     H_    0.327059 0.527452 0.302358 0.072270
H34   H     H_    0.196776 0.931357 0.695344 0.143138
H35   H     H_    0.868308 0.465726 0.696606 0.072114
H36   H     H_    0.312515 0.036956 0.397528 0.087697
H37   H     H_    0.887875 0.955223 0.606286 0.108115
H38   H     H_    0.826224 0.265062 0.537874 0.063679
H39   H     H_    0.209584 0.914770 0.214418 0.003477
H40   H     H_    0.371265 0.724240 0.455015 0.068680
H41   H     H_    0.984120 0.723183 0.095198 0.093395
H42   H     H_    0.887738 0.839041 0.117014 0.144789
H43   H     H_    0.375020 0.747712 0.625978 0.003362
H44   H     H_    0.155606 0.755119 0.595183 0.083066
H45   H     H_    0.803956 0.199831 0.353883 -0.002179
H46   H     H_    0.889607 0.944502 0.998535 0.057665
H47   H     H_    0.022348 0.017756 0.875350 0.092680
H48   H     H_    0.307917 0.988555 0.854253 0.084494
H49   H     H_    0.454676 0.872576 0.949067 0.057221
H50   H     H_    0.318479 0.792067 0.068951 0.066709
H51   H     H_    0.010939 0.262007 0.410526 0.072901
H52   H     H_    0.919081 0.053268 0.277395 0.123375
H53   H     H_    0.997944 0.070446 0.397981 0.102760
H54   H     H_    0.127962 0.120343 0.317476 0.126408
O1    O     O_2   0.827880 0.435260 0.277750 -0.465119
O2    O     O_2   0.221583 0.120008 0.576715 -0.481251
O3    O     O_3   0.144477 0.151359 0.741810 -0.611651
O4    O     O_3   0.100280 0.438960 0.391170 -0.497314
O5    O     O_3   0.587780 0.631850 0.546230 -0.494122
O6    O     O_2   0.332590 0.233690 0.456160 -0.471481
O7    O     O_3   0.466156 0.197591 0.305117 -0.651778
O8    O     O_2   0.484303 0.439289 0.826319 -0.505398
O9    O     O_3   0.548556 0.242038 0.810082 -0.599326
O10   O     O_3   0.625580 0.634130 0.333250 -0.481557
O11   O     O_2   0.718344 0.565488 0.175759 -0.475846
O12   O     O_3   0.732910 0.783305 0.690265 -0.641284
O13   O     O_3   0.952811 0.262821 0.267833 -0.640502
O14   O     O_3   0.633937 0.756574 0.186516 -0.606894
O15   O     O_2   0.857130 0.766340 0.543890 -0.467167
O16   O     O_3   0.056550 0.691050 0.379010 -0.459941
O17   O     O_2   0.999726 0.880723 0.447837 -0.489745
O18   O     O_3   0.012041 0.857177 0.275049 -0.592226
O19   O     O_2   0.361830 0.564780 0.722310 -0.476721
O20   O     O_3   0.089430 0.561130 0.608830 -0.498024
O21   O     O_3   0.564130 0.365960 0.666760 -0.466520
O22   O     O_3   0.235336 0.737304 0.729811 -0.637557
O23   O     O_3   0.601940 0.368240 0.453770 -0.476675
O24   O     O_3   0.133170 0.309040 0.621000 -0.490370
P1    P     P_3+3 0.998730 0.403530 0.291970 0.976739
P2    P     P_3+3 0.687380 0.751030 0.571310 0.965130
P3    P     P_3+3 0.102690 0.829414 0.380542 0.952839
P4    P     P_3+3 0.190990 0.596560 0.708040 0.965374
P5    P     P_3+3 0.092919 0.171089 0.627464 0.947121
P6    P     P_3+3 0.587499 0.626597 0.215023 0.963343
P7    P     P_3+3 0.507833 0.233218 0.423849 0.931113
P8    P     P_3+3 0.606006 0.372358 0.784661 0.944241

loop_
_geom_bond_atom_site_label_1
_geom_bond_atom_site_label_2
_ccdc_geom_bond_type
C28   O22   S    
Ba2   O5    S    
O19   P4    D    
O16   P3    S    
C39   C40   A    
C41   H48   S    
C2    C6    A    
C9    P4    S    
C15   C18   A    
Ba1   O4    S    
C5    C6    A    
Ba2   O19   S    
C44   H18   S    
C20   C30   A    
C16   H41   S    
C26   C27   A    
C33   C35   S    
C46   H22   S    
C28   H43   S    
Ba1   P1    S    
C30   P5    S    
C1    H4    S    
C39   H46   S    
C36   H2    S    
C13   C14   A    
C37   H7    S    
C8    H33   S    
C32   H12   S    
O15   P2    D    
C47   H28   S    
O20   P4    S    
Ba1   Ba2   S    
Ba1   O15   S    
C21   C24   A    
C2    C11   A    
C16   C38   S    
C22   C27   A    
C45   H19   S    
Ba1   O5    S    
O2    P5    D    
C37   H5    S    
C37   H6    S    
C8    C18   A    
C14   C15   A    
C12   O14   S    
O9    P8    S    
Ba2   P4    S    
C47   H25   S    
C23   H10   S    
C21   C25   A    
C34   H13   S    
O13   P1    S    
C7    C8    A    
O14   P6    S    
Ba2   O23   S    
O6    P7    D    
C32   H34   S    
O17   P3    D    
C12   H8    S    
C19   C48   A    
C13   H32   S    
C38   C43   A    
C4    C16   S    
C19   H35   S    
C47   H26   S    
C20   C29   A    
C28   C32   S    
C46   H24   S    
C36   C37   S    
C29   P7    S    
Ba1   P2    S    
C40   H47   S    
C3    C5    A    
C11   C17   A    
C34   H15   S    
C4    H27   S    
O1    P1    D    
C32   H23   S    
C9    C19   A    
C2    C48   A    
Ba1   O16   S    
C41   C42   A    
C45   H20   S    
C3    C7    A    
C36   O12   S    
C12   H1    S    
C10   C13   A    
O22   P4    S    
C27   C29   A    
C44   O3    S    
O10   P6    S    
C21   H40   S    
C23   H11   S    
C45   H21   S    
O4    P1    S    
C1    C12   S    
O21   P8    S    
C38   C39   A    
C26   C31   A    
C20   H38   S    
C33   O13   S    
C1    H16   S    
C40   C41   A    
C4    O18   S    
O18   P3    S    
C25   C26   A    
C42   C43   A    
C5    H29   S    
C1    H9    S    
C44   C45   S    
C46   C47   S    
Ba2   O20   S    
C42   H49   S    
Ba1   O23   S    
O23   P7    S    
C33   H51   S    
C43   H50   S    
C35   H54   S    
C35   H53   S    
C9    C10   A    
C3    C17   A    
O11   P6    D    
C7    P1    S    
C4    H39   S    
Ba2   O24   S    
C16   H42   S    
C30   C31   A    
C31   H37   S    
O8    P8    D    
C44   H17   S    
C28   H44   S    
C48   P8    S    
O24   P5    S    
C22   C24   A    
O7    P7    S    
C35   H52   S    
C36   H3    S    
Ba2   O4    S    
C14   H31   S    
C15   C17   A    
Ba1   O20   S    
C23   O7    S    
C23   C34   S    
Ba2   O21   S    
O12   P2    S    
C10   C11   A    
O3    P5    S    
Ba1   O10   S    
O5    P2    S    
C6    H30   S    
C25   P2    S    
C46   O9    S    
C18   P6    S    
C34   H14   S    
C22   H36   S    
C24   P3    S    
Ba1   O1    S    
C33   H45   S    
Ba2   O6    S    
