data_mof_unit_60388.cif
_audit_creation_date              2012-12-10T16:38:31-0500
_audit_creation_method            fapswitch 2.2
_symmetry_space_group_name_H-M    P1
_symmetry_Int_Tables_number       1
_space_group_crystal_system       triclinic
_cell_length_a                    18.858034
_cell_length_b                    19.185273
_cell_length_c                    19.067054
_cell_angle_alpha                 110.071714
_cell_angle_beta                  109.291874
_cell_angle_gamma                 109.584371
_cell_volume                      5274.89250375

loop_
_atom_site_label
_atom_site_type_symbol
_atom_type_description
_atom_site_fract_x
_atom_site_fract_y
_atom_site_fract_z
_atom_type_partial_charge
C1    C     C_R   0.384765 0.883082 0.003064 0.801626
C2    C     C_R   0.615748 0.118030 0.998542 0.801036
C3    C     C_2   0.324832 0.821832 0.014465 -0.142595
C4    C     C_2   0.677564 0.188833 0.998376 -0.142083
C5    C     C_R   0.997526 0.117076 0.615424 0.844484
C6    C     C_R   0.002526 0.882901 0.384631 0.844085
C7    C     C_R   0.881275 0.997166 0.380565 0.796873
C8    C     C_R   0.118731 0.002974 0.619583 0.797095
C9    C     C_R   0.997939 0.615626 0.117325 0.862595
C10   C     C_R   0.002044 0.384347 0.882655 0.835887
C11   C     C_R   0.117343 0.612267 0.995290 0.849970
C12   C     C_R   0.882714 0.377662 0.994468 0.851173
C13   C     C_2   0.992657 0.316262 0.742450 -0.158597
C14   C     C_2   0.005479 0.682608 0.256683 -0.163387
C15   C     C_2   0.008405 0.322194 0.818741 -0.310280
C16   C     C_2   0.991748 0.677957 0.181225 -0.318039
C17   C     C_2   0.004828 0.255610 0.681728 -0.160138
C18   C     C_2   0.993446 0.743491 0.317341 -0.163318
C19   C     C_2   0.990230 0.180398 0.677108 -0.320152
C20   C     C_2   0.009995 0.819504 0.323171 -0.319904
C21   C     C_R   0.622164 0.005365 0.117591 0.847872
C22   C     C_R   0.377872 0.994678 0.882402 0.848250
C23   C     C_2   0.820553 0.999464 0.246918 -0.216248
C24   C     C_2   0.178926 0.999731 0.752832 -0.215382
C25   C     C_2   0.809360 0.986463 0.308767 -0.142989
C26   C     C_2   0.190654 0.014105 0.691793 -0.143646
C27   C     C_2   0.749710 0.988889 0.173213 -0.188323
C28   C     C_2   0.249708 0.010241 0.826564 -0.189607
C29   C     C_2   0.698202 0.019290 0.186483 -0.295899
C30   C     C_2   0.302011 0.980950 0.813474 -0.293816
C31   C     C_2   0.262879 0.684472 0.012279 -0.187381
C32   C     C_2   0.736295 0.250846 0.921809 -0.189281
C33   C     C_2   0.180426 0.667118 0.982403 -0.288872
C34   C     C_2   0.819806 0.300758 0.984877 -0.288988
C35   C     C_2   0.322844 0.747088 0.001099 -0.218538
C36   C     C_2   0.676337 0.179623 0.924312 -0.216440
Cu1   Cu    Cu3+1 0.500010 0.938980 0.938990 0.939484
Cu2   Cu    Cu3+1 0.499990 0.061020 0.061010 0.955619
Cu3   Cu    Cu3+1 0.061010 0.061020 0.499990 0.945682
Cu4   Cu    Cu3+1 0.938990 0.938980 0.500010 0.946115
Cu5   Cu    Cu3+1 0.061030 0.500010 0.061020 0.941245
Cu6   Cu    Cu3+1 0.938970 0.499990 0.938980 0.940692
H1    H     H_    0.882436 0.015646 0.248880 0.160586
H2    H     H_    0.116586 0.982206 0.750070 0.161185
H3    H     H_    0.034832 0.285651 0.838881 0.152825
H4    H     H_    0.966905 0.715642 0.161563 0.151913
H5    H     H_    0.021458 0.271040 0.637525 0.161559
H6    H     H_    0.975114 0.727396 0.360428 0.159300
H7    H     H_    0.964237 0.160728 0.714429 0.152841
H8    H     H_    0.037423 0.839561 0.286888 0.150586
H9    H     H_    0.740616 0.956855 0.109037 0.168089
H10   H     H_    0.258015 0.041140 0.890539 0.167195
H11   H     H_    0.714035 0.058889 0.252136 0.166211
H12   H     H_    0.286883 0.942262 0.747881 0.165635
H13   H     H_    0.286214 0.652872 0.043886 0.164965
H14   H     H_    0.711728 0.261874 0.868948 0.164508
H15   H     H_    0.156363 0.692574 0.943076 0.165002
H16   H     H_    0.844652 0.283002 0.031992 0.165951
H17   H     H_    0.367519 0.732443 0.983622 0.161217
H18   H     H_    0.628137 0.119555 0.863664 0.161971
H19   H     H_    0.975507 0.359591 0.726333 0.160955
H20   H     H_    0.020722 0.638038 0.272017 0.161243
O1    O     O_R   0.410990 0.859440 0.948490 -0.587178
O2    O     O_R   0.589010 0.140560 0.051510 -0.579765
O3    O     O_R   0.948450 0.589020 0.037490 -0.586342
O4    O     O_R   0.051550 0.410980 0.962510 -0.594015
O5    O     O_R   0.140550 0.589040 0.051520 -0.584743
O6    O     O_R   0.859450 0.410960 0.948480 -0.585791
O7    O     O_R   0.037480 0.589020 0.948460 -0.591773
O8    O     O_R   0.962520 0.410980 0.051540 -0.591747
O9    O     O_R   0.410980 0.962500 0.051530 -0.580320
O10   O     O_R   0.589020 0.037500 0.948470 -0.587261
O11   O     O_R   0.589050 0.948480 0.037510 -0.585884
O12   O     O_R   0.410950 0.051520 0.962490 -0.584062
O13   O     O_R   0.589030 0.051540 0.140550 -0.588171
O14   O     O_R   0.410970 0.948460 0.859450 -0.589752
O15   O     O_R   0.051510 0.140560 0.589010 -0.579104
O16   O     O_R   0.948490 0.859440 0.410990 -0.580035
O17   O     O_R   0.948470 0.037500 0.589020 -0.589791
O18   O     O_R   0.051530 0.962500 0.410980 -0.591422
O19   O     O_R   0.962480 0.051520 0.410960 -0.589368
O20   O     O_R   0.037520 0.948480 0.589040 -0.589285
O21   O     O_R   0.859440 0.948460 0.410980 -0.578142
O22   O     O_R   0.140560 0.051540 0.589020 -0.578183
O23   O     O_R   0.051520 0.589040 0.140540 -0.579071
O24   O     O_R   0.948480 0.410960 0.859460 -0.587191
C37   C     C_R   0.721735 0.947908 0.300697 0.152296
C38   C     C_R   0.652119 0.868425 0.227629 -0.109181
C39   C     C_R   0.569945 0.834116 0.219917 -0.154575
C40   C     C_R   0.556920 0.878022 0.285503 -0.112390
C41   C     C_R   0.626188 0.956049 0.359180 -0.133112
C42   C     C_R   0.708410 0.990795 0.367038 -0.149171
H21   H     H_    0.661380 0.833581 0.176449 0.130869
H22   H     H_    0.516335 0.773511 0.163063 0.126576
H23   H     H_    0.493227 0.851448 0.279349 0.120292
H24   H     H_    0.616093 0.989794 0.410102 0.127974
H25   H     H_    0.761379 0.051648 0.424144 0.115843
C43   C     C_R   0.278747 0.054487 0.701242 0.152395
C44   C     C_R   0.293632 0.013323 0.635520 -0.148700
C45   C     C_R   0.376305 0.049844 0.644670 -0.135596
C46   C     C_R   0.444473 0.127927 0.719041 -0.117210
C47   C     C_R   0.429888 0.170112 0.784031 -0.153029
C48   C     C_R   0.347258 0.134027 0.775029 -0.107634
H26   H     H_    0.241529 0.952445 0.577886 0.115665
H27   H     H_    0.387604 0.017433 0.594210 0.127313
H28   H     H_    0.508528 0.155876 0.726209 0.121670
H29   H     H_    0.482642 0.230763 0.841424 0.127533
H30   H     H_    0.336783 0.167552 0.825759 0.131647
C49   C     C_R   0.278673 0.853482 0.056036 0.156073
C50   C     C_R   0.294733 0.863879 0.137485 -0.106182
C51   C     C_R   0.251285 0.893644 0.175816 -0.154292
C52   C     C_R   0.192467 0.914267 0.133811 -0.112494
C53   C     C_R   0.177320 0.905584 0.053587 -0.135431
C54   C     C_R   0.220493 0.875691 0.014911 -0.152708
H31   H     H_    0.340661 0.848749 0.171015 0.125323
H32   H     H_    0.263346 0.900888 0.238174 0.129035
H33   H     H_    0.158887 0.937297 0.163586 0.123586
H34   H     H_    0.132073 0.921986 0.021332 0.126726
H35   H     H_    0.208089 0.869064 0.952643 0.113712
C55   C     C_R   0.729016 0.274466 0.079755 0.152677
C56   C     C_R   0.717800 0.343700 0.080964 -0.108809
C57   C     C_R   0.766920 0.423685 0.157320 -0.151993
C58   C     C_R   0.826495 0.434852 0.233185 -0.114460
C59   C     C_R   0.836655 0.365893 0.232970 -0.132903
C60   C     C_R   0.787860 0.285836 0.156710 -0.153567
H36   H     H_    0.671471 0.335758 0.022729 0.126399
H37   H     H_    0.758747 0.477005 0.157702 0.133345
H38   H     H_    0.864534 0.496849 0.292207 0.122689
H39   H     H_    0.882481 0.374515 0.291888 0.128251
H40   H     H_    0.796581 0.232984 0.157270 0.114328

loop_
_geom_bond_atom_site_label_1
_geom_bond_atom_site_label_2
_ccdc_geom_bond_type
C7    O21   A    
C37   C38   A    
C4    C36   D    
C46   C47   A    
C27   C29   D    
C8    C26   S    
Cu5   Cu6   S    
C14   C18   S    
C51   C52   A    
C22   O14   A    
C58   H38   S    
C58   C59   A    
Cu5   O5    S    
C30   H12   S    
C45   H27   S    
C1    O9    A    
C8    O20   A    
C32   C36   S    
C9    C16   S    
C24   C26   D    
Cu3   O22   S    
C10   C15   S    
C52   H33   S    
C6    O16   A    
C43   C48   A    
C14   H20   S    
C21   O11   A    
C25   C37   S    
C23   H1    S    
C11   O5    A    
C35   H17   S    
C57   H37   S    
C50   C51   A    
C20   H8    S    
C9    O23   A    
C41   H24   S    
Cu2   O9    S    
C60   H40   S    
C17   H5    S    
C2    O2    A    
Cu6   O3    S    
C31   C33   D    
C51   H32   S    
Cu6   O24   S    
C23   C27   S    
C5    O17   A    
C18   C20   D    
C54   H35   S    
C44   H26   S    
C37   C42   A    
Cu6   O6    S    
Cu4   O21   S    
C2    O10   A    
C1    O1    A    
C52   C53   A    
Cu1   O1    S    
C27   H9    S    
C42   H25   S    
Cu2   O2    S    
Cu2   O13   S    
C10   O4    A    
C59   C60   A    
Cu4   O20   S    
C11   C33   S    
Cu3   O19   S    
C16   H4    S    
Cu3   Cu4   S    
C55   C60   A    
C21   C29   S    
Cu6   O7    S    
C18   H6    S    
C1    C3    S    
C32   C34   D    
C2    C4    S    
Cu1   Cu2   S    
C12   O6    A    
C19   H7    S    
C6    O18   A    
C44   C45   A    
C3    C35   D    
Cu4   O17   S    
C47   H29   S    
C56   C57   A    
C48   H30   S    
C49   C54   A    
C26   C43   S    
C7    O19   A    
Cu1   O14   S    
C13   C15   D    
C24   H2    S    
C14   C16   D    
C22   O12   A    
C5    O15   A    
Cu3   O15   S    
C41   C42   A    
C6    C20   S    
C55   C56   A    
C53   C54   A    
Cu2   O12   S    
C46   H28   S    
C12   O8    A    
C38   H21   S    
C10   O24   A    
C33   H15   S    
C22   C30   S    
C8    O22   A    
C24   C28   S    
C36   H18   S    
C40   H23   S    
C39   H22   S    
C11   O7    A    
Cu5   O4    S    
C5    C19   S    
Cu5   O23   S    
C21   O13   A    
Cu1   O11   S    
C7    C25   S    
C13   C17   S    
Cu3   O18   S    
C28   C30   D    
C57   C58   A    
C56   H36   S    
C49   C50   A    
C28   H10   S    
C40   C41   A    
C29   H11   S    
C3    C49   S    
C31   C35   S    
C45   C46   A    
C17   C19   D    
C59   H39   S    
Cu4   O16   S    
C23   C25   D    
C47   C48   A    
C9    O3    A    
C53   H34   S    
C13   H19   S    
C38   C39   A    
C43   C44   A    
Cu1   O10   S    
C34   H16   S    
C15   H3    S    
C4    C55   S    
C31   H13   S    
C39   C40   A    
C12   C34   S    
C50   H31   S    
C32   H14   S    
Cu5   O8    S    
