data_mof_unit_25340.cif
_audit_creation_date              2013-03-05T16:30:35-0500
_audit_creation_method            fapswitch 2.2
_symmetry_space_group_name_H-M    P1
_symmetry_Int_Tables_number       1
_space_group_crystal_system       triclinic
_cell_length_a                    8.720227
_cell_length_b                    10.890709
_cell_length_c                    9.600574
_cell_angle_alpha                 88.176647
_cell_angle_beta                  97.245562
_cell_angle_gamma                 91.903868
_cell_volume                      903.630273939

loop_
_atom_site_label
_atom_site_type_symbol
_atom_site_description
_atom_site_fract_x
_atom_site_fract_y
_atom_site_fract_z
_atom_type_partial_charge
O1    O     O_R   0.500000 0.319640 0.618810 -0.550486
O2    O     O_R   0.500020 0.319680 0.381230 -0.606141
C1    C     C_R   0.502207 0.262462 0.501269 0.833642
O3    O     O_R   0.274830 0.499980 0.591380 -0.519444
O4    O     O_R   0.274850 0.500020 0.353800 -0.582181
C2    C     C_R   0.204300 0.499458 0.464391 0.924803
Cu1   Cu    Cu3+1 0.499990 0.499980 0.640670 1.037899
Cu2   Cu    Cu3+1 0.500010 0.500020 0.359330 1.002182
O5    O     O_R   0.499980 0.680320 0.618770 -0.573835
O6    O     O_R   0.500000 0.680360 0.381190 -0.546928
O7    O     O_R   0.725150 0.499980 0.646200 -0.596530
O8    O     O_R   0.725170 0.500020 0.408620 -0.589019
C3    C     C_R   0.498939 0.737452 0.497420 0.837959
C4    C     C_R   0.795785 0.500761 0.535712 0.852518
C5    C     C_2   0.038782 0.497018 0.445088 -0.332365
H1    H     H_    0.980397 0.489038 0.339038 0.163881
C6    C     C_2   0.961470 0.503049 0.555544 -0.281958
H2    H     H_    0.020079 0.510313 0.661968 0.208141
C7    C     C_R   0.545955 0.058905 0.622456 0.006591
C8    C     C_R   0.513784 0.129439 0.499703 -0.109480
C9    C     C_R   0.497163 0.069945 0.370348 -0.216784
H3    H     H_    0.477276 0.122330 0.272214 0.205152
C10   C     C_R   0.490408 0.941713 0.365140 0.336859
C11   C     C_R   0.507304 0.871036 0.492736 -0.155099
C12   C     C_R   0.542860 0.932173 0.618978 -0.048799
C13   C     C_3   0.470920 0.919221 0.752645 0.194461
C14   C     C_3   0.470933 0.058299 0.753179 -0.338998
H4    H     H_    0.548789 0.877562 0.840899 0.137745
H5    H     H_    0.353513 0.095979 0.731089 0.277326
H6    H     H_    0.548564 0.097959 0.842341 0.208941
C15   C     C_R   0.570246 0.594155 0.077655 0.329683
N1    N     N_R   0.500980 0.500930 0.148050 -0.233553
C16   C     C_R   0.416430 0.415957 0.070910 -0.102749
H7    H     H_    0.350846 0.347958 0.125225 0.194269
C17   C     C_R   0.416608 0.412720 0.923275 0.395256
N2    N     N_R   0.500990 0.500890 0.852140 -0.249184
C18   C     C_R   0.570139 0.594266 0.930766 0.234014
C19   C     C_3   0.736530 0.633563 0.942502 -0.474986
C20   C     C_3   0.736480 0.633728 0.100624 -0.465341
H8    H     H_    0.811005 0.562129 0.908662 0.225457
H9    H     H_    0.753764 0.726712 0.895385 0.214180
H10   H     H_    0.810529 0.562234 0.156157 0.204922
H11   H     H_    0.753382 0.726963 0.144910 0.236932
N3    N     N_R   0.333305 0.309768 0.856657 0.103145
O9    O     O_R   0.230837 0.326387 0.748324 -0.348309
O10   O     O_R   0.318395 0.209465 0.932035 -0.399102
N4    N     N_R   0.451677 0.887169 0.230708 0.134826
O11   O     O_R   0.321695 0.825096 0.204105 -0.302748
O12   O     O_R   0.525942 0.923218 0.126651 -0.382444
N5    N     N_R   0.314718 0.863039 0.735112 0.168043
O13   O     O_R   0.278152 0.777333 0.823535 -0.313913
O14   O     O_R   0.211103 0.898318 0.633241 -0.348451

loop_
_geom_bond_atom_site_label_1
_geom_bond_atom_site_label_2
_geom_bond_distance
_ccdc_geom_bond_type
O4    Cu2   1.957459 S    
N5    O14   1.302602 A    
C10   C11   1.420142 A    
C11   C12   1.396864 A    
Cu1   O5    1.968592 S    
C18   C19   1.490546 S    
C14   H5    1.108785 S    
C7    C14   1.486396 S    
Cu1   N2    2.029490 S    
C13   H4    1.111623 S    
C15   N1    1.367825 A    
Cu2   O8    1.960786 S    
N1    C16   1.344994 A    
C13   N5    1.466766 S    
C6    H2    1.087264 S    
C2    C5    1.431294 S    
C1    C8    1.456248 S    
N4    O12   1.301109 A    
C9    H3    1.083677 S    
N3    O9    1.295088 A    
C14   H6    1.111527 S    
C19   H8    1.111504 S    
C17   N3    1.438128 S    
C4    C6    1.432780 S    
C13   C14   1.514829 S    
C19   C20   1.518180 S    
O3    Cu1   1.960787 S    
O3    C2    1.294504 A    
N2    C18   1.364129 A    
C16   C17   1.419135 A    
O8    C4    1.295685 A    
Cu1   O7    1.957460 S    
C20   H10   1.107966 S    
O2    C1    1.290872 A    
C9    C10   1.398045 A    
O4    C2    1.292253 A    
C7    C12   1.380954 A    
O7    C4    1.291724 A    
C10   N4    1.434625 S    
C5    H1    1.084114 S    
Cu2   N1    2.029200 S    
N4    O11   1.301552 A    
C15   C18   1.410063 A    
Cu1   Cu2   2.701034 S    
C16   H7    1.081634 S    
C8    C9    1.408067 A    
C19   H9    1.110918 S    
Cu2   O6    1.981843 S    
C5    C6    1.330820 D    
O5    C3    1.302341 A    
C20   H11   1.111416 S    
N3    O10   1.303023 A    
N5    O13   1.300643 A    
C12   C13   1.498640 S    
O1    Cu1   1.981843 S    
O6    C3    1.295764 A    
O2    Cu2   1.968591 S    
C7    C8    1.389592 A    
C3    C11   1.453783 S    
C15   C20   1.489840 S    
O1    C1    1.308646 A    
C17   N2    1.402847 A    
