data_mof_unit_8162.cif
_audit_creation_date              2012-12-10T18:59:20-0500
_audit_creation_method            fapswitch 2.2
_symmetry_space_group_name_H-M    P1
_symmetry_Int_Tables_number       1
_space_group_crystal_system       triclinic
_cell_length_a                    9.894382
_cell_length_b                    10.633635
_cell_length_c                    16.882078
_cell_angle_alpha                 88.749928
_cell_angle_beta                  95.352578
_cell_angle_gamma                 88.656384
_cell_volume                      1767.47266296

loop_
_atom_site_label
_atom_site_type_symbol
_atom_type_description
_atom_site_fract_x
_atom_site_fract_y
_atom_site_fract_z
_atom_type_partial_charge
C1    C     C_R   0.501206 0.260439 0.498916 0.893606
C2    C     C_R   0.082450 0.411237 0.542456 -0.114601
C3    C     C_R   0.518682 0.494705 0.653153 0.870447
C4    C     C_R   0.481443 0.501876 0.346769 0.869627
C5    C     C_R   0.531381 0.475563 0.738854 -0.057229
C6    C     C_R   0.469948 0.498391 0.260573 -0.059477
C7    C     C_R   0.417195 0.440268 0.776146 -0.234332
C8    C     C_R   0.587111 0.511275 0.221139 -0.234836
C9    C     C_R   0.426793 0.421440 0.857490 -0.202539
C10   C     C_R   0.580630 0.499779 0.139840 -0.204682
C11   C     C_R   0.550708 0.440080 0.903204 0.315841
C12   C     C_R   0.498787 0.739574 0.501059 0.895684
C13   C     C_R   0.456373 0.474158 0.096279 0.315290
C14   C     C_R   0.667640 0.468381 0.865908 0.107311
C15   C     C_R   0.337249 0.465562 0.134939 0.105233
C16   C     C_R   0.657331 0.486105 0.783284 -0.263487
C17   C     C_R   0.344671 0.477631 0.217522 -0.260033
C18   C     C_R   0.433459 0.067061 0.555811 -0.229127
C19   C     C_R   0.566500 0.932990 0.444123 -0.230097
C20   C     C_3   0.357827 0.872019 0.621812 -0.875108
C21   C     C_3   0.641770 0.128104 0.377979 -0.875625
C22   C     C_3   0.119456 0.694382 0.411013 -0.842047
C23   C     C_R   0.429111 0.937630 0.557881 0.183028
C24   C     C_3   0.880539 0.305608 0.588989 -0.840557
C25   C     C_R   0.570750 0.062435 0.442012 0.183090
C26   C     C_R   0.496287 0.872109 0.501104 -0.075340
C27   C     C_R   0.503675 0.127929 0.498836 -0.074138
C28   C     C_R   0.060884 0.589988 0.457256 0.237557
C29   C     C_R   0.939115 0.410012 0.542749 0.237099
C30   C     C_R   0.917553 0.588767 0.457551 -0.115124
H1    H     H_    0.684581 0.529413 0.253062 0.170158
H2    H     H_    0.145981 0.340408 0.575772 0.142723
H3    H     H_    0.872626 0.497963 0.876067 0.181285
H4    H     H_    0.786273 0.564906 0.945648 0.186532
H5    H     H_    0.130763 0.445141 0.126640 0.179802
H6    H     H_    0.215049 0.352803 0.067621 0.186584
H7    H     H_    0.428517 0.802896 0.655335 0.233308
H8    H     H_    0.321782 0.939550 0.665014 0.229725
H9    H     H_    0.267960 0.822769 0.594694 0.254420
H10   H     H_    0.570906 0.197110 0.344475 0.234510
H11   H     H_    0.731606 0.177508 0.404996 0.254153
H12   H     H_    0.319887 0.427450 0.742605 0.168047
H13   H     H_    0.677808 0.060583 0.334772 0.229760
H14   H     H_    0.039870 0.744204 0.370417 0.194216
H15   H     H_    0.163269 0.765288 0.452384 0.251069
H16   H     H_    0.195862 0.657939 0.373225 0.266482
H17   H     H_    0.960117 0.255817 0.629607 0.194159
H18   H     H_    0.804093 0.342022 0.626757 0.266960
H19   H     H_    0.836766 0.234690 0.547613 0.250896
H20   H     H_    0.673180 0.511218 0.111164 0.161275
H21   H     H_    0.336332 0.395682 0.884893 0.161654
H22   H     H_    0.746450 0.510581 0.754114 0.160687
H23   H     H_    0.253698 0.468503 0.248057 0.161185
H24   H     H_    0.383291 0.121076 0.598926 0.146593
H25   H     H_    0.616688 0.878981 0.401017 0.146476
H26   H     H_    0.854026 0.659606 0.424246 0.143867
N1    N     N_2   0.558671 0.440467 0.986858 -0.197076
N2    N     N_2   0.447233 0.462815 0.013025 -0.192790
N3    N     N_R   0.857210 0.499970 0.500020 -0.097416
N4    N     N_R   0.142790 0.500030 0.499980 -0.097237
N5    N     N_3   0.794809 0.483275 0.912859 -0.453931
N6    N     N_3   0.209960 0.443710 0.089725 -0.452540
O1    O     O_R   0.614620 0.316750 0.500010 -0.616101
O2    O     O_R   0.385380 0.683250 0.499990 -0.615251
O3    O     O_R   0.385290 0.316780 0.500000 -0.622809
O4    O     O_R   0.614710 0.683220 0.500000 -0.621495
O5    O     O_R   0.627460 0.498830 0.616130 -0.625575
O6    O     O_R   0.372540 0.501170 0.383870 -0.626191
O7    O     O_R   0.398130 0.498850 0.616130 -0.619617
O8    O     O_R   0.601870 0.501150 0.383870 -0.620265
Zn1   Zn    Zn3+2 0.653130 0.499980 0.500000 0.938327
Zn2   Zn    Zn3+2 0.346870 0.500020 0.500000 0.938007

loop_
_geom_bond_atom_site_label_1
_geom_bond_atom_site_label_2
_ccdc_geom_bond_type
O7    Zn2   S    
C1    O3    A    
C5    C7    A    
O8    Zn1   S    
C21   H13   S    
C17   H23   S    
C25   C27   A    
O3    Zn2   S    
C20   H8    S    
C29   N3    A    
C24   H18   S    
O4    Zn1   S    
C9    H21   S    
C20   C23   S    
O6    Zn2   S    
C1    C27   S    
C30   N3    A    
C24   H17   S    
C28   C30   A    
C3    C5    S    
C10   H20   S    
C22   C28   S    
C20   H7    S    
C9    C11   A    
N1    N2    D    
C2    N4    A    
C12   O4    A    
C2    C29   A    
C12   O2    A    
C1    O1    A    
C2    H2    S    
C4    O8    A    
C22   H16   S    
C15   N6    S    
O1    Zn1   S    
C22   H14   S    
H5    N6    S    
O5    Zn1   S    
O2    Zn2   S    
C13   C15   A    
C12   C26   S    
C19   C25   A    
C11   C14   A    
C14   C16   A    
C23   C26   A    
C4    C6    S    
C8    C10   A    
C18   H24   S    
C18   C23   A    
C6    C17   A    
C7    C9    A    
C14   N5    S    
C22   H15   S    
C28   N4    A    
C6    C8    A    
C19   C26   A    
C15   C17   A    
C21   H11   S    
C7    H12   S    
C19   H25   S    
C24   H19   S    
C4    O6    A    
C20   H9    S    
N4    Zn2   S    
C24   C29   S    
C5    C16   A    
C21   C25   S    
C13   N2    S    
C3    O7    A    
C11   N1    S    
C8    H1    S    
C30   H26   S    
H3    N5    S    
H4    N5    S    
C3    O5    A    
C18   C27   A    
C16   H22   S    
N3    Zn1   S    
H6    N6    S    
C10   C13   A    
C21   H10   S    
