data_mof_unit_35034.cif
_audit_creation_date              2012-12-11T15:08:58-0500
_audit_creation_method            fapswitch 2.2
_symmetry_space_group_name_H-M    P1
_symmetry_Int_Tables_number       1
_space_group_crystal_system       triclinic
_cell_length_a                    21.454355
_cell_length_b                    21.560495
_cell_length_c                    22.714693
_cell_angle_alpha                 91.395759
_cell_angle_beta                  89.754151
_cell_angle_gamma                 90.034581
_cell_volume                      10503.8408542

loop_
_atom_site_label
_atom_site_type_symbol
_atom_type_description
_atom_site_fract_x
_atom_site_fract_y
_atom_site_fract_z
_atom_type_partial_charge
C1    C     C_R   0.925774 0.147455 0.101605 -0.045356
C2    C     C_R   0.086623 0.841511 0.921358 -0.088341
C3    C     C_R   0.147777 0.074852 0.100270 -0.044342
C4    C     C_R   0.857782 0.930135 0.893386 -0.079399
C5    C     C_R   0.069264 0.856149 0.103418 -0.060238
C6    C     C_R   0.915481 0.157092 0.920370 -0.118290
C7    C     C_R   0.842079 0.916503 0.080616 -0.060144
C8    C     C_R   0.145852 0.070770 0.896599 -0.100119
C9    C     C_R   0.933223 0.857845 0.892834 -0.044215
C10   C     C_R   0.075015 0.149208 0.100049 -0.111776
C11   C     C_R   0.159155 0.914600 0.923915 -0.122800
C12   C     C_R   0.852120 0.073509 0.101088 -0.090240
C13   C     C_R   0.070873 0.143838 0.896502 -0.029383
C14   C     C_R   0.915250 0.842841 0.079402 -0.138221
C15   C     C_R   0.842143 0.083535 0.919787 -0.077369
C16   C     C_R   0.146145 0.926677 0.102501 -0.117199
C17   C     C_R   0.433021 0.641991 0.607300 -0.033485
C18   C     C_R   0.587358 0.341300 0.422765 -0.070521
C19   C     C_R   0.659010 0.585502 0.575965 -0.120017
C20   C     C_R   0.341778 0.412293 0.421738 -0.095122
C21   C     C_R   0.565576 0.362193 0.608639 -0.083520
C22   C     C_R   0.413536 0.657377 0.420736 -0.083890
C23   C     C_R   0.340982 0.416023 0.576818 -0.110336
C24   C     C_R   0.636317 0.560193 0.389659 -0.017160
C25   C     C_R   0.416104 0.340855 0.423382 -0.083511
C26   C     C_R   0.586422 0.658447 0.579026 -0.083038
C27   C     C_R   0.659519 0.414686 0.425818 -0.120849
C28   C     C_R   0.357931 0.569256 0.607129 -0.110659
C29   C     C_R   0.564605 0.636329 0.390313 -0.088092
C30   C     C_R   0.413133 0.342440 0.578743 -0.114057
C31   C     C_R   0.341291 0.583599 0.422635 -0.101934
C32   C     C_R   0.637341 0.438529 0.609407 -0.029080
C33   C     C_R   0.861805 0.765583 0.737154 -0.002072
C34   C     C_R   0.245245 0.152853 0.244659 0.003406
C35   C     C_R   0.729805 0.251073 0.858837 0.011101
C36   C     C_R   0.151386 0.753715 0.242017 0.021160
C37   C     C_R   0.156753 0.245040 0.760117 0.025997
C38   C     C_R   0.732386 0.744316 0.139241 0.010175
C39   C     C_R   0.241837 0.702159 0.876801 0.006157
C40   C     C_R   0.845587 0.243722 0.249241 -0.005012
C41   C     C_R   0.208578 0.253636 0.374198 0.016146
C42   C     C_R   0.742411 0.797015 0.624427 0.010781
C43   C     C_R   0.255993 0.788657 0.368707 0.003393
C44   C     C_R   0.744436 0.302135 0.703175 0.002344
C45   C     C_R   0.743028 0.696424 0.295952 0.006499
C46   C     C_R   0.256234 0.210091 0.629489 0.016666
C47   C     C_R   0.742275 0.205301 0.374097 0.011851
C48   C     C_R   0.362679 0.732840 0.764358 0.000371
C49   C     C_R   0.110491 0.225079 0.325869 -0.180161
C50   C     C_R   0.770987 0.895432 0.673820 -0.172853
C51   C     C_R   0.223603 0.886964 0.325911 -0.173390
C52   C     C_R   0.834456 0.239312 0.725005 -0.160766
C53   C     C_R   0.832190 0.761194 0.275281 -0.168114
C54   C     C_R   0.226000 0.111864 0.673761 -0.170775
C55   C     C_R   0.768797 0.108800 0.320804 -0.168235
C56   C     C_R   0.357878 0.821866 0.830854 -0.196467
C57   C     C_R   0.856715 0.676475 0.670781 -0.205030
C58   C     C_R   0.334030 0.151861 0.309995 -0.183756
C59   C     C_R   0.639331 0.314894 0.836231 -0.170341
C60   C     C_R   0.160657 0.660820 0.299498 -0.170795
C61   C     C_R   0.158860 0.335987 0.699399 -0.195080
C62   C     C_R   0.644240 0.676277 0.160207 -0.168494
C63   C     C_R   0.270165 0.603538 0.827321 -0.183273
C64   C     C_R   0.848548 0.329729 0.320001 -0.172039
C65   C     C_R   0.807538 0.861563 0.713569 0.075881
C66   C     C_R   0.145901 0.196911 0.279555 0.072283
C67   C     C_R   0.807563 0.227823 0.780412 0.059889
C68   C     C_R   0.193940 0.852711 0.279958 0.061892
C69   C     C_R   0.197374 0.146053 0.720542 0.071828
C70   C     C_R   0.806267 0.771864 0.219456 0.062160
C71   C     C_R   0.303823 0.794886 0.855865 0.063917
C72   C     C_R   0.800036 0.144513 0.278253 0.069712
C73   C     C_R   0.304167 0.199869 0.343067 0.035045
C74   C     C_R   0.803059 0.703819 0.645902 0.070441
C75   C     C_R   0.206678 0.692035 0.333274 0.077925
C76   C     C_R   0.664039 0.323656 0.779334 0.055843
C77   C     C_R   0.666638 0.670133 0.218096 0.053587
C78   C     C_R   0.205461 0.305864 0.664994 0.042874
C79   C     C_R   0.800365 0.299666 0.351185 0.074066
C80   C     C_R   0.307391 0.637217 0.787700 0.079122
C81   C     C_R   0.821867 0.799060 0.700434 0.047940
C82   C     C_R   0.209672 0.184878 0.288088 0.046686
C83   C     C_R   0.753084 0.258969 0.800524 0.077482
C84   C     C_R   0.184904 0.788196 0.285232 0.084779
C85   C     C_R   0.188149 0.210404 0.715468 0.059165
C86   C     C_R   0.753785 0.738241 0.198274 0.080779
C87   C     C_R   0.290908 0.731464 0.846385 0.066668
C88   C     C_R   0.812621 0.207648 0.290166 0.045346
C89   C     C_R   0.240131 0.210833 0.336637 0.060778
C90   C     C_R   0.790772 0.767362 0.655102 0.067291
C91   C     C_R   0.214518 0.756686 0.330205 0.062411
C92   C     C_R   0.720832 0.295426 0.761339 0.079509
C93   C     C_R   0.721617 0.700918 0.237045 0.082813
C94   C     C_R   0.215169 0.241668 0.668836 0.055524
C95   C     C_R   0.786772 0.236844 0.339753 0.072596
C96   C     C_R   0.322153 0.699596 0.801014 0.050754
C97   C     C_R   0.889347 0.710186 0.715110 -0.160059
C98   C     C_R   0.303020 0.126376 0.260235 -0.137141
C99   C     C_R   0.670601 0.275927 0.875165 -0.142449
C100  C     C_R   0.132057 0.692341 0.253373 -0.222926
C101  C     C_R   0.133125 0.304660 0.747718 -0.141837
C102  C     C_R   0.675350 0.715897 0.121464 -0.144646
C103  C     C_R   0.238707 0.636013 0.873831 -0.154489
C104  C     C_R   0.871789 0.301251 0.267705 -0.140750
C105  C     C_R   0.142323 0.252120 0.375025 -0.157528
C106  C     C_R   0.740125 0.863171 0.627022 -0.164063
C107  C     C_R   0.252694 0.854685 0.372154 -0.155005
C108  C     C_R   0.804809 0.280334 0.687833 -0.168605
C109  C     C_R   0.802417 0.719739 0.312278 -0.189061
C110  C     C_R   0.253589 0.144061 0.626408 -0.160453
C111  C     C_R   0.741124 0.139310 0.370467 -0.160306
C112  C     C_R   0.390483 0.788012 0.786375 -0.165311
C113  C     C_R   0.871050 0.128306 0.128345 0.130717
C114  C     C_R   0.150329 0.851598 0.913268 0.075307
C115  C     C_R   0.129019 0.130044 0.127052 0.126769
C116  C     C_R   0.881228 0.878346 0.862974 0.109773
C117  C     C_R   0.123581 0.874721 0.130863 0.053370
C118  C     C_R   0.854247 0.144281 0.908603 0.106662
C119  C     C_R   0.854084 0.855689 0.091490 0.099634
C120  C     C_R   0.125222 0.123680 0.868896 0.107723
C121  C     C_R   0.381259 0.620959 0.637643 0.103391
C122  C     C_R   0.651322 0.351702 0.416357 0.075314
C123  C     C_R   0.649965 0.648283 0.587441 0.073653
C124  C     C_R   0.353468 0.348789 0.413036 0.068661
C125  C     C_R   0.614043 0.389395 0.639777 0.010559
C126  C     C_R   0.350484 0.645433 0.410594 0.081559
C127  C     C_R   0.349824 0.354110 0.588285 0.087292
C128  C     C_R   0.612378 0.608313 0.358502 0.008450
C129  C     C_R   0.830125 0.887844 0.766405 -0.176280
C130  C     C_R   0.119867 0.179404 0.225155 -0.179384
C131  C     C_R   0.834500 0.185530 0.816498 -0.188957
C132  C     C_R   0.172883 0.880903 0.228675 -0.155388
C133  C     C_R   0.176038 0.117863 0.771858 -0.179342
C134  C     C_R   0.833124 0.814440 0.183395 -0.200605
C135  C     C_R   0.259035 0.831259 0.884098 -0.145554
C136  C     C_R   0.820183 0.119007 0.224302 -0.181077
C137  C     C_R   0.338453 0.242221 0.376119 -0.069380
C138  C     C_R   0.757998 0.667757 0.618107 -0.155850
C139  C     C_R   0.248934 0.658684 0.365473 -0.158130
C140  C     C_R   0.631713 0.358192 0.738688 -0.157190
C141  C     C_R   0.633561 0.635930 0.258821 -0.154078
C142  C     C_R   0.246686 0.339804 0.631630 -0.088971
C143  C     C_R   0.760365 0.333181 0.387748 -0.177348
C144  C     C_R   0.330004 0.610950 0.734675 -0.167430
C145  C     C_R   0.857938 0.850129 0.808314 0.024563
C146  C     C_R   0.158204 0.157652 0.178886 0.014914
C147  C     C_R   0.815843 0.182085 0.874351 -0.000543
C148  C     C_R   0.148747 0.844764 0.182228 0.020586
C149  C     C_R   0.154049 0.154221 0.819420 0.024557
C150  C     C_R   0.815557 0.817348 0.125363 0.001100
C151  C     C_R   0.201983 0.806301 0.902384 0.013658
C152  C     C_R   0.843580 0.157387 0.180491 0.017985
C153  C     C_R   0.310727 0.296107 0.400201 0.045151
C154  C     C_R   0.701561 0.693247 0.599325 -0.026948
C155  C     C_R   0.299485 0.687461 0.393450 0.017226
C156  C     C_R   0.651099 0.357897 0.680715 0.013730
C157  C     C_R   0.649883 0.639625 0.317478 0.015083
C158  C     C_R   0.298357 0.311715 0.604201 0.044478
C159  C     C_R   0.703638 0.307378 0.406080 -0.012075
C160  C     C_R   0.358255 0.648690 0.692832 0.023651
C161  C     C_R   0.867641 0.786286 0.795978 -0.115102
C162  C     C_R   0.222915 0.151422 0.186692 -0.143429
C163  C     C_R   0.766655 0.217167 0.898143 -0.137637
C164  C     C_R   0.141827 0.780391 0.187226 -0.144573
C165  C     C_R   0.152183 0.219379 0.816191 -0.145702
C166  C     C_R   0.768876 0.779883 0.100666 -0.134084
C167  C     C_R   0.195702 0.740609 0.904717 -0.101616
C168  C     C_R   0.848698 0.221848 0.190593 -0.134199
C169  C     C_R   0.244870 0.298830 0.405527 -0.087994
C170  C     C_R   0.696089 0.758954 0.596593 -0.081899
C171  C     C_R   0.300895 0.753114 0.399611 -0.089500
C172  C     C_R   0.705536 0.328054 0.661270 -0.130034
C173  C     C_R   0.702540 0.671841 0.337555 -0.132307
C174  C     C_R   0.300555 0.246065 0.598010 -0.090364
C175  C     C_R   0.697580 0.241771 0.406069 -0.071086
C176  C     C_R   0.368494 0.712344 0.705479 -0.135036
H1    H     H_    0.951041 0.189678 0.111046 0.127916
H2    H     H_    0.062248 0.797939 0.921648 0.123910
H3    H     H_    0.190188 0.049827 0.108364 0.121465
H4    H     H_    0.817446 0.957453 0.882482 0.106080
H5    H     H_    0.038800 0.818426 0.114732 0.148798
H6    H     H_    0.938276 0.201828 0.919610 0.127388
H7    H     H_    0.797312 0.939526 0.082000 0.125685
H8    H     H_    0.187412 0.043994 0.886925 0.110988
H9    H     H_    0.963221 0.819287 0.880901 0.116810
H10   H     H_    0.051496 0.192885 0.107421 0.114718
H11   H     H_    0.202869 0.938194 0.931553 0.108688
H12   H     H_    0.810555 0.046857 0.109766 0.109939
H13   H     H_    0.043226 0.184117 0.886586 0.130843
H14   H     H_    0.937746 0.797964 0.079534 0.136952
H15   H     H_    0.797351 0.060506 0.918695 0.130843
H16   H     H_    0.189772 0.949899 0.111078 0.118763
H17   H     H_    0.462926 0.680585 0.619170 0.113157
H18   H     H_    0.563243 0.297495 0.422934 0.113048
H19   H     H_    0.702884 0.562286 0.567780 0.124805
H20   H     H_    0.297166 0.435314 0.422373 0.116202
H21   H     H_    0.539909 0.320623 0.618837 0.134808
H22   H     H_    0.436959 0.701627 0.420661 0.119372
H23   H     H_    0.296958 0.439136 0.570255 0.131084
H24   H     H_    0.676654 0.532044 0.378822 0.133392
H25   H     H_    0.440155 0.297743 0.430686 0.123692
H26   H     H_    0.562202 0.702101 0.578934 0.119776
H27   H     H_    0.702714 0.438804 0.434453 0.120585
H28   H     H_    0.317935 0.541366 0.618375 0.107207
H29   H     H_    0.538838 0.677622 0.379729 0.133602
H30   H     H_    0.436513 0.298189 0.578522 0.121745
H31   H     H_    0.297197 0.560240 0.428675 0.109281
H32   H     H_    0.677738 0.466602 0.619990 0.134574
H33   H     H_    0.822989 0.936546 0.776923 0.134228
H34   H     H_    0.070330 0.184075 0.217634 0.161075
H35   H     H_    0.873206 0.156962 0.801113 0.142837
H36   H     H_    0.177273 0.930453 0.223222 0.158152
H37   H     H_    0.177816 0.067990 0.776089 0.140111
H38   H     H_    0.871317 0.843480 0.198705 0.155711
H39   H     H_    0.265779 0.880680 0.884180 0.119479
H40   H     H_    0.816160 0.069673 0.215207 0.137258
H41   H     H_    0.388402 0.237613 0.374473 0.107176
H42   H     H_    0.764029 0.618254 0.618620 0.127887
H43   H     H_    0.246906 0.608768 0.361586 0.120908
H44   H     H_    0.589369 0.382967 0.750522 0.146582
H45   H     H_    0.592660 0.609220 0.246452 0.146642
H46   H     H_    0.243255 0.389689 0.634665 0.106278
H47   H     H_    0.768758 0.382172 0.392505 0.122034
H48   H     H_    0.322300 0.562406 0.723865 0.136471
N1    N     N_R   0.940200 0.105310 0.059970 -0.057770
N2    N     N_R   0.059800 0.894690 0.940030 -0.056201
N3    N     N_R   0.105310 0.059800 0.059970 -0.055379
N4    N     N_R   0.894690 0.940200 0.940030 -0.050605
N5    N     N_R   0.059800 0.894690 0.059970 -0.050256
N6    N     N_R   0.940200 0.105310 0.940030 -0.056274
N7    N     N_R   0.894690 0.940200 0.059970 -0.058612
N8    N     N_R   0.105310 0.059800 0.940030 -0.048628
N9    N     N_R   0.940200 0.894690 0.940030 -0.053639
N10   N     N_R   0.059800 0.105310 0.059970 -0.051028
N11   N     N_R   0.105310 0.940200 0.940030 -0.051311
N12   N     N_R   0.894690 0.059800 0.059970 -0.052834
N13   N     N_R   0.059800 0.105310 0.940030 -0.054353
N14   N     N_R   0.940200 0.894690 0.059970 -0.052314
N15   N     N_R   0.894690 0.059800 0.940030 -0.059804
N16   N     N_R   0.105310 0.940200 0.059970 -0.051582
N17   N     N_R   0.440200 0.605310 0.559970 -0.052289
N18   N     N_R   0.559800 0.394690 0.440030 -0.053243
N19   N     N_R   0.605310 0.559800 0.559970 -0.053275
N20   N     N_R   0.394690 0.440200 0.440030 -0.050085
N21   N     N_R   0.559800 0.394690 0.559970 -0.050346
N22   N     N_R   0.440200 0.605310 0.440030 -0.053359
N23   N     N_R   0.394690 0.440200 0.559970 -0.052972
N24   N     N_R   0.605310 0.559800 0.440030 -0.045841
N25   N     N_R   0.440200 0.394690 0.440030 -0.052813
N26   N     N_R   0.559800 0.605310 0.559970 -0.056496
N27   N     N_R   0.605310 0.440200 0.440030 -0.054431
N28   N     N_R   0.394690 0.559800 0.559970 -0.051580
N29   N     N_R   0.559800 0.605310 0.440030 -0.048589
N30   N     N_R   0.440200 0.394690 0.559970 -0.050674
N31   N     N_R   0.394690 0.559800 0.440030 -0.050169
N32   N     N_R   0.605310 0.440200 0.559970 -0.047887
Ni1   Ni    Ni4+2 0.000000 0.104370 0.000000 0.252514
Ni2   Ni    Ni4+2 1.000000 0.895630 0.000000 0.252331
Ni3   Ni    Ni4+2 0.104370 0.000000 0.000000 0.239022
Ni4   Ni    Ni4+2 0.895630 0.000000 0.000000 0.248781
Ni5   Ni    Ni4+2 0.500000 0.604370 0.500000 0.255774
Ni6   Ni    Ni4+2 0.500000 0.395630 0.500000 0.237685
Ni7   Ni    Ni4+2 0.604370 0.500000 0.500000 0.246658
Ni8   Ni    Ni4+2 0.395630 0.500000 0.500000 0.228200
C177  C     C_2   0.954580 0.694186 0.733398 1.143391
O1    O     O_2   0.980531 0.647381 0.714340 -0.581489
O2    O     O_R   0.987721 0.734896 0.770656 -0.817501
H49   H     H_    0.031267 0.719558 0.779548 0.350810
C178  C     C_2   0.324982 0.068765 0.228182 1.144173
O3    O     O_2   0.379940 0.054015 0.227430 -0.559277
O4    O     O_R   0.281560 0.030698 0.198977 -0.846575
H50   H     H_    0.301354 0.992909 0.179154 0.328585
C179  C     C_2   0.635911 0.252431 0.927039 1.026567
O5    O     O_2   0.613876 0.288596 0.963833 -0.558707
O6    O     O_R   0.628797 0.188481 0.933489 -0.776307
H51   H     H_    0.604817 0.177932 0.970477 0.348106
C180  C     C_2   0.077010 0.665558 0.222077 1.098640
O7    O     O_2   0.077782 0.612276 0.202485 -0.559120
O8    O     O_R   0.024520 0.702698 0.213756 -0.750432
H52   H     H_    0.990157 0.680090 0.191477 0.345778
C181  C     C_2   0.077836 0.329174 0.781474 1.099781
O9    O     O_2   0.068856 0.384878 0.787870 -0.543976
O10   O     O_R   0.036010 0.287579 0.806686 -0.793281
H53   H     H_    0.000737 0.309205 0.828793 0.340041
C182  C     C_2   0.641999 0.735972 0.067802 1.028818
O11   O     O_2   0.624518 0.697690 0.030839 -0.558944
O12   O     O_R   0.630766 0.799098 0.059924 -0.772700
H54   H     H_    0.608103 0.807260 0.021817 0.349838
C183  C     C_2   0.211148 0.601273 0.923402 1.050595
O13   O     O_2   0.174063 0.559129 0.914197 -0.544393
O14   O     O_R   0.227417 0.617944 0.981164 -0.787586
H55   H     H_    0.205574 0.591615 0.011353 0.346599
C184  C     C_2   0.926653 0.326630 0.235065 1.133458
O15   O     O_2   0.936257 0.382421 0.233483 -0.555727
O16   O     O_R   0.967392 0.285756 0.205474 -0.842810
H56   H     H_    0.002725 0.307907 0.184936 0.331922
C185  C     C_2   0.108563 0.268866 0.430646 1.056713
O17   O     O_2   0.061548 0.300792 0.430210 -0.548732
O18   O     O_R   0.132333 0.248900 0.484223 -0.759623
H57   H     H_    0.106538 0.263791 0.519297 0.347751
C186  C     C_2   0.714232 0.897897 0.576808 1.047575
O19   O     O_2   0.679857 0.942429 0.585322 -0.557215
O20   O     O_R   0.729173 0.878648 0.519223 -0.739371
H58   H     H_    0.708741 0.905250 0.488579 0.365360
C187  C     C_2   0.269920 0.888333 0.427787 1.044661
O21   O     O_2   0.303223 0.934319 0.427059 -0.545124
O22   O     O_R   0.248492 0.866015 0.481509 -0.764995
H59   H     H_    0.263551 0.891969 0.516459 0.354980
C188  C     C_2   0.840331 0.306657 0.637764 1.031630
O23   O     O_2   0.846155 0.362915 0.634642 -0.588489
O24   O     O_R   0.866192 0.267586 0.594161 -0.726815
H60   H     H_    0.888606 0.291344 0.562429 0.350899
C189  C     C_2   0.835228 0.697956 0.365619 1.068267
O25   O     O_2   0.840910 0.642309 0.373351 -0.578534
O26   O     O_R   0.858957 0.740850 0.406920 -0.746629
H61   H     H_    0.879682 0.720144 0.441321 0.350527
C190  C     C_2   0.270146 0.110239 0.570497 1.058305
O27   O     O_2   0.300539 0.062325 0.571008 -0.557049
O28   O     O_R   0.250978 0.134212 0.516825 -0.757513
H62   H     H_    0.265393 0.107995 0.481690 0.355855
C191  C     C_2   0.719850 0.103230 0.421973 1.048905
O29   O     O_2   0.687840 0.056706 0.415232 -0.563638
O30   O     O_R   0.736434 0.123452 0.478754 -0.739677
H63   H     H_    0.719144 0.095776 0.510379 0.362667
C192  C     C_2   0.456045 0.803425 0.768108 1.153089
O31   O     O_2   0.482271 0.850032 0.787117 -0.582949
O32   O     O_R   0.489114 0.762395 0.730870 -0.813385
H64   H     H_    0.532888 0.777352 0.721947 0.349662
C193  C     C_2   0.867238 0.740027 0.844748 1.020266
O33   O     O_2   0.851219 0.756131 0.894542 -0.634686
O34   O     O_R   0.879686 0.677217 0.833333 -0.777017
H65   H     H_    0.876294 0.651180 0.869778 0.352710
C194  C     C_2   0.267424 0.156787 0.135543 1.019645
O35   O     O_2   0.248169 0.158355 0.085014 -0.617495
O36   O     O_R   0.331156 0.165784 0.145457 -0.782596
H66   H     H_    0.355918 0.170212 0.107670 0.352675
C195  C     C_2   0.759943 0.224235 0.963296 1.058380
O37   O     O_2   0.761966 0.178870 0.994529 -0.609866
O38   O     O_R   0.751559 0.283403 0.988689 -0.758190
H67   H     H_    0.745233 0.282446 0.032897 0.358373
C196  C     C_2   0.145433 0.740385 0.133105 1.029474
O39   O     O_2   0.098274 0.720280 0.109442 -0.600149
O40   O     O_R   0.204058 0.725668 0.109744 -0.752789
H68   H     H_    0.201530 0.697508 0.073503 0.376903
C197  C     C_2   0.159776 0.260314 0.870434 1.017949
O41   O     O_2   0.156424 0.238949 0.919701 -0.617889
O42   O     O_R   0.176457 0.322696 0.865026 -0.775797
H69   H     H_    0.181648 0.345048 0.904494 0.358020
C198  C     C_2   0.765179 0.772156 0.035407 1.046947
O43   O     O_2   0.765016 0.817501 0.004078 -0.600494
O44   O     O_R   0.762617 0.712468 0.010030 -0.758665
H70   H     H_    0.758996 0.712853 0.965569 0.366221
C199  C     C_2   0.138904 0.713052 0.930096 0.962565
O45   O     O_2   0.126197 0.722608 0.982025 -0.602427
O46   O     O_R   0.099481 0.676913 0.894373 -0.774131
H71   H     H_    0.061893 0.661041 0.916634 0.354325
C200  C     C_2   0.842609 0.266633 0.141119 1.011138
O47   O     O_2   0.848490 0.249384 0.089773 -0.636205
O48   O     O_R   0.824912 0.328109 0.153265 -0.779419
H72   H     H_    0.820939 0.353422 0.116430 0.354760
C201  C     C_2   0.215029 0.351488 0.437679 0.976234
O49   O     O_2   0.227956 0.362106 0.489295 -0.630924
O50   O     O_R   0.172543 0.389195 0.408770 -0.776734
H73   H     H_    0.155484 0.423706 0.435317 0.341319
C202  C     C_2   0.639838 0.787023 0.571051 0.973570
O51   O     O_2   0.627550 0.777551 0.519095 -0.579377
O52   O     O_R   0.600653 0.823908 0.606606 -0.780548
H74   H     H_    0.563528 0.840199 0.584269 0.351699
C203  C     C_2   0.352033 0.783582 0.432884 0.971503
O53   O     O_2   0.360037 0.771702 0.484650 -0.572737
O54   O     O_R   0.391414 0.825342 0.404774 -0.766975
H75   H     H_    0.424643 0.842965 0.432026 0.351846
C204  C     C_2   0.716020 0.315175 0.597247 1.032250
O55   O     O_2   0.712773 0.261817 0.578061 -0.548060
O56   O     O_R   0.732876 0.363076 0.560030 -0.791248
H76   H     H_    0.741983 0.347657 0.518445 0.332754
C205  C     C_2   0.709011 0.688845 0.401204 1.027060
O57   O     O_2   0.704099 0.743193 0.417144 -0.551048
O58   O     O_R   0.723769 0.643679 0.441920 -0.783983
H77   H     H_    0.730306 0.661900 0.482904 0.336517
C206  C     C_2   0.352092 0.216049 0.564527 0.978380
O59   O     O_2   0.360758 0.228619 0.512969 -0.629534
O60   O     O_R   0.391023 0.173803 0.592163 -0.767457
H78   H     H_    0.424509 0.156510 0.564758 0.353432
C207  C     C_2   0.642105 0.212752 0.432900 0.979849
O61   O     O_2   0.629328 0.223686 0.484623 -0.583708
O62   O     O_R   0.604006 0.173577 0.398758 -0.773995
H79   H     H_    0.567381 0.156920 0.421893 0.339239
C208  C     C_2   0.367507 0.758653 0.656897 1.031695
O63   O     O_2   0.346951 0.743459 0.608520 -0.580149
O64   O     O_R   0.384840 0.820497 0.667036 -0.771183
H80   H     H_    0.380444 0.846674 0.630800 0.362705
C209  C     C_2   0.041340 0.224800 0.323101 1.061201
O65   O     O_2   0.012377 0.273436 0.327811 -0.585172
O66   O     O_R   0.009533 0.168842 0.313629 -0.782154
H81   H     H_    0.962700 0.174706 0.311552 0.334162
C210  C     C_2   0.766071 0.963833 0.681108 1.044318
O67   O     O_2   0.715510 0.987945 0.691432 -0.551357
O68   O     O_R   0.819870 0.000259 0.678220 -0.779117
H82   H     H_    0.810897 0.046082 0.684792 0.348674
C211  C     C_2   0.222765 0.955902 0.326011 1.046041
O69   O     O_2   0.271693 0.984946 0.326391 -0.587630
O70   O     O_R   0.165870 0.987356 0.324049 -0.780618
H83   H     H_    0.171354 0.034054 0.323181 0.334336
C212  C     C_2   0.894981 0.211063 0.707024 1.032366
O71   O     O_2   0.942800 0.226592 0.732446 -0.616220
O72   O     O_R   0.896677 0.166015 0.661768 -0.723735
H84   H     H_    0.940377 0.149976 0.653723 0.346205
C213  C     C_2   0.891500 0.791208 0.294245 1.075206
O73   O     O_2   0.938545 0.759930 0.299609 -0.587146
O74   O     O_R   0.892880 0.854971 0.306820 -0.776806
H85   H     H_    0.935711 0.869978 0.319371 0.349648
C214  C     C_2   0.225890 0.043103 0.674165 1.042251
O75   O     O_2   0.274984 0.014806 0.678277 -0.548015
O76   O     O_R   0.169296 0.011048 0.671547 -0.787343
H86   H     H_    0.175041 0.964431 0.672833 0.337858
C215  C     C_2   0.765524 0.040377 0.313128 1.047135
O77   O     O_2   0.715271 0.014977 0.304723 -0.550568
O78   O     O_R   0.820365 0.005450 0.313520 -0.773010
H87   H     H_    0.812350 0.959472 0.306893 0.361798
C216  C     C_2   0.376998 0.885793 0.848756 1.086668
O79   O     O_2   0.384957 0.925056 0.811485 -0.553707
O80   O     O_R   0.383712 0.901381 0.908494 -0.781456
H88   H     H_    0.395960 0.946398 0.915306 0.339701
C217  C     C_2   0.875414 0.612422 0.652740 1.093075
O81   O     O_2   0.883108 0.573114 0.689945 -0.553697
O82   O     O_R   0.881912 0.596754 0.592941 -0.778307
H89   H     H_    0.893780 0.551646 0.586028 0.350145
C218  C     C_2   0.397064 0.130881 0.327313 1.096345
O83   O     O_2   0.441112 0.135937 0.293429 -0.558235
O84   O     O_R   0.406382 0.108948 0.383997 -0.748908
H90   H     H_    0.451439 0.097450 0.391390 0.344222
C219  C     C_2   0.577803 0.341629 0.853077 1.042461
O85   O     O_2   0.574763 0.383499 0.890244 -0.549245
O86   O     O_R   0.523760 0.319104 0.825847 -0.786234
H91   H     H_    0.484810 0.341131 0.840690 0.342093
C220  C     C_2   0.142604 0.596256 0.313580 1.049751
O87   O     O_2   0.150477 0.554108 0.277343 -0.560117
O88   O     O_R   0.119855 0.583579 0.369767 -0.771932
H92   H     H_    0.110477 0.537908 0.374776 0.345291
C221  C     C_2   0.137840 0.398963 0.683582 1.066085
O89   O     O_2   0.146433 0.443095 0.717364 -0.531585
O90   O     O_R   0.111602 0.407967 0.628240 -0.769608
H93   H     H_    0.100349 0.452939 0.621744 0.344884
C222  C     C_2   0.584856 0.646193 0.141944 1.040823
O91   O     O_2   0.585542 0.603025 0.106043 -0.549967
O92   O     O_R   0.528539 0.667185 0.166299 -0.783542
H94   H     H_    0.491370 0.642960 0.150664 0.344097
C223  C     C_2   0.265435 0.535066 0.820395 1.043494
O93   O     O_2   0.214775 0.510552 0.811987 -0.507829
O94   O     O_R   0.319499 0.498981 0.821582 -0.789310
H95   H     H_    0.310573 0.453090 0.815501 0.338242
C224  C     C_2   0.872547 0.390490 0.341929 1.087762
O95   O     O_2   0.863054 0.437402 0.314152 -0.561713
O96   O     O_R   0.902958 0.394140 0.396171 -0.742790
H96   H     H_    0.916200 0.438032 0.407203 0.349670

loop_
_geom_bond_atom_site_label_1
_geom_bond_atom_site_label_2
_ccdc_geom_bond_type
O82   H89   S    
C200  O47   D    
C62   C102  A    
C130  C146  A    
C185  O18   S    
C217  O81   D    
C62   C77   A    
O14   H55   S    
C39   C87   A    
C195  O37   D    
C220  O87   D    
C171  C203  S    
C41   C105  A    
N18   N27   A    
C102  C182  S    
C106  C186  S    
C210  O68   S    
C116  C145  S    
C45   C109  A    
C58   C218  S    
N22   N31   A    
C53   C109  A    
O4    H50   S    
C15   N15   A    
C154  C170  A    
C38   C166  A    
C27   N27   A    
C42   C170  A    
C72   C88   A    
C25   N25   A    
C140  H44   S    
C223  O94   S    
C46   C174  A    
C84   C91   A    
C29   N29   A    
C144  C160  A    
C129  C145  A    
C44   C92   A    
C19   N19   A    
C138  C154  A    
C44   C108  A    
C88   C95   A    
C17   N17   A    
C214  O76   S    
N19   N26   A    
N17   Ni5   S    
C54   C214  S    
C169  C201  S    
C142  C158  A    
C136  C152  A    
C170  C202  S    
C22   H22   S    
C11   N11   A    
C9    N9    A    
O30   H63   S    
C7    C119  A    
N20   N25   A    
C13   N13   A    
C104  C184  S    
C194  O35   D    
C41   C169  A    
C35   C163  A    
C132  C148  A    
C33   C161  A    
C44   C172  A    
C31   H31   S    
C45   C173  A    
C66   C82   A    
C146  C162  A    
O20   H58   S    
C57   C97   A    
O50   H73   S    
C137  C153  A    
C143  C159  A    
C42   C106  A    
N22   Ni5   S    
C140  C156  A    
C81   C90   A    
C141  C157  A    
C178  O4    S    
C206  O59   D    
C64   C79   A    
C26   C123  A    
C129  H33   S    
O60   H78   S    
C2    N2    A    
N29   Ni5   S    
C15   H15   S    
C30   C127  A    
C48   C96   A    
C55   C111  A    
C9    C116  A    
C21   H21   S    
C60   C100  A    
C72   C136  A    
O56   H76   S    
C209  O65   D    
C15   C118  A    
C7    H7    S    
C40   C88   A    
C204  O56   S    
C182  O12   S    
C64   C224  S    
C74   C138  A    
C74   C90   A    
C145  C161  A    
C78   C94   A    
C151  C167  A    
C161  C193  S    
C62   C222  S    
C33   C97   A    
N16   Ni3   S    
C222  O91   D    
C77   C141  A    
O36   H66   S    
C59   C219  S    
C24   H24   S    
C51   C107  A    
C14   C119  A    
C137  H41   S    
O48   H72   S    
C70   C134  A    
C213  O73   D    
C202  O51   D    
N27   Ni7   S    
C207  O62   S    
C123  C154  S    
C57   C74   A    
C41   C89   A    
C67   C83   A    
C198  O43   D    
C100  C180  S    
C18   H18   S    
C2    C114  A    
C110  C190  S    
O78   H87   S    
C58   C98   A    
C45   C93   A    
C211  O69   D    
C218  O83   D    
C115  C146  S    
C19   C123  A    
C120  C149  S    
C82   C89   A    
C73   C137  A    
C6    H6    S    
C117  C148  S    
C27   H27   S    
C166  C198  S    
C118  C147  S    
C25   H25   S    
C47   C111  A    
C189  O26   S    
O68   H82   S    
C150  C166  A    
C29   H29   S    
C54   C110  A    
C190  O28   S    
C192  O32   S    
C79   C143  A    
C80   C144  A    
N8    Ni3   S    
C131  C147  A    
C32   H32   S    
C174  C206  S    
C75   C91   A    
N5    Ni2   S    
C180  O7    D    
C193  O34   S    
N6    N15   A    
N19   Ni7   S    
C215  O78   S    
C158  C174  A    
C128  C157  S    
C194  O36   S    
C63   C80   A    
C196  O40   S    
C98   C178  S    
N12   Ni4   S    
C49   C66   A    
C148  C164  A    
C149  C165  A    
C20   H20   S    
C22   N22   A    
C43   C171  A    
N24   N29   A    
C37   C165  A    
C168  C200  S    
C208  O64   S    
C156  C172  A    
C42   C90   A    
C61   C101  A    
C184  O15   D    
C86   C93   A    
O84   H90   S    
C46   C94   A    
N6    Ni1   S    
C139  C155  A    
O8    H52   S    
C183  O13   D    
N18   Ni6   S    
C55   C215  S    
C177  O2    S    
N4    N9    A    
C52   C67   A    
C48   C112  A    
C224  O96   S    
C191  O29   D    
C6    N6    A    
C131  H35   S    
N8    N13   A    
C195  O38   S    
C13   C120  A    
C69   C85   A    
C206  O60   S    
C64   C104  A    
N1    N12   A    
C52   C212  S    
C34   C162  A    
O2    H49   S    
C63   C223  S    
N9    Ni2   S    
C181  O10   S    
C50   C210  S    
C31   N31   A    
C75   C139  A    
C210  O67   D    
C37   C101  A    
C10   H10   S    
C57   C217  S    
C23   N23   A    
C50   C65   A    
C20   C124  A    
C130  H34   S    
N28   Ni8   S    
O94   H95   S    
C14   H14   S    
N23   N30   A    
C139  H43   S    
C112  C192  S    
O26   H61   S    
C16   N16   A    
C223  O93   D    
C141  H45   S    
O10   H53   S    
C24   C128  A    
C51   C211  S    
C2    H2    S    
C59   C76   A    
C47   C175  A    
C203  O54   S    
C214  O75   D    
C164  C196  S    
O6    H51   S    
C165  C197  S    
O24   H60   S    
N2    Ni2   S    
C199  O45   D    
O58   H77   S    
C7    N7    A    
C201  O50   S    
C216  O79   D    
C1    C113  A    
N7    N14   A    
C12   C113  A    
C78   C142  A    
C221  O90   S    
O54   H75   S    
C176  C208  S    
C193  O33   D    
C68   C132  A    
C26   N26   A    
C199  O46   S    
O52   H74   S    
C142  H46   S    
C219  O86   S    
C121  C160  S    
C122  C159  S    
C30   N30   A    
N20   Ni8   S    
N25   Ni6   S    
C197  O42   S    
C125  C156  S    
C126  C155  S    
C18   N18   A    
C119  C150  S    
C220  O88   S    
C163  C195  S    
O96   H96   S    
C200  O48   S    
C178  O3    D    
C217  O82   S    
C113  C152  S    
C114  C151  S    
C4    H4    S    
C53   C70   A    
C5    H5    S    
C152  C168  A    
C27   C122  A    
C186  O20   S    
C162  C194  S    
C10   N10   A    
C167  C199  S    
O92   H94   S    
C68   C84   A    
N15   Ni4   S    
C63   C103  A    
O16   H56   S    
C14   N14   A    
C35   C83   A    
C49   C105  A    
C196  O39   D    
O22   H59   S    
O18   H57   S    
C28   N28   A    
C53   C213  S    
C182  O11   D    
C65   C81   A    
O38   H67   S    
C56   C71   A    
C32   N32   A    
N4    Ni4   S    
C36   C100  A    
C43   C107  A    
C127  C158  S    
C71   C87   A    
C17   C121  A    
C38   C86   A    
N13   Ni1   S    
C40   C168  A    
C21   C125  A    
C3    N3    A    
O42   H69   S    
C23   C127  A    
C207  O61   D    
C1    N1    A    
C20   N20   A    
N3    N10   A    
C109  C189  S    
C4    C116  A    
C186  O19   D    
C65   C129  A    
O66   H81   S    
C39   C103  A    
C101  C181  S    
N7    Ni4   S    
C60   C75   A    
C134  H38   S    
C202  O52   S    
C73   C89   A    
O32   H64   S    
O34   H65   S    
C3    C115  A    
C16   C117  A    
C143  H47   S    
C189  O25   D    
C54   C69   A    
C135  C151  A    
C77   C93   A    
C34   C98   A    
C4    N4    A    
C192  O31   D    
C103  C183  S    
O28   H62   S    
N31   Ni8   S    
N11   Ni3   S    
C187  O21   D    
N32   Ni7   S    
C153  C169  A    
O74   H85   S    
C50   C106  A    
C147  C163  A    
C157  C173  A    
C12   H12   S    
N10   Ni1   S    
O40   H68   S    
C19   H19   S    
C59   C99   A    
C185  O17   D    
C17   H17   S    
O70   H83   S    
C132  H36   S    
O88   H92   S    
C61   C221  S    
C215  O77   D    
C99   C179  S    
O64   H80   S    
C188  O23   D    
C107  C187  S    
C79   C95   A    
C83   C92   A    
C209  O66   S    
C172  C204  S    
C11   H11   S    
C37   C85   A    
C26   H26   S    
C175  C207  S    
C9    H9    S    
C212  O72   S    
C71   C135  A    
C22   C126  A    
C30   H30   S    
C23   H23   S    
C13   H13   S    
C60   C220  S    
C222  O92   S    
C11   C114  A    
C3    H3    S    
C16   H16   S    
C179  O6    S    
C1    H1    S    
C135  H39   S    
O46   H71   S    
C191  O30   S    
O72   H84   S    
C213  O74   S    
C177  O1    D    
N23   Ni8   S    
N3    Ni3   S    
C184  O16   S    
N24   Ni7   S    
C8    H8    S    
C216  O80   S    
C159  C175  A    
C138  H42   S    
C66   C130  A    
C160  C176  A    
C190  O27   D    
N17   N28   A    
C105  C185  S    
C111  C191  S    
C35   C99   A    
N21   Ni6   S    
C211  O70   S    
C76   C140  A    
N21   N32   A    
C36   C164  A    
C205  O58   S    
C218  O84   S    
C28   H28   S    
C133  C149  A    
O80   H88   S    
C28   C121  A    
C21   N21   A    
C187  O22   S    
C181  O9    D    
C43   C91   A    
N2    N11   A    
C5    C117  A    
C32   C125  A    
N26   Ni5   S    
C49   C209  S    
C40   C104  A    
C85   C94   A    
O76   H86   S    
C61   C78   A    
C87   C96   A    
C179  O5    D    
N5    N16   A    
N30   Ni6   S    
C205  O57   D    
C76   C92   A    
C18   C122  A    
C180  O8    S    
O12   H54   S    
C5    N5    A    
C24   N24   A    
C80   C96   A    
C70   C86   A    
C8    C120  A    
C203  O53   D    
C97   C177  S    
C12   N12   A    
C69   C133  A    
C134  C150  A    
C173  C205  S    
C67   C131  A    
C55   C72   A    
C56   C216  S    
C34   C82   A    
C201  O49   D    
C133  H37   S    
C46   C110  A    
N1    Ni1   S    
O90   H93   S    
C38   C102  A    
C204  O55   D    
C8    N8    A    
O44   H70   S    
C221  O89   D    
C208  O63   D    
C188  O24   S    
C108  C188  S    
C36   C84   A    
C183  O14   S    
C6    C118  A    
N14   Ni2   S    
C212  O71   D    
C51   C68   A    
C39   C167  A    
C224  O95   D    
C25   C124  A    
C144  H48   S    
O86   H91   S    
C155  C171  A    
C52   C108  A    
C198  O44   S    
C219  O85   D    
C29   C128  A    
C47   C95   A    
C31   C126  A    
C48   C176  A    
C197  O41   D    
C124  C153  S    
C33   C81   A    
C56   C112  A    
C10   C115  A    
O62   H79   S    
C58   C73   A    
C136  H40   S    
