data_mof_unit_59776.cif
_audit_creation_date              2012-10-26T19:42:42-0400
_audit_creation_method            fapswitch 2.2
_symmetry_space_group_name_H-M    P1
_symmetry_Int_Tables_number       1
_space_group_crystal_system       triclinic
_cell_length_a                    19.274572
_cell_length_b                    10.808168
_cell_length_c                    9.653444
_cell_angle_alpha                 89.113338
_cell_angle_beta                  88.299954
_cell_angle_gamma                 93.66939
_cell_volume                      2005.72224594

loop_
_atom_site_label
_atom_site_type_symbol
_atom_type_description
_atom_site_fract_x
_atom_site_fract_y
_atom_site_fract_z
_atom_type_partial_charge
C1    C     C_R   0.505178 0.262818 0.502146 0.593100
C2    C     C_R   0.852210 0.452294 0.482690 0.046274
C3    C     C_R   0.503111 0.101173 0.770104 0.238975
C4    C     C_R   0.367894 0.499087 0.501067 0.658739
C5    C     C_R   0.463238 0.044540 0.881459 0.110846
C6    C     C_R   0.420101 0.938465 0.855397 -0.107914
C7    C     C_R   0.423507 0.880802 0.727564 0.221094
C8    C     C_R   0.466863 0.934430 0.618373 -0.001286
C9    C     C_R   0.494083 0.057359 0.633148 -0.014461
C10   C     C_R   0.511714 0.128055 0.509779 0.036393
C11   C     C_R   0.524686 0.066505 0.386501 -0.158526
C12   C     C_R   0.291877 0.491828 0.501104 0.027711
C13   C     C_R   0.516371 0.938554 0.382723 -0.180308
C14   C     C_R   0.487714 0.870859 0.497938 0.018309
C15   C     C_R   0.606600 0.630124 0.139849 -0.130841
C16   C     C_R   0.494085 0.736605 0.499434 0.580278
C17   C     C_R   0.670490 0.658853 0.075314 -0.169080
C18   C     C_R   0.678272 0.643750 0.933588 0.127128
C19   C     C_R   0.617086 0.623513 0.857738 0.198582
C20   C     C_R   0.556320 0.559258 0.923155 0.144210
C21   C     C_R   0.554070 0.561026 0.072092 0.105841
C22   C     C_R   0.446264 0.448262 0.078736 0.014691
C23   C     C_R   0.928771 0.450801 0.482776 0.362060
C24   C     C_R   0.444613 0.451638 0.931429 0.262304
C25   C     C_R   0.632305 0.495553 0.498053 0.529654
C26   C     C_R   0.255033 0.377309 0.528682 0.159445
C27   C     C_R   0.181945 0.368594 0.527597 0.123840
C28   C     C_R   0.145930 0.475057 0.497314 0.005845
C29   C     C_R   0.183279 0.589426 0.465021 0.112644
C30   C     C_R   0.256471 0.596637 0.462841 0.137803
C31   C     C_3   0.413815 0.057928 0.122183 -0.323386
C32   C     C_3   0.803754 0.631906 0.913285 -0.269375
C33   C     C_3   0.599357 0.831945 0.785257 -0.282630
C34   C     C_R   0.069469 0.465220 0.492386 0.346545
C35   C     C_3   0.127499 0.183779 0.429801 -0.259202
C36   C     C_3   0.354014 0.294347 0.879510 -0.250417
C37   C     C_3   0.144054 0.740138 0.297426 -0.272859
C38   C     C_3   0.322269 0.721530 0.284411 -0.279100
C39   C     C_R   0.815220 0.451895 0.610227 -0.151180
C40   C     C_R   0.743850 0.465844 0.615354 -0.116916
C41   C     C_R   0.707825 0.480934 0.492930 -0.031203
C42   C     C_R   0.743867 0.475022 0.364964 -0.103275
C43   C     C_R   0.815293 0.460034 0.358813 0.238493
Cl1   Cl    Cl    0.300853 0.241542 0.548737 -0.685088
Cl2   Cl    Cl    0.575823 0.202303 0.808699 -0.619494
Cl3   Cl    Cl    0.364104 0.753196 0.706632 -0.619514
Cl4   Cl    Cl    0.854732 0.443974 0.193622 -0.615537
Cu1   Cu    Cu3+1 0.500000 0.499990 0.640660 1.101796
Cu2   Cu    Cu3+1 0.500000 0.500010 0.359340 0.939345
H1    H     H_    0.386217 0.895167 0.935915 0.147610
H2    H     H_    0.513850 0.124303 0.051181 0.295725
H3    H     H_    0.423675 0.963361 0.159983 0.140491
H4    H     H_    0.360511 0.058328 0.081725 0.148024
H5    H     H_    0.416605 0.122784 0.210125 0.182512
H6    H     H_    0.748339 0.780513 0.851971 0.258907
H7    H     H_    0.847585 0.653909 0.837913 0.158013
H8    H     H_    0.795140 0.529509 0.923296 0.202912
H9    H     H_    0.818235 0.670976 0.014928 0.183232
H10   H     H_    0.653064 0.706929 0.673814 0.256892
H11   H     H_    0.597531 0.892120 0.691755 0.156139
H12   H     H_    0.532460 0.892748 0.289152 0.132754
H13   H     H_    0.641942 0.871619 0.849147 0.146164
H14   H     H_    0.549803 0.832502 0.846353 0.161213
H15   H     H_    0.164634 0.197994 0.628958 0.297240
H16   H     H_    0.175804 0.157210 0.375392 0.172690
H17   H     H_    0.097559 0.240188 0.358517 0.169712
H18   H     H_    0.095091 0.098180 0.458950 0.154649
H19   H     H_    0.342784 0.481683 0.899647 0.248273
H20   H     H_    0.350013 0.261914 0.989077 0.116143
H21   H     H_    0.388154 0.236581 0.817604 0.222662
H22   H     H_    0.301101 0.284694 0.837156 0.181947
H23   H     H_    0.401672 0.408353 0.138061 0.126578
H24   H     H_    0.103188 0.709091 0.500006 0.268243
H25   H     H_    0.088995 0.737041 0.266104 0.173050
H26   H     H_    0.173178 0.681223 0.225645 0.160248
H27   H     H_    0.166156 0.837284 0.286841 0.144736
H28   H     H_    0.273382 0.789855 0.460822 0.309516
H29   H     H_    0.295497 0.793073 0.226321 0.115838
H30   H     H_    0.315899 0.632539 0.228380 0.148574
H31   H     H_    0.378389 0.750942 0.285600 0.177549
H32   H     H_    0.599712 0.664544 0.242059 0.184104
H33   H     H_    0.712280 0.701618 0.134097 0.133774
H34   H     H_    0.841835 0.443130 0.706685 0.150192
H35   H     H_    0.716930 0.464620 0.715327 0.182571
H36   H     H_    0.716506 0.480282 0.269006 0.167462
H37   H     H_    0.542434 0.117476 0.293369 0.144619
N1    N     N_R   0.037346 0.512529 0.382369 -0.228993
N2    N     N_2   0.144323 0.252223 0.553312 -0.472891
N3    N     N_2   0.380034 0.422403 0.869199 -0.458346
N4    N     N_2   0.147774 0.699207 0.440570 -0.507967
N5    N     N_2   0.294621 0.710486 0.425753 -0.459915
N6    N     N_R   0.968377 0.506194 0.378150 -0.152095
N7    N     N_R   0.961043 0.402651 0.592667 -0.228398
N8    N     N_R   0.030149 0.409270 0.597182 -0.180171
N9    N     N_R   0.500660 0.501210 0.147910 -0.261444
N10   N     N_R   0.500680 0.501290 0.852040 -0.186497
N11   N     N_2   0.465209 0.098742 0.015820 -0.510288
N12   N     N_2   0.741975 0.685526 0.864171 -0.549542
N13   N     N_2   0.611611 0.706639 0.743999 -0.458227
O1    O     O_R   0.499990 0.319640 0.618810 -0.436075
O2    O     O_R   0.500000 0.319660 0.381240 -0.503865
O3    O     O_R   0.400140 0.499970 0.618820 -0.407303
O4    O     O_R   0.400150 0.500000 0.381250 -0.521471
O5    O     O_R   0.500000 0.680340 0.618760 -0.438790
O6    O     O_R   0.500010 0.680360 0.381190 -0.552305
O7    O     O_R   0.599850 0.500000 0.618750 -0.476695
O8    O     O_R   0.599860 0.500030 0.381180 -0.530034

loop_
_geom_bond_atom_site_label_1
_geom_bond_atom_site_label_2
_ccdc_geom_bond_type
C36   N3    S    
H2    N11   S    
C37   H25   S    
C40   C41   A    
N7    N8    A    
H10   N13   S    
C41   C42   A    
C40   H35   S    
C19   C20   A    
C32   H9    S    
C31   H3    S    
C24   N3    S    
C26   Cl1   S    
C7    C8    A    
Cu2   O8    S    
C26   C27   A    
C37   N4    S    
C28   C29   A    
H24   N4    S    
C18   C19   A    
C24   N10   A    
Cu2   O2    S    
C5    C6    A    
C31   H4    S    
C38   H30   S    
C35   H16   S    
C11   H37   S    
Cu1   O5    S    
C4    O4    A    
C17   H33   S    
C22   N9    A    
C2    C39   A    
C16   O5    A    
Cu1   O7    S    
C8    C9    A    
H15   N2    S    
C4    O3    A    
C4    C12   S    
C9    C10   A    
C36   H22   S    
C20   N10   A    
C28   C34   S    
C13   C14   A    
C32   H8    S    
C1    O1    A    
C22   H23   S    
C29   N4    S    
C36   H21   S    
C25   O7    A    
H19   N3    S    
Cu1   O1    S    
C7    Cl3   S    
C15   H32   S    
C25   C41   S    
C39   C40   A    
C19   N13   S    
C33   H13   S    
Cu2   O6    S    
C38   H29   S    
C35   H17   S    
C38   N5    S    
C3    Cl2   S    
C6    H1    S    
C23   N7    A    
C12   C26   A    
C33   N13   S    
C29   C30   A    
C3    C9    A    
C35   N2    S    
C35   H18   S    
C2    C43   A    
C33   H14   S    
Cu1   O3    S    
C17   C18   A    
C42   H36   S    
Cu2   N9    S    
C16   O6    A    
Cu1   Cu2   S    
C37   H27   S    
C5    N11   S    
C33   H11   S    
C14   C16   S    
C42   C43   A    
C1    O2    A    
C2    C23   S    
C36   H20   S    
C25   O8    A    
C15   C17   A    
H28   N5    S    
C8    C14   A    
Cu1   N10   S    
C12   C30   A    
C1    C10   S    
C34   N8    A    
C30   N5    S    
C3    C5    A    
Cu2   O4    S    
C6    C7    A    
C21   N9    A    
C39   H34   S    
C11   C13   A    
C38   H31   S    
H6    N12   S    
C32   N12   S    
C22   C24   A    
C34   N1    A    
C31   N11   S    
C31   H5    S    
C37   H26   S    
C27   N2    S    
C10   C11   A    
C15   C21   A    
C13   H12   S    
C20   C21   A    
C27   C28   A    
C23   N6    A    
C18   N12   S    
N1    N6    A    
C43   Cl4   S    
C32   H7    S    
