data_mof_unit_21777.cif
_audit_creation_date              2012-12-11T16:37:15-0500
_audit_creation_method            fapswitch 2.2
_symmetry_space_group_name_H-M    P1
_symmetry_Int_Tables_number       1
_space_group_crystal_system       triclinic
_cell_length_a                    19.507136
_cell_length_b                    6.93569
_cell_length_c                    17.721654
_cell_angle_alpha                 89.948524
_cell_angle_beta                  109.041499
_cell_angle_gamma                 89.992744
_cell_volume                      2266.46411685

loop_
_atom_site_label
_atom_site_type_symbol
_atom_type_description
_atom_site_fract_x
_atom_site_fract_y
_atom_site_fract_z
_atom_type_partial_charge
O1    O     O_R   0.561710 0.369960 0.440200 -0.542426
O2    O     O_R   0.061710 0.630040 0.940200 -0.541099
O3    O     O_R   0.412630 0.033330 0.406330 -0.527897
O4    O     O_R   0.912630 0.966670 0.906330 -0.542591
O5    O     O_R   0.438290 0.869790 0.559800 -0.525172
O6    O     O_R   0.938290 0.130210 0.059800 -0.526096
C1    C     C_R   0.384879 0.203513 0.383083 0.741488
C2    C     C_R   0.884997 0.796924 0.882937 0.720131
O7    O     O_R   0.559570 0.039810 0.430640 -0.546609
O8    O     O_R   0.059570 0.960190 0.930640 -0.544270
O9    O     O_R   0.586280 0.876320 0.584290 -0.541774
O10   O     O_R   0.086280 0.123680 0.084290 -0.541710
C3    C     C_R   0.581114 0.209207 0.415605 0.678133
C4    C     C_R   0.081124 0.791073 0.916091 0.670122
O11   O     O_R   0.413720 0.363440 0.415710 -0.544263
O12   O     O_R   0.913720 0.636560 0.915710 -0.535122
O13   O     O_3   0.508590 0.205630 0.550380 -0.368648
O14   O     O_3   0.008590 0.794370 0.050380 -0.352454
V1    V     V_3+5 0.498410 0.928130 0.490650 1.435734
V2    V     V_3+5 0.998410 0.071870 0.990650 1.439047
O15   O     O_R   0.587370 0.546990 0.593670 -0.541324
O16   O     O_R   0.087370 0.453010 0.093670 -0.544716
C5    C     C_R   0.614937 0.716810 0.617342 0.688783
C6    C     C_R   0.115726 0.283219 0.116287 0.686658
O17   O     O_R   0.440430 0.540520 0.569360 -0.541450
O18   O     O_R   0.940430 0.459480 0.069360 -0.519696
C7    C     C_R   0.416569 0.709121 0.581724 0.725487
C8    C     C_R   0.917640 0.290376 0.083024 0.703726
V3    V     V_3+5 0.501590 0.428960 0.509350 1.417045
V4    V     V_3+5 0.001590 0.571040 0.009350 1.458877
O19   O     O_3   0.491410 0.701330 0.449620 -0.373716
O20   O     O_3   0.991410 0.298670 0.949620 -0.377124
C9    C     C_R   0.273944 0.892620 0.670336 -0.191607
C10   C     C_R   0.770810 0.117008 0.167408 -0.180602
H1    H     H_    0.240724 0.019604 0.666120 0.136326
H2    H     H_    0.731857 0.000548 0.157906 0.115163
C11   C     C_R   0.316342 0.879331 0.619826 -0.006569
C12   C     C_R   0.816893 0.123599 0.121006 0.005287
C13   C     C_R   0.364426 0.720721 0.627473 -0.134688
C14   C     C_R   0.867138 0.277614 0.130627 -0.124738
C15   C     C_R   0.363514 0.573040 0.681529 -0.130038
C16   C     C_R   0.868561 0.421950 0.186865 -0.126238
H3    H     H_    0.398736 0.448935 0.688283 0.144801
H4    H     H_    0.906283 0.541089 0.196024 0.151169
C17   C     C_R   0.317274 0.582101 0.727538 -0.109598
C18   C     C_R   0.822704 0.412677 0.233370 -0.145170
H5    H     H_    0.316816 0.460807 0.765733 0.110108
H6    H     H_    0.826708 0.524346 0.277246 0.108742
C19   C     C_R   0.272301 0.743395 0.723640 0.058715
C20   C     C_R   0.773555 0.259277 0.224626 0.066839
C21   C     C_R   0.239018 0.655797 0.846659 -0.134414
C22   C     C_R   0.693666 0.413570 0.294556 -0.142126
H7    H     H_    0.288177 0.571996 0.869870 0.104782
H8    H     H_    0.704226 0.553992 0.273998 0.102991
C23   C     C_R   0.192393 0.665477 0.892258 -0.159707
C24   C     C_R   0.647125 0.401042 0.340098 -0.162726
H9    H     H_    0.206114 0.586583 0.948016 0.106786
H10   H     H_    0.624023 0.532795 0.354074 0.121923
C25   C     C_R   0.129753 0.780110 0.867428 -0.037969
C26   C     C_R   0.630131 0.221240 0.366532 -0.050906
C27   C     C_R   0.113563 0.881719 0.795428 -0.162668
C28   C     C_R   0.661353 0.054405 0.346537 -0.163934
H11   H     H_    0.064902 0.968897 0.774590 0.110334
H12   H     H_    0.650152 0.913786 0.366411 0.117244
C29   C     C_R   0.158581 0.866489 0.748229 -0.131365
C30   C     C_R   0.708238 0.067073 0.301364 -0.140911
H13   H     H_    0.141776 0.940290 0.691389 0.109096
H14   H     H_    0.732201 0.935733 0.288351 0.100825
C31   C     C_R   0.222830 0.755212 0.773374 0.093738
C32   C     C_R   0.724838 0.246775 0.274413 0.103462
C33   C     C_R   0.804485 0.621105 0.761995 0.104231
C34   C     C_R   0.283338 0.401446 0.292480 0.093271
C35   C     C_R   0.818290 0.782908 0.812313 -0.127111
C36   C     C_R   0.318364 0.222249 0.312427 -0.091954
C37   C     C_R   0.765503 0.929223 0.793742 -0.183065
C38   C     C_R   0.290316 0.067811 0.259948 -0.174968
H15   H     H_    0.773265 0.055751 0.831026 0.152101
H16   H     H_    0.317307 0.929183 0.269850 0.128833
C39   C     C_R   0.699464 0.906323 0.730793 -0.167536
C40   C     C_R   0.225512 0.089636 0.195089 -0.179173
H17   H     H_    0.658987 0.018762 0.720353 0.132933
H18   H     H_    0.204831 0.965888 0.157322 0.128941
C41   C     C_R   0.683939 0.735717 0.684769 -0.107459
C42   C     C_R   0.186740 0.266289 0.180982 -0.102584
C43   C     C_R   0.739234 0.598404 0.699694 0.101561
C44   C     C_R   0.219486 0.423172 0.228551 0.089137
C45   C     C_3   0.736764 0.388003 0.715150 -0.425654
C46   C     C_3   0.188744 0.562036 0.273262 -0.407859
C47   C     C_3   0.808107 0.412287 0.782629 -0.388377
C48   C     C_3   0.258551 0.538862 0.343094 -0.370048
H19   H     H_    0.741715 0.299542 0.664908 0.174993
H20   H     H_    0.181922 0.708599 0.246578 0.177305
H21   H     H_    0.690744 0.349725 0.736249 0.175593
H22   H     H_    0.140229 0.504150 0.285456 0.173258
H23   H     H_    0.854353 0.338655 0.771162 0.170565
H24   H     H_    0.292023 0.671985 0.356642 0.190455
H25   H     H_    0.803563 0.386565 0.842759 0.177192
H26   H     H_    0.250375 0.467995 0.395752 0.168328
C49   C     C_2   0.304405 0.027602 0.556489 0.739117
O21   O     O_2   0.300111 0.980669 0.488607 -0.572279
O22   O     O_R   0.294045 0.219958 0.573521 -0.673139
H27   H     H_    0.286109 0.307545 0.525632 0.283017
C50   C     C_2   0.808204 0.970607 0.060907 0.734189
O23   O     O_2   0.849041 0.831766 0.075739 -0.554535
O24   O     O_R   0.751546 0.982150 0.988462 -0.673134
H28   H     H_    0.749890 0.866371 0.953041 0.284423

loop_
_geom_bond_atom_site_label_1
_geom_bond_atom_site_label_2
_ccdc_geom_bond_type
C30   H14   S    
O22   H27   S    
C23   C25   A    
O13   V3    S    
O4    C2    A    
V1    O19   S    
C13   C15   A    
C3    C26   S    
C4    C25   S    
O9    V1    S    
C36   C38   A    
C42   C44   A    
O3    C1    A    
C44   C46   S    
C8    C14   S    
O12   V4    S    
C26   C28   A    
C16   C18   A    
C27   H11   S    
O7    C3    A    
C28   H12   S    
O13   V1    S    
O5    C7    A    
O7    V1    S    
O6    C8    A    
C46   H20   S    
O8    V2    S    
C29   H13   S    
O3    V1    S    
O14   V4    S    
V4    O20   S    
C10   H2    S    
C40   C42   A    
C43   C45   S    
C2    O12   A    
C33   C43   A    
C15   H3    S    
C16   H4    S    
C22   H8    S    
O11   V3    S    
C1    C36   S    
C46   H22   S    
C17   H5    S    
O15   C5    A    
O17   V3    S    
C18   H6    S    
C10   C20   A    
C25   C27   A    
C45   H19   S    
C28   C30   A    
C34   C36   A    
O8    C4    A    
C7    C13   S    
C39   H17   S    
C1    O11   A    
C21   C23   A    
O15   V3    S    
C9    C11   A    
C24   C26   A    
C47   H25   S    
C21   H7    S    
O4    V2    S    
C47   H23   S    
C12   C50   S    
C34   C48   S    
C49   O21   D    
C33   C47   S    
C17   C19   A    
O10   V2    S    
O1    V3    S    
C50   O24   S    
C37   H15   S    
C5    C41   S    
C40   H18   S    
C49   O22   S    
C46   C48   S    
O18   V4    S    
C23   H9    S    
O16   C6    A    
O1    C3    A    
C35   C37   A    
C11   C49   S    
C33   C35   A    
V2    O20   S    
C18   C20   A    
O16   V4    S    
C41   C43   A    
C10   C12   A    
C38   C40   A    
C38   H16   S    
C14   C16   A    
C34   C44   A    
C48   H24   S    
O5    V1    S    
O17   C7    A    
O6    V2    S    
O24   H28   S    
O10   C6    A    
O18   C8    A    
O2    V4    S    
C45   C47   S    
C20   C32   S    
C11   C13   A    
C12   C14   A    
C30   C32   A    
C37   C39   A    
C29   C31   A    
C45   H21   S    
O9    C5    A    
C2    C35   S    
C9    H1    S    
C24   H10   S    
O14   V2    S    
C6    C42   S    
O2    C4    A    
C22   C32   A    
C39   C41   A    
C27   C29   A    
V3    O19   S    
C50   O23   D    
C15   C17   A    
C19   C31   S    
C21   C31   A    
C9    C19   A    
C48   H26   S    
C22   C24   A    
