data_mof_unit_59187.cif
_audit_creation_date              2012-12-10T20:25:41-0500
_audit_creation_method            fapswitch 2.2
_symmetry_space_group_name_H-M    P1
_symmetry_Int_Tables_number       1
_space_group_crystal_system       triclinic
_cell_length_a                    8.576254
_cell_length_b                    10.615692
_cell_length_c                    9.952434
_cell_angle_alpha                 89.706279
_cell_angle_beta                  97.878825
_cell_angle_gamma                 91.01296
_cell_volume                      897.401162611

loop_
_atom_site_label
_atom_site_type_symbol
_atom_type_description
_atom_site_fract_x
_atom_site_fract_y
_atom_site_fract_z
_atom_type_partial_charge
C1    C     C_R   0.503651 0.260737 0.500621 0.879401
C2    C     C_R   0.628111 0.933836 0.585423 -0.215719
C3    C     C_R   0.510469 0.870958 0.498702 -0.132867
C4    C     C_R   0.409630 0.935427 0.402832 0.013381
C5    C     C_3   0.233289 0.928165 0.373316 0.263750
C6    C     C_3   0.235449 0.071422 0.375495 -0.551963
C7    C     C_R   0.371293 0.457678 0.056244 0.037823
C8    C     C_R   0.616620 0.560454 0.083191 0.200889
C9    C     C_R   0.616667 0.558056 0.939963 -0.128709
C10   C     C_R   0.372291 0.455794 0.915147 0.136807
C11   C     C_3   0.282892 0.331804 0.899288 -0.152496
C12   C     C_R   0.201952 0.500435 0.465479 1.016487
C13   C     C_3   0.286249 0.332606 0.054554 0.549993
C14   C     C_R   0.501317 0.739227 0.499827 0.932694
C15   C     C_R   0.797901 0.506929 0.535174 0.795565
C16   C     C_2   0.037458 0.492157 0.451112 -0.427728
C17   C     C_2   0.962287 0.528727 0.552635 0.295764
C18   C     C_R   0.411152 0.063914 0.404282 0.090423
C19   C     C_R   0.515245 0.128803 0.500087 -0.101216
C20   C     C_R   0.633846 0.064860 0.585515 0.178322
H1    H     H_    0.978617 0.445707 0.360752 0.114188
H2    H     H_    0.711980 0.602393 0.895215 0.145709
H3    H     H_    0.162857 0.344713 0.842745 0.175709
H4    H     H_    0.713370 0.881177 0.653181 0.162002
H5    H     H_    0.190484 0.886937 0.272256 0.145496
H6    H     H_    0.195127 0.112728 0.274395 0.233697
H7    H     H_    0.182506 0.113562 0.460499 0.184473
N1    N     N_R   0.498950 0.499140 0.142680 -0.113607
N2    N     N_R   0.498950 0.499180 0.857030 -0.109192
O1    O     O_R   0.500020 0.316790 0.614690 -0.629686
O2    O     O_R   0.500000 0.316760 0.385350 -0.571244
O3    O     O_R   0.271760 0.500010 0.587850 -0.538776
O4    O     O_R   0.271740 0.499970 0.358500 -0.632852
O5    O     O_R   0.500000 0.683240 0.614650 -0.606985
O6    O     O_R   0.499980 0.683210 0.385310 -0.632537
O7    O     O_R   0.728260 0.500030 0.641500 -0.644357
O8    O     O_R   0.728240 0.499990 0.412150 -0.630689
Zn1   Zn    Zn3+2 0.500010 0.500020 0.653130 0.967927
Zn2   Zn    Zn3+2 0.499990 0.499980 0.346870 0.960842
C21   C     C_3   0.365646 0.219601 0.845341 -0.783128
H8    H     H_    0.333333 0.131140 0.895595 0.251513
H9    H     H_    0.321667 0.206584 0.736350 0.242770
H10   H     H_    0.495733 0.231955 0.861999 0.250744
C22   C     C_3   0.121704 0.338745 0.097330 -0.847619
H11   H     H_    0.129827 0.335191 0.209163 0.253040
H12   H     H_    0.060738 0.426107 0.059271 0.200036
H13   H     H_    0.049952 0.256038 0.056069 0.222921
O9    O     O_3   0.376178 0.236632 0.124555 -0.737856
H14   H     H_    0.487665 0.247128 0.109131 0.335450
O10   O     O_3   0.038322 0.591681 0.665808 -0.732906
H15   H     H_    0.959757 0.619909 0.723011 0.327309
C23   C     C_3   0.764757 0.130416 0.677298 -0.894672
H16   H     H_    0.773025 0.232746 0.656609 0.245677
H17   H     H_    0.746787 0.116204 0.784732 0.239883
H18   H     H_    0.879541 0.089857 0.662026 0.240066
O11   O     O_3   0.160711 0.872476 0.478304 -0.734308
H19   H     H_    0.205297 0.912045 0.565774 0.348778
C24   C     C_3   0.749399 0.631169 0.164998 -0.799193
H20   H     H_    0.709664 0.681894 0.250139 0.278795
H21   H     H_    0.844321 0.565217 0.200782 0.235806
H22   H     H_    0.800197 0.703935 0.102211 0.196178

loop_
_geom_bond_atom_site_label_1
_geom_bond_atom_site_label_2
_ccdc_geom_bond_type
N2    Zn1   S    
C14   O5    A    
C7    C10   A    
O6    Zn2   S    
C23   H18   S    
C16   H1    S    
C17   O10   S    
O3    Zn1   S    
C13   O9    S    
C5    O11   S    
C19   C20   A    
C22   H13   S    
C9    N2    A    
O9    H14   S    
C4    C18   A    
C24   H22   S    
C21   H9    S    
C2    C3    A    
C8    C9    A    
C20   C23   S    
O4    Zn2   S    
C23   H16   S    
C12   O3    A    
C4    C5    S    
C11   C13   S    
C10   N2    A    
C6    H6    S    
C3    C14   S    
C12   O4    A    
C8    N1    A    
C5    C6    S    
O7    Zn1   S    
C21   H8    S    
O2    Zn2   S    
O10   H15   S    
C13   C22   S    
C2    H4    S    
C11   C21   S    
C6    C18   S    
C5    H5    S    
C9    H2    S    
C1    C19   S    
C10   C11   S    
C7    N1    A    
C24   H21   S    
C3    C4    A    
C12   C16   S    
C15   O7    A    
C1    O2    A    
O11   H19   S    
O1    Zn1   S    
O8    Zn2   S    
C18   C19   A    
C11   H3    S    
C14   O6    A    
C15   C17   S    
C1    O1    A    
C7    C13   S    
C22   H12   S    
N1    Zn2   S    
C8    C24   S    
C24   H20   S    
O5    Zn1   S    
C2    C20   A    
C21   H10   S    
C15   O8    A    
C22   H11   S    
C6    H7    S    
C23   H17   S    
C16   C17   D    
