data_mof_unit_36868.cif
_audit_creation_date              2013-03-05T15:51:56-0500
_audit_creation_method            fapswitch 2.2
_symmetry_space_group_name_H-M    P1
_symmetry_Int_Tables_number       1
_space_group_crystal_system       triclinic
_cell_length_a                    9.605891
_cell_length_b                    10.925678
_cell_length_c                    17.414148
_cell_angle_alpha                 99.841987
_cell_angle_beta                  84.175106
_cell_angle_gamma                 91.665292
_cell_volume                      1791.3069883

loop_
_atom_site_label
_atom_site_type_symbol
_atom_site_description
_atom_site_fract_x
_atom_site_fract_y
_atom_site_fract_z
_atom_type_partial_charge
O1    O     O_R   0.381190 0.680360 0.500010 -0.541944
O2    O     O_R   0.618760 0.680340 0.500000 -0.566558
C1    C     C_R   0.503159 0.737290 0.496950 0.814558
O3    O     O_R   0.367440 0.500030 0.613600 -0.491622
O4    O     O_R   0.605010 0.500010 0.613590 -0.537227
C2    C     C_R   0.478985 0.506177 0.651484 0.871780
Cu1   Cu    Cu3+1 0.359340 0.500010 0.500010 1.098188
Cu2   Cu    Cu3+1 0.640660 0.499990 0.499990 1.025167
O5    O     O_R   0.381240 0.319660 0.500000 -0.534058
O6    O     O_R   0.618810 0.319640 0.499990 -0.606059
O7    O     O_R   0.394990 0.499990 0.386410 -0.547548
O8    O     O_R   0.632560 0.499970 0.386400 -0.617689
C3    C     C_R   0.495269 0.264753 0.508484 0.882212
C4    C     C_R   0.521234 0.510487 0.351377 0.864724
C5    C     C_R   0.464461 0.510204 0.738694 -0.256510
C6    C     C_R   0.583525 0.540925 0.780902 0.316321
C7    C     C_R   0.587402 0.509575 0.854628 -0.189041
C8    C     C_R   0.472048 0.455105 0.891632 0.051722
C9    C     C_R   0.349121 0.437868 0.854854 -0.204463
C10   C     C_R   0.339643 0.472514 0.781633 0.299002
C11   C     C_R   0.444886 0.524613 0.146136 -0.145253
C12   C     C_R   0.431891 0.541801 0.227437 -0.119485
C13   C     C_R   0.663148 0.457052 0.223577 -0.245215
C14   C     C_R   0.677656 0.438891 0.141845 0.442705
C15   C     C_R   0.565633 0.470052 0.102314 0.025410
C16   C     C_2   0.466656 0.438874 0.974606 -0.157344
C17   C     C_2   0.578289 0.455071 0.016054 -0.109724
C18   C     C_R   0.539616 0.505611 0.266477 -0.078110
H1    H     H_    0.336726 0.581298 0.259733 0.153927
H2    H     H_    0.747125 0.429864 0.253854 0.197504
H3    H     H_    0.682086 0.461206 0.986841 0.217339
H4    H     H_    0.255989 0.408192 0.887511 0.183072
H5    H     H_    0.360394 0.555674 0.117855 0.167525
H6    H     H_    0.364760 0.421080 0.004078 0.167487
H7    H     H_    0.680008 0.535119 0.884032 0.201231
C19   C     C_R   0.304151 0.855308 0.414424 -0.074411
H8    H     H_    0.329232 0.762127 0.384762 0.112903
C20   C     C_R   0.176970 0.904894 0.403621 -0.052515
H9    H     H_    0.105059 0.849874 0.367380 0.141923
C21   C     C_R   0.136520 0.019780 0.446679 -0.068468
H10   H     H_    0.030073 0.050154 0.447285 0.143858
C22   C     C_R   0.230669 0.092188 0.492162 0.196089
C23   C     C_R   0.370563 0.052672 0.490058 0.101158
C24   C     C_R   0.395845 0.924986 0.464284 0.066313
C25   C     C_R   0.509350 0.870732 0.491267 -0.175325
C26   C     C_R   0.617525 0.949553 0.521691 0.172166
H11   H     H_    0.695520 0.134914 0.546757 0.195870
C27   C     C_R   0.607611 0.076941 0.527962 -0.227560
C28   C     C_R   0.486207 0.130981 0.512747 -0.147240
H12   H     H_    0.855310 0.652404 0.586430 0.232442
C29   C     C_R   0.855908 0.333599 0.394313 -0.167337
H13   H     H_    0.747123 0.334300 0.393056 0.251687
C30   C     C_R   0.914707 0.248980 0.336375 -0.339111
H14   H     H_    0.846317 0.192760 0.298102 0.215140
C31   C     C_R   0.055408 0.238692 0.323973 0.243005
C32   C     C_R   0.148064 0.310795 0.375406 0.324908
C33   C     C_R   0.083029 0.409484 0.442358 -0.030064
C34   C     C_R   0.930329 0.414205 0.446317 0.145380
N1    N     N_R   0.852190 0.498790 0.499250 -0.235711
C35   C     C_R   0.918500 0.583936 0.548173 -0.001198
C36   C     C_R   0.064950 0.587392 0.548849 0.512769
N2    N     N_R   0.148060 0.498710 0.499220 -0.243804
S1    S     S_3+6 0.724823 0.633906 0.750555 0.080038
O9    O     O_2   0.836716 0.548688 0.706947 -0.194834
O10   O     O_2   0.678967 0.719598 0.699263 -0.293911
O11   O     O_3   0.791051 0.719664 0.828495 -0.424647
H15   H     H_    0.714029 0.775091 0.854271 0.352579
S2    S     S_3+6 0.835553 0.374713 0.091276 0.008532
O12   O     O_2   0.928497 0.336920 0.147391 -0.272189
O13   O     O_2   0.802225 0.262876 0.032462 -0.259077
O14   O     O_3   0.920181 0.481648 0.044353 -0.522302
H16   H     H_    0.001783 0.437754 0.013484 0.387935
I1    I     I_    0.804898 0.895924 0.559065 -0.214849
I2    I     I_    0.133546 0.211493 0.589533 -0.232161
I3    I     I_    0.094787 0.104738 0.216055 -0.112591
S3    S     S_3+6 0.320583 0.249994 0.332084 0.011449
O15   O     O_2   0.456898 0.281932 0.364007 -0.315348
O16   O     O_2   0.313642 0.110909 0.323300 -0.316430
O17   O     O_3   0.340925 0.286245 0.241464 -0.517303
H17   H     H_    0.417509 0.232784 0.212819 0.386821
S4    S     S_3+6 0.126955 0.723508 0.609500 0.101309
O18   O     O_2   0.138108 0.826411 0.562270 -0.330335
O19   O     O_2   0.019738 0.760707 0.678006 -0.160070
O20   O     O_3   0.280493 0.714785 0.645852 -0.475265
H18   H     H_    0.302567 0.800866 0.670379 0.370587
S5    S     S_3+6 0.166855 0.511212 0.766640 0.109821
O21   O     O_2   0.152057 0.649251 0.790677 -0.141013
O22   O     O_2   0.132346 0.475807 0.683978 -0.226433
O23   O     O_3   0.047805 0.442473 0.823684 -0.485529
H19   H     H_    0.049852 0.353274 0.800095 0.360324

loop_
_geom_bond_atom_site_label_1
_geom_bond_atom_site_label_2
_geom_bond_distance
_ccdc_geom_bond_type
C31   C32   1.447354 A    
S1    O10   1.502719 D    
C4    C18   1.463046 S    
C32   S3    1.842719 S    
C12   H1    1.083411 S    
C9    C10   1.402852 A    
C8    C16   1.481154 S    
S3    O17   1.682834 S    
S4    O18   1.497721 D    
Cu1   Cu2   2.702299 S    
C30   H14   1.085608 S    
Cu1   O7    1.973091 S    
C16   C17   1.343349 D    
C19   H8    1.081920 S    
S3    O16   1.501253 D    
Cu2   N1    2.031076 S    
O4    C2    1.316391 A    
O7    C4    1.312104 A    
S5    O22   1.493550 D    
C11   H5    1.082000 S    
C5    C6    1.423015 A    
C32   C33   1.540707 A    
C8    C9    1.392601 A    
O5    C3    1.297237 A    
C2    C5    1.504100 S    
S2    O12   1.502981 D    
C16   H6    1.086436 S    
C6    C7    1.388466 A    
C10   S5    1.779966 S    
C13   C14   1.396205 A    
C6    S1    1.763899 S    
C31   I3    2.182756 S    
C21   C22   1.400249 A    
O11   H15   0.990604 S    
S1    O11   1.682451 S    
N1    C35   1.342286 A    
C12   C18   1.395643 A    
C11   C12   1.389201 A    
O3    Cu1   1.987439 S    
C9    H4    1.082489 S    
S4    O19   1.502760 D    
S3    O15   1.483337 D    
C30   C31   1.351766 A    
C5    C10   1.435572 A    
C26   C27   1.382654 A    
C22   I2    2.106808 S    
C17   H3    1.078071 S    
C29   H13   1.047702 S    
C13   H2    1.082008 S    
C33   N2    1.442647 A    
C14   C15   1.414044 A    
O3    C2    1.308427 A    
S5    O21   1.501517 D    
C23   C28   1.428429 A    
C34   N1    1.369594 A    
C25   C26   1.416278 A    
C1    C25   1.477175 S    
O17   H17   0.990995 S    
S5    O23   1.683193 S    
C35   C36   1.407388 A    
C29   C30   1.336981 A    
C23   C24   1.410717 A    
Cu1   N2    2.030596 S    
H11   C27   1.084230 S    
Cu2   O8    1.987438 S    
C7    C8    1.394658 A    
C29   C34   1.388860 A    
C13   C18   1.403152 A    
O20   H18   0.990648 S    
C3    C28   1.475671 S    
S2    O13   1.503490 D    
C21   H10   1.082645 S    
O8    C4    1.300861 A    
C19   C24   1.414045 A    
C22   C23   1.418406 A    
S4    O20   1.674323 S    
C24   C25   1.413408 A    
Cu1   O5    1.987682 S    
C11   C15   1.409979 A    
C27   C28   1.391045 A    
O1    Cu1   1.975518 S    
O2    Cu2   1.987682 S    
O6    C3    1.320282 A    
O4    Cu2   1.973092 S    
C15   C17   1.475821 S    
H12   C35   1.070430 S    
C19   C20   1.393332 A    
O2    C1    1.298654 A    
O14   H16   0.990752 S    
C36   S4    1.794756 S    
C20   C21   1.391481 A    
C33   C34   1.463427 A    
C20   H9    1.082349 S    
S2    O14   1.682239 S    
C36   N2    1.393451 A    
C14   S2    1.774048 S    
S1    O9    1.499866 D    
Cu2   O6    1.975518 S    
C7    H7    1.077295 S    
O1    C1    1.310995 A    
O23   H19   0.990715 S    
C26   I1    2.106163 S    
