data_mof_unit_31039.cif
_audit_creation_date              2012-10-26T20:40:16-0400
_audit_creation_method            fapswitch 2.2
_symmetry_space_group_name_H-M    P1
_symmetry_Int_Tables_number       1
_space_group_crystal_system       triclinic
_cell_length_a                    15.064102
_cell_length_b                    10.862533
_cell_length_c                    9.570432
_cell_angle_alpha                 90.335342
_cell_angle_beta                  90.168277
_cell_angle_gamma                 92.681928
_cell_volume                      1564.30079297

loop_
_atom_site_label
_atom_site_type_symbol
_atom_type_description
_atom_site_fract_x
_atom_site_fract_y
_atom_site_fract_z
_atom_type_partial_charge
C1    C     C_R   0.506888 0.263023 0.500432 0.549749
C2    C     C_R   0.184327 0.456875 0.607214 -0.151516
C3    C     C_R   0.232416 0.513691 0.498440 0.000451
C4    C     C_R   0.329005 0.505456 0.499558 0.576389
C5    C     C_R   0.188079 0.576537 0.391352 0.067844
C6    C     C_R   0.556243 0.122035 0.755950 -0.096879
C7    C     C_R   0.545338 0.063909 0.884513 -0.133671
C8    C     C_R   0.501272 0.949037 0.891082 -0.119280
C9    C     C_R   0.476450 0.887066 0.768105 -0.089732
C10   C     C_R   0.496262 0.939262 0.635439 0.022864
C11   C     C_R   0.523069 0.065129 0.631348 0.025036
C12   C     C_R   0.907183 0.562432 0.388703 0.013103
C13   C     C_R   0.514400 0.129146 0.503332 -0.008530
C14   C     C_R   0.500665 0.062977 0.378633 -0.158357
C15   C     C_R   0.492968 0.935759 0.379961 -0.149082
C16   C     C_R   0.494847 0.737542 0.501473 0.544900
C17   C     C_R   0.490840 0.872128 0.506858 0.000855
C18   C     C_R   0.617681 0.665116 0.145699 -0.097463
C19   C     C_R   0.675140 0.745699 0.074014 -0.185934
C20   C     C_R   0.675433 0.745164 0.930082 -0.164550
C21   C     C_R   0.618114 0.664248 0.857044 -0.087969
C22   C     C_R   0.557961 0.580977 0.925825 0.146671
C23   C     C_R   0.952223 0.401333 0.722181 -0.130434
C24   C     C_R   0.557832 0.581163 0.075572 0.161151
C25   C     C_R   0.445052 0.422701 0.073222 0.009233
C26   C     C_R   0.445051 0.422764 0.925127 -0.001549
C27   C     C_R   0.671185 0.500646 0.500196 0.531224
C28   C     C_R   0.814653 0.557405 0.388734 -0.137280
C29   C     C_R   0.767849 0.503373 0.500519 -0.009829
C30   C     C_R   0.813473 0.452904 0.612617 -0.137699
C31   C     C_R   0.906123 0.454532 0.612425 0.013864
C32   C     C_R   0.953389 0.510059 0.500184 0.063018
C33   C     C_R   0.044716 0.402130 0.720377 -0.122099
C34   C     C_R   0.092178 0.457564 0.609719 0.007922
C35   C     C_R   0.046780 0.513069 0.499431 0.040908
C36   C     C_R   0.094357 0.572011 0.389070 0.025558
C37   C     C_R   0.046551 0.624552 0.279433 -0.112596
C38   C     C_R   0.954068 0.619036 0.278991 -0.140778
Cu1   Cu    Cu3+1 0.499990 0.499990 0.640660 0.914243
Cu2   Cu    Cu3+1 0.500010 0.500010 0.359340 0.951875
H1    H     H_    0.779099 0.597388 0.302854 0.115740
H2    H     H_    0.720296 0.808118 0.874268 0.127215
H3    H     H_    0.623734 0.671789 0.746997 0.188218
H4    H     H_    0.776810 0.410601 0.698596 0.121700
H5    H     H_    0.400090 0.359454 0.868995 0.122385
H6    H     H_    0.916745 0.358415 0.808837 0.111273
H7    H     H_    0.079194 0.359572 0.805703 0.116767
H8    H     H_    0.218935 0.410611 0.689914 0.126887
H9    H     H_    0.079339 0.668589 0.191569 0.156961
H10   H     H_    0.919135 0.659433 0.192656 0.113711
H11   H     H_    0.495898 0.109471 0.279225 0.135190
H12   H     H_    0.592492 0.210244 0.755637 0.143571
H13   H     H_    0.568803 0.109624 0.979381 0.110488
H14   H     H_    0.487991 0.906539 0.991405 0.127045
H15   H     H_    0.439049 0.800711 0.780107 0.162763
H16   H     H_    0.487295 0.887270 0.280839 0.150417
H17   H     H_    0.400067 0.359403 0.128055 0.123186
H18   H     H_    0.623677 0.672683 0.255824 0.179057
H19   H     H_    0.720007 0.808780 0.130910 0.117850
I1    I     I_    0.261642 0.690138 0.243723 -0.403019
N1    N     N_R   0.500860 0.501210 0.147910 -0.237591
N2    N     N_R   0.500890 0.501290 0.852040 -0.252174
O1    O     O_R   0.499990 0.319640 0.618810 -0.512168
O2    O     O_R   0.500000 0.319660 0.381240 -0.506259
O3    O     O_R   0.370250 0.499960 0.618800 -0.504804
O4    O     O_R   0.370260 0.499980 0.381230 -0.463525
O5    O     O_R   0.500000 0.680340 0.618760 -0.539004
O6    O     O_R   0.500010 0.680360 0.381190 -0.509961
O7    O     O_R   0.629740 0.500020 0.618770 -0.530551
O8    O     O_R   0.629750 0.500040 0.381200 -0.522996

loop_
_geom_bond_atom_site_label_1
_geom_bond_atom_site_label_2
_ccdc_geom_bond_type
Cu1   N2    S    
C20   H2    S    
C22   N2    A    
C5    C36   A    
C6    C7    A    
C9    H15   S    
C27   C29   S    
Cu1   O1    S    
C9    C10   A    
C32   C35   A    
C14   H11   S    
Cu2   O2    S    
C30   C31   A    
C3    C5    A    
C2    H8    S    
C15   H16   S    
C2    C34   A    
C26   H5    S    
C14   C15   A    
C33   C34   A    
C26   N2    A    
C7    C8    A    
C16   O5    A    
C25   N1    A    
C13   C14   A    
C12   C32   A    
C4    O4    A    
Cu1   O3    S    
C30   H4    S    
C29   C30   A    
C27   O8    A    
Cu2   O8    S    
C12   C28   A    
C24   N1    A    
C38   H10   S    
C1    O1    A    
C4    O3    A    
C36   C37   A    
C37   C38   A    
C23   H6    S    
C2    C3    A    
C22   C24   A    
Cu1   O7    S    
C16   O6    A    
C33   H7    S    
C18   C24   A    
C12   C38   A    
C1    C13   S    
C10   C11   A    
C7    H13   S    
C10   C17   A    
C3    C4    S    
C25   H17   S    
C1    O2    A    
C6    H12   S    
C28   H1    S    
C11   C13   A    
C37   H9    S    
C20   C21   A    
C34   C35   A    
Cu2   O6    S    
C8    H14   S    
C6    C11   A    
C15   C17   A    
C18   C19   A    
Cu1   Cu2   S    
C28   C29   A    
Cu2   O4    S    
C5    I1    S    
C19   H19   S    
C25   C26   A    
C21   C22   A    
Cu1   O5    S    
C18   H18   S    
C31   C32   A    
C21   H3    S    
Cu2   N1    S    
C19   C20   A    
C16   C17   S    
C23   C31   A    
C8    C9    A    
C23   C33   A    
C35   C36   A    
C27   O7    A    
