data_mof_unit_55209.cif
_audit_creation_date              2012-12-10T17:30:22-0500
_audit_creation_method            fapswitch 2.2
_symmetry_space_group_name_H-M    P1
_symmetry_Int_Tables_number       1
_space_group_crystal_system       triclinic
_cell_length_a                    12.225153
_cell_length_b                    12.823751
_cell_length_c                    14.93552
_cell_angle_alpha                 93.33656
_cell_angle_beta                  86.825064
_cell_angle_gamma                 94.316332
_cell_volume                      2327.81572174

loop_
_atom_site_label
_atom_site_type_symbol
_atom_type_description
_atom_site_fract_x
_atom_site_fract_y
_atom_site_fract_z
_atom_type_partial_charge
C1    C     C_R   0.522347 0.699584 0.495199 0.890912
C2    C     C_R   0.477546 0.300406 0.504486 0.896112
C3    C     C_R   0.490611 0.696766 0.972592 -0.228848
C4    C     C_R   0.445736 0.311263 0.030126 -0.225274
C5    C     C_R   0.461799 0.188642 0.505490 -0.079554
C6    C     C_R   0.537320 0.811388 0.493471 -0.082839
C7    C     C_R   0.617277 0.969538 0.564191 -0.209983
C8    C     C_R   0.381604 0.030798 0.434401 -0.208627
C9    C     C_R   0.617395 0.863203 0.545856 -0.249711
C10   C     C_R   0.384039 0.137578 0.450443 -0.256662
C11   C     C_R   0.463060 0.866583 0.449927 0.069090
C12   C     C_R   0.532887 0.132729 0.551536 0.066036
C13   C     C_R   0.460138 0.973965 0.470627 0.109123
C14   C     C_R   0.536531 0.025564 0.530153 0.106776
C15   C     C_R   0.953305 0.406395 0.410992 -0.289618
C16   C     C_R   0.047614 0.596538 0.586976 -0.284992
C17   C     C_R   0.838867 0.409887 0.421998 0.229587
C18   C     C_R   0.161797 0.590768 0.577802 0.229972
C19   C     C_R   0.860550 0.542565 0.538227 0.247551
C20   C     C_R   0.140019 0.458700 0.460447 0.251701
C21   C     C_R   0.976909 0.535760 0.531274 0.005185
C22   C     C_R   0.023955 0.467019 0.466534 0.003601
C23   C     C_R   0.501134 0.507779 0.672486 0.884220
C24   C     C_R   0.498740 0.495317 0.327382 0.879650
C25   C     C_R   0.475463 0.396724 0.180087 0.040404
C26   C     C_R   0.497233 0.609759 0.820401 0.039550
C27   C     C_R   0.495510 0.491757 0.231503 -0.066385
C28   C     C_R   0.499578 0.513494 0.768594 -0.060790
C29   C     C_R   0.504264 0.588082 0.192874 -0.243335
C30   C     C_R   0.483717 0.417740 0.807781 -0.241881
C31   C     C_R   0.494333 0.593476 0.101775 0.121162
C32   C     C_R   0.472845 0.413458 0.899694 0.115586
C33   C     C_R   0.480667 0.500591 0.047517 0.038755
C34   C     C_R   0.481573 0.506658 0.954016 0.037979
C35   C     C_R   0.467106 0.401811 0.086412 0.103160
C36   C     C_R   0.490381 0.605567 0.915132 0.100290
C37   C     C_R   0.496410 0.690811 0.064529 -0.189307
C38   C     C_R   0.451931 0.316832 0.937728 -0.191081
H1    H     H_    0.984925 0.351579 0.360282 0.184734
H2    H     H_    0.016133 0.651073 0.637934 0.183133
H3    H     H_    0.518460 0.659429 0.234499 0.166955
H4    H     H_    0.476353 0.345919 0.765859 0.170401
H5    H     H_    0.501889 0.762595 0.106667 0.163861
H6    H     H_    0.440603 0.245243 0.895897 0.161375
H7    H     H_    0.488692 0.773806 0.947982 0.173488
H8    H     H_    0.427127 0.234702 0.055936 0.170146
H9    H     H_    0.328391 0.180670 0.415983 0.199178
H10   H     H_    0.677049 0.820791 0.576441 0.195075
H11   H     H_    0.680046 0.006051 0.606131 0.195401
H12   H     H_    0.320080 0.995075 0.390950 0.194383
N1    N     N_R   0.207800 0.519350 0.516680 -0.121519
N2    N     N_R   0.792200 0.480650 0.483320 -0.120378
O1    O     O_R   0.421700 0.658830 0.504450 -0.615080
O2    O     O_R   0.578300 0.341170 0.495550 -0.614971
O3    O     O_R   0.609310 0.646410 0.493750 -0.598518
O4    O     O_R   0.390690 0.353590 0.506250 -0.597239
O5    O     O_R   0.406180 0.506230 0.637500 -0.652854
O6    O     O_R   0.593820 0.493770 0.362500 -0.644825
O7    O     O_R   0.593800 0.493820 0.626800 -0.556016
O8    O     O_R   0.406200 0.506180 0.373200 -0.561045
Zn1   Zn    Zn3+2 0.374730 0.508290 0.507150 0.980105
Zn2   Zn    Zn3+2 0.625270 0.491710 0.492850 0.981355
C39   C     C_3   0.462496 0.291655 0.223864 -0.407405
C40   C     C_3   0.558133 0.223155 0.195757 -0.379914
C41   C     C_3   0.523049 0.106792 0.201696 -0.862596
H13   H     H_    0.488206 0.090416 0.269938 0.279276
H14   H     H_    0.460147 0.082384 0.152308 0.259858
H15   H     H_    0.595043 0.059774 0.186370 0.256406
H16   H     H_    0.591721 0.236163 0.126484 0.237790
H17   H     H_    0.626631 0.245215 0.239714 0.226664
H18   H     H_    0.457779 0.300784 0.298246 0.189375
H19   H     H_    0.382444 0.251306 0.205747 0.228496
C42   C     C_3   0.491626 0.713762 0.776086 -0.437432
C43   C     C_3   0.593641 0.790623 0.789011 -0.320398
C44   C     C_3   0.564168 0.904671 0.797712 -0.876239
H20   H     H_    0.521777 0.924434 0.737884 0.279350
H21   H     H_    0.509896 0.919120 0.858499 0.253516
H22   H     H_    0.640267 0.957177 0.803097 0.268164
H23   H     H_    0.639309 0.773638 0.848054 0.238772
H24   H     H_    0.650795 0.782736 0.729872 0.243536
H25   H     H_    0.481310 0.701988 0.702921 0.176375
H26   H     H_    0.415919 0.749420 0.803745 0.211850
I1    I     I_    0.628122 0.209669 0.656472 -0.437825
I2    I     I_    0.361430 0.788018 0.349551 -0.427502
I3    I     I_    0.208231 0.351767 0.362270 -0.415367
I4    I     I_    0.792791 0.646245 0.637701 -0.421174
C45   C     C_3   0.228313 0.668724 0.636682 -0.394876
C46   C     C_3   0.219334 0.781327 0.608904 -0.341071
C47   C     C_3   0.295112 0.859799 0.660970 -0.872209
H27   H     H_    0.275153 0.856839 0.734263 0.259945
H28   H     H_    0.381834 0.842293 0.646204 0.266033
H29   H     H_    0.284923 0.940144 0.640290 0.268531
H30   H     H_    0.241182 0.786171 0.536118 0.266872
H31   H     H_    0.133710 0.804149 0.621291 0.226062
H32   H     H_    0.197622 0.662233 0.707795 0.179692
H33   H     H_    0.314470 0.653055 0.635166 0.255899
C48   C     C_3   0.773564 0.324901 0.369705 -0.398620
C49   C     C_3   0.785911 0.218535 0.409784 -0.336422
C50   C     C_3   0.720966 0.128509 0.361518 -0.868847
H34   H     H_    0.632239 0.141186 0.368055 0.277328
H35   H     H_    0.749089 0.121707 0.289604 0.264153
H36   H     H_    0.733884 0.054001 0.392393 0.268824
H37   H     H_    0.873589 0.200475 0.405771 0.227687
H38   H     H_    0.758034 0.222263 0.481634 0.269001
H39   H     H_    0.687108 0.340269 0.367455 0.250243
H40   H     H_    0.805602 0.322143 0.298487 0.173537

loop_
_geom_bond_atom_site_label_1
_geom_bond_atom_site_label_2
_ccdc_geom_bond_type
O6    Zn2   S    
C45   C46   S    
C16   C21   A    
C27   C29   A    
C42   C43   S    
N1    Zn1   S    
C24   C27   S    
C19   I4    S    
C6    C9    A    
C48   C49   S    
C4    H8    S    
C23   O7    A    
C8    C13   A    
C19   C21   A    
C20   N1    A    
C49   H37   S    
O3    Zn2   S    
C26   C42   S    
C7    C9    A    
C25   C39   S    
C1    O1    A    
C13   C14   A    
O1    Zn1   S    
C19   N2    A    
C7    C14   A    
C41   H14   S    
C45   H32   S    
C31   C33   A    
C32   C38   A    
C47   H28   S    
C48   H39   S    
C4    C35   A    
C43   H24   S    
C21   C22   A    
C20   I3    S    
C15   C17   A    
C17   N2    A    
C42   H25   S    
C18   N1    A    
C15   C22   A    
C46   H31   S    
C43   C44   S    
C1    C6    S    
C24   O6    A    
C7    H11   S    
C5    C12   A    
C2    O2    A    
C6    C11   A    
C25   C35   A    
O2    Zn2   S    
C23   C28   S    
C3    H7    S    
C31   C37   A    
C12   I1    S    
O8    Zn1   S    
C32   C34   A    
C37   H5    S    
C44   H20   S    
C38   H6    S    
C50   H34   S    
C24   O8    A    
C41   H15   S    
C45   H33   S    
C33   C34   A    
C40   H16   S    
C39   H19   S    
C47   H29   S    
C44   H21   S    
C15   H1    S    
C16   H2    S    
C48   H40   S    
C16   C18   A    
C50   H35   S    
C39   H18   S    
C41   H13   S    
C40   H17   S    
C43   H23   S    
C2    C5    S    
C20   C22   A    
C8    H12   S    
C42   H26   S    
C26   C36   A    
C23   O5    A    
C46   H30   S    
O7    Zn2   S    
C29   H3    S    
C12   C14   A    
O5    Zn1   S    
C11   I2    S    
C25   C27   A    
C26   C28   A    
C18   C45   S    
C40   C41   S    
C28   C30   A    
C1    O3    A    
C5    C10   A    
C29   C31   A    
C2    O4    A    
C30   C32   A    
C11   C13   A    
C3    C36   A    
C49   H38   S    
C33   C35   A    
C34   C36   A    
C44   H22   S    
C39   C40   S    
C50   H36   S    
C46   C47   S    
C3    C37   A    
C9    H10   S    
C8    C10   A    
C49   C50   S    
C10   H9    S    
O4    Zn1   S    
C30   H4    S    
N2    Zn2   S    
C47   H27   S    
C4    C38   A    
C17   C48   S    
