data_mof_unit_67100.cif
_audit_creation_date              2013-03-05T15:58:39-0500
_audit_creation_method            fapswitch 2.2
_symmetry_space_group_name_H-M    P1
_symmetry_Int_Tables_number       1
_space_group_crystal_system       triclinic
_cell_length_a                    8.464292
_cell_length_b                    12.955929
_cell_length_c                    15.637928
_cell_angle_alpha                 95.242185
_cell_angle_beta                  97.85545
_cell_angle_gamma                 98.334418
_cell_volume                      1670.01670926

loop_
_atom_site_label
_atom_site_type_symbol
_atom_site_description
_atom_site_fract_x
_atom_site_fract_y
_atom_site_fract_z
_atom_type_partial_charge
P1    P     P_3+3 0.998770 0.403620 0.291990 0.508817
O1    O     O_2   0.827930 0.435360 0.277760 -0.336053
O2    O     O_3   0.100310 0.439010 0.391180 -0.401452
O3    O     O_3   0.625610 0.634200 0.333270 -0.388943
O4    O     O_2   0.674644 0.570878 0.177794 -0.286752
O5    O     O_3   0.962346 0.266689 0.268530 -0.573341
O6    O     O_3   0.628981 0.764680 0.212004 -0.452802
H1    H     H_    0.660024 0.863686 0.325650 0.101320
C1    C     C_3   0.504232 0.918699 0.224928 -1.020981
H2    H     H_    0.474339 0.978782 0.272450 0.240219
H3    H     H_    0.595649 0.953546 0.187006 0.294876
P2    P     P_3+3 0.687370 0.751000 0.571300 0.485678
P3    P     P_3+3 0.131838 0.828326 0.413247 0.497688
O7    O     O_2   0.857120 0.766320 0.543890 -0.300524
O8    O     O_3   0.056570 0.691100 0.379020 -0.371295
O9    O     O_2   0.073057 0.863970 0.497790 -0.304801
O10   O     O_3   0.719593 0.771075 0.682845 -0.511070
O11   O     O_3   0.044379 0.907591 0.343068 -0.544130
C2    C     C_3   0.082238 0.877156 0.261519 1.317848
H4    H     H_    0.207449 0.859485 0.265817 -0.261904
C3    C     C_3   0.074882 0.968623 0.206659 -1.168384
H5    H     H_    0.948660 0.970646 0.178661 0.255645
H6    H     H_    0.128261 0.044153 0.246586 0.290900
C4    C     C_3   0.322987 0.773150 0.661072 0.343240
H7    H     H_    0.424118 0.729399 0.656332 0.083434
H8    H     H_    0.251530 0.771034 0.596058 0.092902
C5    C     C_3   0.388403 0.886703 0.699749 0.124266
H9    H     H_    0.481626 0.886413 0.757215 0.162449
H10   H     H_    0.448511 0.927391 0.650969 0.042763
Ba1   Ba    Ba6+2 0.843760 0.550230 0.455610 1.636466
C6    C     C_3   0.880182 0.218985 0.330213 0.952526
H11   H     H_    0.815395 0.272020 0.367285 0.035315
C7    C     C_3   0.762581 0.125005 0.285075 -0.984826
H12   H     H_    0.673227 0.146577 0.234826 0.273045
H13   H     H_    0.701234 0.084831 0.333713 0.242403
H14   H     H_    0.827477 0.069191 0.252966 0.268701
C8    C     C_3   0.799149 0.693225 0.715318 0.382287
H15   H     H_    0.922053 0.702482 0.698004 0.094926
H16   H     H_    0.733634 0.613201 0.689855 0.032588
C9    C     C_3   0.808150 0.706726 0.812969 0.033226
H17   H     H_    0.925937 0.691069 0.843584 0.025157
H18   H     H_    0.716434 0.646436 0.830731 0.164528
P4    P     P_3+3 0.190950 0.596470 0.708020 0.486453
O12   O     O_2   0.361790 0.564680 0.722290 -0.320341
O13   O     O_3   0.089410 0.561080 0.608830 -0.403708
O14   O     O_3   0.564100 0.365890 0.666740 -0.388416
O15   O     O_3   0.222741 0.731240 0.716369 -0.587600
P5    P     P_3+3 0.087299 0.175734 0.626351 0.582135
O16   O     O_3   0.601940 0.368260 0.453780 -0.408508
O17   O     O_3   0.133140 0.308990 0.620990 -0.387526
O18   O     O_2   0.216374 0.124962 0.583478 -0.289789
O19   O     O_3   0.134915 0.164648 0.737393 -0.546590
Ba2   Ba    Ba6+2 0.346080 0.449860 0.544400 1.616431
P6    P     P_3+3 0.560109 0.633623 0.222235 0.559183
C10   C     C_3   0.563585 0.829912 0.270605 0.551489
H19   H     H_    0.459242 0.789087 0.297121 0.003233
H20   H     H_    0.391984 0.888826 0.179565 0.282331
O20   O     O_3   0.587770 0.631830 0.546230 -0.428216
C11   C     C_3   0.429246 0.291306 0.282309 0.187708
H21   H     H_    0.306462 0.301239 0.295902 0.119488
H22   H     H_    0.514234 0.365488 0.304541 0.147253
C12   C     C_3   0.425868 0.267537 0.185765 0.480213
H23   H     H_    0.385108 0.182597 0.169459 0.101609
P7    P     P_3+3 0.508761 0.234829 0.432731 0.447552
O21   O     O_2   0.332600 0.233710 0.456170 -0.294672
O22   O     O_3   0.475810 0.204560 0.321002 -0.619258
H24   H     H_    0.144413 0.959413 0.152013 0.225081
C13   C     C_3   0.118770 0.260508 0.783357 0.245594
H25   H     H_    0.219860 0.322802 0.777356 0.186557
H26   H     H_    0.002156 0.284880 0.757715 -0.008700
C14   C     C_3   0.114809 0.249403 0.878911 0.005798
H27   H     H_    0.030763 0.299480 0.900566 0.113663
H28   H     H_    0.065354 0.168201 0.887202 0.082020
P8    P     P_3+3 0.621930 0.381109 0.779403 0.505971
C15   C     C_3   0.613532 0.179263 0.743749 0.164364
H29   H     H_    0.682372 0.212736 0.694538 0.030911
O23   O     O_2   0.491232 0.433177 0.819259 -0.290979
O24   O     O_3   0.593779 0.254556 0.810998 -0.541698
H30   H     H_    0.491978 0.141020 0.710495 0.146477
H31   H     H_    0.838535 0.120047 0.784475 0.094025
C16   C     C_3   0.706612 0.095183 0.779512 0.076560
H32   H     H_    0.679207 0.025384 0.730941 0.129974
C17   C     C_R   0.337085 0.586397 0.175701 0.269940
H33   H     H_    0.298365 0.549126 0.302822 0.145895
C18   C     C_R   0.096155 0.478634 0.208270 0.324504
C19   C     C_R   0.935120 0.480686 0.772307 -0.647842
C20   C     C_R   0.830255 0.446717 0.828638 0.177681
C21   C     C_R   0.881578 0.459375 0.919898 0.292473
C22   C     C_R   0.044951 0.505328 0.957374 -0.114287
C23   C     C_R   0.146364 0.549460 0.896491 -0.204250
C24   C     C_R   0.109612 0.515279 0.052464 0.073164
C25   C     C_R   0.264170 0.578965 0.084571 -0.119603
C26   C     C_R   0.339376 0.634512 0.024523 0.362730
C27   C     C_R   0.295735 0.609968 0.934846 0.457275
C28   C     C_R   0.031507 0.463604 0.117695 -0.121181
C29   C     C_R   0.245274 0.542385 0.235133 -0.460612
C30   C     C_R   0.089026 0.536959 0.801475 0.286581
H34   H     H_    0.929984 0.402465 0.100640 0.224471
H35   H     H_    0.891248 0.467723 0.703254 0.181926
C31   C     C_R   0.774782 0.181471 0.535454 -0.512061
C32   C     C_R   0.445403 0.813637 0.471589 -0.538203
C33   C     C_R   0.404179 0.987629 0.443817 -0.160101
C34   C     C_R   0.347435 0.879604 0.438226 0.169371
C35   C     C_R   0.595139 0.852706 0.519634 0.294896
C36   C     C_R   0.658983 0.963685 0.529408 -0.189368
C37   C     C_R   0.561093 0.031215 0.486778 -0.102387
C38   C     C_R   0.619513 0.140934 0.491432 0.224722
C39   C     C_R   0.873930 0.117649 0.576448 0.201452
C40   C     C_R   0.812724 0.011274 0.578820 0.351558
H36   H     H_    0.322230 0.037012 0.417004 0.203465
H37   H     H_    0.821255 0.263937 0.536021 0.182756
H38   H     H_    0.396528 0.730886 0.466548 0.159110
O25   O     O_3   0.260272 0.940547 0.718463 -0.537849
C41   C     C_3   0.255877 0.961494 0.809004 0.287633
H39   H     H_    0.165729 0.014021 0.815717 0.174569
H40   H     H_    0.374074 0.001306 0.843742 0.114964
C42   C     C_3   0.198860 0.861941 0.848484 -0.260573
H41   H     H_    0.088760 0.822858 0.805628 0.277377
H42   H     H_    0.298424 0.817308 0.851464 0.284650
C43   C     C_3   0.157580 0.867905 0.939278 -1.011158
H43   H     H_    0.264912 0.891450 0.987759 0.325280
H44   H     H_    0.108333 0.787876 0.952071 0.276296
H45   H     H_    0.066891 0.918883 0.946588 0.295355
Cl1   Cl    Cl    0.017481 0.166017 0.401223 -0.634235
Cl2   Cl    Cl    0.778221 0.836427 0.853107 -0.604967
Cl3   Cl    Cl    0.293339 0.334502 0.127014 -0.709308
Cl4   Cl    Cl    0.613793 0.307751 0.151976 -0.622894
O26   O     O_3   0.262930 0.289170 0.931905 -0.562780
C44   C     C_3   0.363693 0.212376 0.941332 0.483410
H46   H     H_    0.478720 0.256246 0.976226 0.223468
H47   H     H_    0.382030 0.176886 0.877267 0.097483
C45   C     C_3   0.302404 0.125317 0.994740 -0.473708
H48   H     H_    0.233426 0.153747 0.043344 0.272710
H49   H     H_    0.213026 0.068364 0.952481 0.182967
C46   C     C_3   0.433438 0.067567 0.036234 -0.979480
H50   H     H_    0.476046 0.015998 0.986902 0.305159
H51   H     H_    0.383777 0.019887 0.084359 0.283388
H52   H     H_    0.538886 0.120543 0.072229 0.289249
O27   O     O_3   0.969923 0.787389 0.226998 -0.615233
C47   C     C_3   0.998734 0.745930 0.146019 0.138210
H53   H     H_    0.976584 0.659797 0.145663 0.172113
H54   H     H_    0.125135 0.766754 0.133152 0.060710
C48   C     C_3   0.880009 0.781347 0.077270 -0.327226
H55   H     H_    0.787214 0.818707 0.105917 0.299994
H56   H     H_    0.941798 0.842668 0.044014 0.198337
C49   C     C_3   0.796876 0.690262 0.013691 -0.663790
H57   H     H_    0.885884 0.658573 0.978427 0.202931
H58   H     H_    0.707786 0.719527 0.970069 0.342933
H59   H     H_    0.731190 0.629246 0.045645 0.325053
O28   O     O_3   0.662080 0.063859 0.858237 -0.607721
C50   C     C_3   0.744877 0.134172 0.930039 0.384931
H60   H     H_    0.657241 0.166314 0.963847 0.131835
H61   H     H_    0.816423 0.204885 0.913091 0.073783
C51   C     C_3   0.845060 0.079008 0.994020 -0.400904
H62   H     H_    0.768804 0.011343 0.014713 0.255516
H63   H     H_    0.939665 0.049483 0.961863 0.217392
C52   C     C_3   0.922226 0.156074 0.073148 -0.929143
H64   H     H_    0.982313 0.229606 0.052758 0.299585
H65   H     H_    0.013769 0.122337 0.114011 0.291511
H66   H     H_    0.828934 0.174682 0.112346 0.317963
Cl5   Cl    Cl    0.452022 0.759205 0.055891 -0.717074
Cl6   Cl    Cl    0.726775 0.428141 0.982480 -0.621205
Cl7   Cl    Cl    0.439634 0.665288 0.876711 -0.619497
Cl8   Cl    Cl    0.925772 0.951223 0.656651 -0.534110

loop_
_geom_bond_atom_site_label_1
_geom_bond_atom_site_label_2
_geom_bond_distance
_ccdc_geom_bond_type
C48   C49   1.493298 S    
C10   H19   1.111971 S    
C52   H64   1.107845 S    
C46   H52   1.095006 S    
O2    Ba2   2.929079 S    
Ba1   O13   2.928476 S    
C2    H4    1.110782 S    
C47   C48   1.518137 S    
O6    C10   1.411804 S    
C20   C21   1.421052 A    
O26   C44   1.406232 S    
C41   H39   1.102607 S    
C28   H34   1.066972 S    
C46   H50   1.106025 S    
C32   H38   1.083443 S    
C17   C25   1.462300 A    
C26   C27   1.395374 A    
P3    O11   1.735314 S    
O8    Ba1   2.836590 S    
P1    Ba1   3.553639 S    
C2    C3    1.528635 S    
C4    H8    1.105538 S    
C6    Cl1   1.752803 S    
O11   C2    1.393167 S    
C8    C9    1.511233 S    
C42   H42   1.087310 S    
C11   O22   1.404296 S    
C12   Cl4   1.766528 S    
C18   C29   1.393274 A    
O16   Ba2   3.007476 S    
C5    H10   1.104747 S    
C37   C38   1.427587 A    
C17   C29   1.399515 A    
C16   O28   1.412857 S    
C7    H14   1.095876 S    
C39   C40   1.405978 A    
C48   H56   1.097528 S    
P1    O1    1.552675 D    
H33   C29   1.082456 S    
C50   C51   1.518351 S    
C19   C30   1.392156 A    
C35   C36   1.447332 A    
O12   Ba2   3.009080 S    
P4    Ba2   3.554191 S    
P5    O18   1.550413 D    
C45   H48   1.089375 S    
C11   C12   1.508546 S    
P8    O23   1.547688 D    
P2    O10   1.717906 S    
C50   H60   1.076885 S    
C6    C7    1.507035 S    
C1    C10   1.518351 S    
P8    C20   1.870670 S    
C22   C24   1.499813 A    
Ba2   O21   2.986195 S    
C1    H2    1.106814 S    
C23   C30   1.485146 A    
C51   H63   1.097325 S    
O19   C13   1.410928 S    
C43   H45   1.093464 S    
C44   C45   1.536177 S    
P2    O20   1.633993 S    
P5    O17   1.726088 S    
O5    C6    1.401347 S    
O13   Ba2   3.008652 S    
C11   H21   1.111756 S    
C52   H65   1.101660 S    
O16   P7    1.774445 S    
C3    H5    1.102798 S    
C3    H24   1.109088 S    
O7    Ba1   2.985954 S    
H1    C10   1.110999 S    
P6    C17   1.917230 S    
C43   H44   1.106457 S    
C23   C27   1.411480 A    
C49   H58   1.080413 S    
P1    C18   1.906120 S    
Ba1   Ba2   4.658848 S    
C31   C39   1.396404 A    
O17   Ba2   2.837248 S    
C11   H22   1.110047 S    
C49   H57   1.096412 S    
P1    O5    1.751731 S    
C45   C46   1.530867 S    
O4    P6    1.546943 D    
C47   H53   1.103819 S    
C51   C52   1.522814 S    
C42   C43   1.505788 S    
C24   C25   1.440894 A    
C12   Cl3   1.732413 S    
C19   C20   1.388826 A    
C13   H25   1.108119 S    
P2    Ba1   3.547428 S    
C16   H32   1.101829 S    
P1    O2    1.657193 S    
P7    O22   1.730368 S    
O2    Ba1   3.007804 S    
C15   H29   1.109103 S    
C8    H15   1.103020 S    
C49   H59   1.097475 S    
P4    O13   1.657194 S    
C6    H11   1.110077 S    
C26   Cl5   1.743670 S    
Ba2   O20   2.884017 S    
C4    C5    1.531824 S    
C12   H23   1.099859 S    
C7    H12   1.098425 S    
O10   C8    1.387683 S    
C4    H7    1.099935 S    
C19   H35   1.082297 S    
C1    H3    1.107848 S    
C51   H62   1.111197 S    
C5    O25   1.420315 S    
C2    O27   1.404371 S    
C9    H17   1.100108 S    
Ba1   O16   2.884668 S    
P2    O7    1.545568 D    
C32   C35   1.382484 A    
C3    H6    1.111140 S    
P4    O12   1.552969 D    
C14   O26   1.405275 S    
C33   H36   1.079109 S    
P3    C34   1.824938 S    
O14   P8    1.747940 S    
C43   H43   1.087342 S    
P7    C38   1.871025 S    
C14   H28   1.100420 S    
O25   C41   1.423682 S    
C32   C34   1.363439 A    
C46   H51   1.104906 S    
C36   C40   1.440867 A    
C31   C38   1.401250 A    
O3    P6    1.748040 S    
C4    O15   1.383980 S    
C15   C16   1.536176 S    
P4    C30   1.957619 S    
C47   H54   1.114920 S    
H31   C16   1.106410 S    
C40   Cl8   1.752939 S    
C41   H40   1.101231 S    
O27   C47   1.396321 S    
P2    C35   1.821780 S    
C52   H66   1.103592 S    
C36   C37   1.436024 A    
O1    Ba1   3.008642 S    
P7    O21   1.581761 D    
P3    O8    1.804939 S    
C44   H46   1.098379 S    
C14   H27   1.095993 S    
C8    H16   1.112894 S    
C42   H41   1.097488 S    
C18   C28   1.431916 A    
P5    C39   1.884263 S    
P4    O15   1.717776 S    
C13   C14   1.518619 S    
C21   Cl6   1.762826 S    
C9    Cl2   1.804446 S    
Ba1   O20   3.008396 S    
O14   Ba2   2.871654 S    
C9    H18   1.101251 S    
C25   C26   1.399629 A    
C7    H13   1.104996 S    
C33   C37   1.415487 A    
C1    H20   1.102138 S    
C50   H61   1.097138 S    
C33   C34   1.402988 A    
C15   O24   1.411873 S    
C41   C42   1.524519 S    
C24   C28   1.451438 A    
P5    O19   1.751976 S    
C21   C22   1.444365 A    
C31   H37   1.082507 S    
C45   H49   1.079778 S    
P8    O24   1.748195 S    
P3    O9    1.530868 D    
C5    H9    1.112585 S    
C13   H26   1.113594 S    
O28   C50   1.412326 S    
O6    P6    1.742619 S    
C22   C23   1.466550 A    
C15   H30   1.110566 S    
C27   Cl7   1.729842 S    
O3    Ba1   2.872320 S    
C48   H55   1.103934 S    
C44   H47   1.103733 S    
