data_mof_unit_43018.cif
_audit_creation_date              2012-12-10T19:10:06-0500
_audit_creation_method            fapswitch 2.2
_symmetry_space_group_name_H-M    P1
_symmetry_Int_Tables_number       1
_space_group_crystal_system       triclinic
_cell_length_a                    10.806338
_cell_length_b                    10.804818
_cell_length_c                    9.530315
_cell_angle_alpha                 90.024157
_cell_angle_beta                  90.039204
_cell_angle_gamma                 89.974506
_cell_volume                      1112.76402131

loop_
_atom_site_label
_atom_site_type_symbol
_atom_type_description
_atom_site_fract_x
_atom_site_fract_y
_atom_site_fract_z
_atom_type_partial_charge
C1    C     C_R   0.501069 0.262330 0.499874 0.822198
C2    C     C_R   0.240048 0.761724 0.060393 -0.117627
C3    C     C_R   0.933080 0.555311 0.392834 -0.255441
C4    C     C_R   0.871693 0.493479 0.501322 -0.086867
C5    C     C_R   0.939304 0.436665 0.610970 -0.002138
C6    C     C_R   0.067497 0.444836 0.609293 -0.239281
C7    C     C_R   0.128541 0.505627 0.500089 -0.086440
C8    C     C_R   0.061135 0.562656 0.391217 -0.004008
C9    C     C_R   0.904454 0.397320 0.866475 -0.197795
C10   C     C_R   0.852095 0.329102 0.975962 -0.149749
C11   C     C_R   0.778906 0.225844 0.946269 -0.104073
C12   C     C_R   0.262396 0.503194 0.499894 0.802484
C13   C     C_R   0.758166 0.190707 0.807131 -0.129641
C14   C     C_R   0.808456 0.260080 0.697103 -0.100989
C15   C     C_R   0.881280 0.364757 0.726127 0.134833
C16   C     C_R   0.501015 0.063336 0.624760 0.083600
C17   C     C_R   0.510929 0.129233 0.499612 -0.088423
C18   C     C_R   0.537509 0.064484 0.375164 -0.241680
C19   C     C_R   0.538193 0.935397 0.375263 -0.239724
C20   C     C_R   0.512753 0.870605 0.499900 -0.097384
C21   C     C_R   0.503058 0.936326 0.625121 0.108552
C22   C     C_3   0.410601 0.926997 0.741020 -0.501584
C23   C     C_R   0.501889 0.737625 0.499911 0.793332
C24   C     C_3   0.407568 0.068164 0.740777 -0.052644
C25   C     C_R   0.548267 0.597796 0.073669 0.212874
C26   C     C_R   0.440501 0.410315 0.074368 -0.066177
C27   C     C_R   0.440555 0.410281 0.925408 -0.088288
C28   C     C_R   0.547100 0.598607 0.926180 0.231779
C29   C     C_3   0.676142 0.647115 0.919015 0.238930
C30   C     C_3   0.678336 0.643633 0.078498 -0.552709
C31   C     C_R   0.737684 0.496005 0.500388 0.772441
C32   C     C_R   0.246461 0.805986 0.198039 -0.116337
C33   C     C_R   0.187310 0.741880 0.306287 -0.119826
C34   C     C_R   0.121167 0.633008 0.276859 0.134600
C35   C     C_R   0.114602 0.589487 0.138274 -0.151935
C36   C     C_R   0.174423 0.653470 0.030471 -0.144703
Cu1   Cu    Cu3+1 0.499990 0.499980 0.640670 0.953135
Cu2   Cu    Cu3+1 0.500010 0.500020 0.359330 0.946364
H1    H     H_    0.285745 0.811352 0.976939 0.118446
H2    H     H_    0.739081 0.172457 0.031045 0.120494
H3    H     H_    0.703930 0.109067 0.784944 0.125334
H4    H     H_    0.791909 0.231561 0.589751 0.096050
H5    H     H_    0.552638 0.112847 0.277125 0.161094
H6    H     H_    0.553154 0.887031 0.277180 0.166142
H7    H     H_    0.323082 0.881585 0.707377 0.183871
H8    H     H_    0.452801 0.888299 0.837820 0.212467
H9    H     H_    0.444136 0.111156 0.838386 0.151402
H10   H     H_    0.394126 0.336554 0.130073 0.136828
H11   H     H_    0.297403 0.889827 0.220847 0.129284
H12   H     H_    0.393961 0.336774 0.869533 0.156273
H13   H     H_    0.740796 0.580123 0.869535 0.115328
H14   H     H_    0.743557 0.573100 0.119916 0.172774
H15   H     H_    0.685571 0.736311 0.128508 0.206924
H16   H     H_    0.193459 0.776466 0.412802 0.098464
H17   H     H_    0.065054 0.505000 0.114653 0.115573
H18   H     H_    0.170037 0.619118 0.923838 0.140851
H19   H     H_    0.881048 0.601917 0.311273 0.149926
H20   H     H_    0.120285 0.399341 0.691339 0.163995
H21   H     H_    0.961117 0.477108 0.890595 0.115882
H22   H     H_    0.868647 0.356018 0.083777 0.131059
N1    N     N_R   0.500790 0.500930 0.147930 -0.175877
N2    N     N_R   0.500790 0.500890 0.852020 -0.212716
O1    O     O_R   0.500000 0.319640 0.618810 -0.568069
O2    O     O_R   0.500010 0.319680 0.381230 -0.599236
O3    O     O_R   0.319640 0.499990 0.618790 -0.586361
O4    O     O_R   0.319650 0.500030 0.381210 -0.565243
O5    O     O_R   0.499990 0.680320 0.618770 -0.566113
O6    O     O_R   0.500000 0.680360 0.381190 -0.579604
O7    O     O_R   0.680350 0.499970 0.618790 -0.591041
O8    O     O_R   0.680360 0.500010 0.381210 -0.582997
N3    N     N_3   0.288536 0.119903 0.695923 -0.586457
H23   H     H_    0.224222 0.102687 0.775455 0.222820
H24   H     H_    0.256925 0.074327 0.605806 0.232154
O9    O     O_3   0.677850 0.770365 0.868246 -0.608234
C37   C     C_3   0.775149 0.788067 0.771027 0.084114
H25   H     H_    0.755219 0.874325 0.711851 0.153197
H26   H     H_    0.779280 0.712683 0.691598 0.144616
C38   C     C_3   0.900040 0.803719 0.845666 -0.356657
H27   H     H_    0.894981 0.884070 0.918312 0.229297
H28   H     H_    0.921712 0.719717 0.908182 0.212206
C39   C     C_3   0.004180 0.824855 0.740182 -0.941898
H29   H     H_    0.013449 0.743506 0.669581 0.263943
H30   H     H_    0.092922 0.838226 0.796850 0.254361
H31   H     H_    0.985412 0.908829 0.676392 0.255671

loop_
_geom_bond_atom_site_label_1
_geom_bond_atom_site_label_2
_ccdc_geom_bond_type
Cu2   O8    S    
C16   C21   A    
Cu1   O7    S    
C6    H20   S    
C35   C36   A    
C13   H3    S    
Cu1   N2    S    
C7    C8    A    
C25   C28   A    
C26   C27   A    
Cu1   Cu2   S    
C28   C29   S    
C26   N1    A    
C18   C19   A    
C5    C6    A    
C38   H28   S    
C25   C30   S    
C2    C32   A    
C34   C35   A    
C23   O5    A    
C39   H30   S    
C2    H1    S    
C31   O8    A    
Cu2   O4    S    
C16   C17   A    
Cu1   O3    S    
C9    C10   A    
C27   H12   S    
C26   H10   S    
C14   H4    S    
Cu2   N1    S    
C16   C24   S    
C21   C22   S    
C1    O1    A    
Cu1   O1    S    
C17   C18   A    
Cu2   O2    S    
C7    C12   S    
C30   H15   S    
O9    C37   S    
C35   H17   S    
C3    C8    A    
N3    H24   S    
C38   H27   S    
C8    C34   S    
C29   O9    S    
C12   O4    A    
C39   H29   S    
C9    H21   S    
C23   O6    A    
C10   H22   S    
C37   H25   S    
C29   C30   S    
C36   H18   S    
C27   N2    A    
C20   C23   S    
C33   C34   A    
C25   N1    A    
C37   H26   S    
C3    H19   S    
C22   H8    S    
Cu2   O6    S    
C22   C24   S    
C3    C4    A    
C1    O2    A    
C39   H31   S    
C19   H6    S    
C29   H13   S    
C2    C36   A    
C33   H16   S    
C30   H14   S    
C24   H9    S    
C4    C5    A    
C6    C7    A    
C12   O3    A    
C1    C17   S    
C32   C33   A    
C19   C20   A    
C9    C15   A    
N3    H23   S    
C18   H5    S    
C11   C13   A    
C38   C39   S    
Cu1   O5    S    
C11   H2    S    
C37   C38   S    
C32   H11   S    
C5    C15   S    
C4    C31   S    
C10   C11   A    
C31   O7    A    
C22   H7    S    
C20   C21   A    
C14   C15   A    
C13   C14   A    
C24   N3    S    
C28   N2    A    
