data_mof_unit_5445.cif
_audit_creation_date              2013-03-05T15:53:43-0500
_audit_creation_method            fapswitch 2.2
_symmetry_space_group_name_H-M    P1
_symmetry_Int_Tables_number       1
_space_group_crystal_system       triclinic
_cell_length_a                    14.907596
_cell_length_b                    14.774303
_cell_length_c                    16.946567
_cell_angle_alpha                 109.145826
_cell_angle_beta                  106.19632
_cell_angle_gamma                 108.099914
_cell_volume                      3035.19081274

loop_
_atom_site_label
_atom_site_type_symbol
_atom_site_description
_atom_site_fract_x
_atom_site_fract_y
_atom_site_fract_z
_atom_type_partial_charge
C1    C     C_R   0.089562 0.274705 0.049355 -0.139466
H1    H     H_    0.168154 0.291654 0.089593 0.099850
N1    N     N_R   0.055640 0.348550 0.045600 -0.039258
C2    C     C_R   0.935016 0.521360 0.747734 -0.139124
H2    H     H_    0.856170 0.502106 0.705415 0.089450
N2    N     N_R   0.960830 0.507850 0.823710 -0.038128
C3    C     C_R   0.768771 0.200152 0.810124 -0.130539
H3    H     H_    0.748773 0.133495 0.825214 0.094610
N3    N     N_R   0.811290 0.303400 0.871650 -0.041311
C4    C     C_R   0.254347 0.530767 0.945225 -0.142568
H4    H     H_    0.260876 0.560670 0.896159 0.110649
N4    N     N_R   0.205180 0.552990 0.997660 -0.040717
C5    C     C_R   0.779821 0.297981 0.734361 -0.131169
H5    H     H_    0.776771 0.325319 0.682500 0.096008
N5    N     N_R   0.814810 0.361830 0.823710 -0.041737
C6    C     C_R   0.257533 0.441005 0.028142 -0.117616
H6    H     H_    0.276487 0.394039 0.060795 0.089129
N6    N     N_R   0.201660 0.494570 0.045600 -0.038307
C7    C     C_R   0.107199 0.605969 0.824518 -0.148057
H7    H     H_    0.186803 0.665354 0.852949 0.085714
N7    N     N_R   0.068420 0.560530 0.871650 -0.037870
C8    C     C_R   0.917187 0.191385 0.973839 -0.124334
H8    H     H_    0.837617 0.132952 0.945740 0.085995
N8    N     N_R   0.948050 0.295860 0.997660 -0.040034
C9    C     C_R   0.004673 0.173783 0.998882 0.067350
C10   C     C_R   0.025376 0.583310 0.746270 0.071750
C11   C     C_R   0.753235 0.194789 0.723631 0.096223
C12   C     C_R   0.288328 0.459670 0.962392 0.068557
C13   C     C_R   0.273658 0.689134 0.252824 -0.142535
H9    H     H_    0.296499 0.652132 0.295101 0.100446
N9    N     N_R   0.185190 0.638170 0.176290 -0.039096
C14   C     C_R   0.704856 0.500891 0.918244 -0.154580
H10   H     H_    0.682244 0.523472 0.864074 0.104349
N10   N     N_R   0.798340 0.505430 0.954400 -0.038517
C15   C     C_R   0.889643 0.463547 0.187861 -0.131996
H11   H     H_    0.807153 0.434853 0.169064 0.096342
N11   N     N_R   0.931580 0.439470 0.128350 -0.042011
C16   C     C_R   0.079944 0.809048 0.046807 -0.126406
H12   H     H_    0.159104 0.870260 0.089842 0.099832
N12   N     N_R   0.051950 0.704140 0.002340 -0.041590
C17   C     C_R   0.907428 0.724469 0.970153 -0.114013
H13   H     H_    0.826043 0.706891 0.941906 0.100463
N13   N     N_R   0.944360 0.651450 0.954400 -0.042174
C18   C     C_R   0.063503 0.548366 0.265348 -0.119843
H14   H     H_    0.142055 0.597556 0.318232 0.100021
N14   N     N_R   0.039170 0.492150 0.176290 -0.042090
C19   C     C_R   0.279546 0.784965 0.175955 -0.132482
H15   H     H_    0.309061 0.837004 0.147548 0.084224
N15   N     N_R   0.188710 0.696600 0.128350 -0.038773
C20   C     C_R   0.698263 0.406767 0.996585 -0.133991
H16   H     H_    0.669462 0.345206 0.016580 0.086022
N16   N     N_R   0.794820 0.447010 0.002340 -0.039064
Ni1   Ni    Ni4+2 0.119330 0.493420 0.109950 0.221813
Ni2   Ni    Ni4+2 0.880670 0.506580 0.890050 0.211351
Ni3   Ni    Ni4+2 0.872590 0.372590 0.000000 0.214187
Ni4   Ni    Ni4+2 0.127410 0.627410 0.000000 0.209422
C21   C     C_R   0.335897 0.781993 0.254435 0.062954
C22   C     C_R   0.639645 0.439193 0.943331 0.081795
C23   C     C_R   0.970813 0.533799 0.274849 0.059671
C24   C     C_R   0.990699 0.825489 0.029210 0.051755
C25   C     C_R   0.392993 0.460553 0.871192 0.165472
C26   C     C_R   0.349025 0.417054 0.921148 0.033437
C27   C     C_R   0.378562 0.343495 0.942647 -0.198940
H17   H     H_    0.342640 0.302555 0.975924 0.132426
C28   C     C_R   0.467826 0.336724 0.936342 -0.190622
H18   H     H_    0.496279 0.289928 0.964358 0.126859
C29   C     C_R   0.527757 0.404813 0.909720 0.029865
C30   C     C_R   0.481540 0.454430 0.865510 0.157738
C31   C     C_3   0.525710 0.564167 0.872510 -0.507247
C32   C     C_3   0.429127 0.571061 0.878904 -0.516314
H19   H     H_    0.597246 0.622539 0.937102 0.201261
H20   H     H_    0.531066 0.562637 0.807986 0.200962
H21   H     H_    0.446556 0.633248 0.947198 0.200743
H22   H     H_    0.379027 0.573799 0.818153 0.197180
C33   C     C_R   0.960963 0.578171 0.361621 0.124889
C34   C     C_R   0.032230 0.625386 0.679559 0.122054
C35   C     C_R   0.135850 0.697579 0.607850 -0.213777
C36   C     C_R   0.129711 0.681964 0.683091 -0.174561
C37   C     C_R   0.940935 0.597690 0.605122 -0.267036
C38   C     C_R   0.946521 0.607773 0.527695 0.181533
C39   C     C_R   0.044843 0.653569 0.527643 0.182310
C40   C     C_R   0.051036 0.642522 0.444902 -0.268638
C41   C     C_R   0.862751 0.544726 0.363590 -0.167321
C42   C     C_R   0.855607 0.560962 0.446751 -0.197370
H23   H     H_    0.127183 0.673963 0.445402 0.122876
H24   H     H_    0.791405 0.499254 0.300969 0.120115
H25   H     H_    0.211853 0.734763 0.609304 0.137823
H26   H     H_    0.779468 0.527722 0.446235 0.140235
H27   H     H_    0.201707 0.707728 0.740686 0.118120
H28   H     H_    0.864984 0.557755 0.602265 0.121304
C43   C     C_R   0.713099 0.098688 0.636684 0.080232
C44   C     C_R   0.444942 0.854856 0.319872 0.102941
C45   C     C_R   0.588051 0.031160 0.392435 -0.182301
C46   C     C_R   0.496710 0.950406 0.317479 -0.165443
C47   C     C_R   0.493803 0.834967 0.391685 -0.192306
C48   C     C_R   0.583519 0.916721 0.469049 0.004889
C49   C     C_R   0.625943 0.017795 0.471050 0.159481
C50   C     C_R   0.694654 0.107217 0.554445 -0.264749
C51   C     C_R   0.684241 0.997335 0.633727 -0.297662
C52   C     C_R   0.622122 0.904999 0.549517 0.327906
H29   H     H_    0.722492 0.184319 0.554943 0.123241
H30   H     H_    0.706722 0.989497 0.696649 0.166259
H31   H     H_    0.622220 0.107681 0.392691 0.120550
H32   H     H_    0.463113 0.966874 0.261634 0.111856
H33   H     H_    0.455672 0.760719 0.392846 0.158103
C53   C     C_R   0.100526 0.060349 0.978110 0.154959
C54   C     C_R   0.006749 0.068225 0.967006 0.030400
C55   C     C_R   0.913393 0.972047 0.910875 -0.197710
H34   H     H_    0.838388 0.971251 0.901712 0.134784
C56   C     C_R   0.915047 0.877070 0.857553 -0.169535
H35   H     H_    0.842566 0.806296 0.809839 0.148589
C57   C     C_R   0.009502 0.875829 0.860289 0.039920
C58   C     C_R   0.101549 0.965828 0.926525 0.150452
C59   C     C_3   0.195649 0.022293 0.915794 -0.477209
C60   C     C_3   0.194277 0.125828 0.970992 -0.532425
H36   H     H_    0.263884 0.012912 0.952798 0.185166
H37   H     H_    0.179500 0.005134 0.842940 0.204752
H38   H     H_    0.262618 0.176804 0.039173 0.185866
H39   H     H_    0.175831 0.167787 0.929550 0.205890
N17   N     N_R   0.593858 0.801706 0.547810 0.230839
O1    O     O_R   0.588268 0.790240 0.619494 -0.419819
O2    O     O_R   0.588830 0.722744 0.480458 -0.413834

loop_
_geom_bond_atom_site_label_1
_geom_bond_atom_site_label_2
_geom_bond_distance
_ccdc_geom_bond_type
C25   C32   1.499064 S    
C6    C12   1.391614 A    
C27   C28   1.395448 A    
C45   C46   1.386611 A    
C21   C44   1.468041 S    
C45   C49   1.398210 A    
C17   H13   1.080398 S    
C47   C48   1.394940 A    
C34   C37   1.403073 A    
C14   C22   1.375082 A    
C38   C42   1.398211 A    
C45   H31   1.084139 S    
C49   C50   1.385207 A    
C3    H3    1.072119 S    
C19   N15   1.337982 A    
C35   C36   1.390102 A    
N17   O1    1.301558 A    
N8    Ni3   1.827548 S    
C26   C27   1.405443 A    
C41   C42   1.390257 A    
C7    N7    1.338296 A    
N2    Ni2   1.855161 S    
C16   H12   1.080052 S    
C38   C39   1.411062 A    
C53   C54   1.404290 A    
C18   C23   1.394154 A    
C3    C11   1.389762 A    
C55   H34   1.080865 S    
C15   C23   1.391222 A    
C1    H1    1.077206 S    
C31   H19   1.112348 S    
C7    C10   1.382416 A    
C56   H35   1.081976 S    
C37   H28   1.080756 S    
C47   H33   1.076942 S    
N6    Ni1   1.855188 S    
N12   N13   1.385996 A    
C15   H11   1.078146 S    
N17   O2    1.301484 A    
C6    H6    1.074239 S    
N12   Ni4   1.827548 S    
C8    C9    1.386740 A    
C32   H22   1.111986 S    
C20   N16   1.336735 A    
C54   C55   1.416662 A    
C11   C43   1.467317 S    
N3    Ni3   1.861005 S    
N16   Ni3   1.828578 S    
C46   H32   1.080755 S    
C5    H5    1.076839 S    
C1    C9    1.394081 A    
C17   N13   1.341767 A    
N1    N8    1.385995 A    
C31   C32   1.505363 S    
N9    N15   1.365162 A    
C57   C58   1.392460 A    
C18   N14   1.335789 A    
C59   C60   1.518812 S    
C36   H27   1.080516 S    
C2    C10   1.385760 A    
C53   C58   1.390859 A    
C29   C30   1.399817 A    
C20   C22   1.382529 A    
N5    Ni2   1.817669 S    
C2    N2    1.336255 A    
C30   C31   1.497721 S    
C28   C29   1.406346 A    
N2    N7    1.385993 A    
C44   C47   1.403926 A    
C39   C40   1.390236 A    
C27   H17   1.077766 S    
C1    N1    1.349254 A    
C14   N10   1.326914 A    
C31   H20   1.111828 S    
C13   H9    1.079160 S    
C19   C21   1.383626 A    
N13   Ni2   1.816718 S    
C10   C34   1.470008 S    
C19   H15   1.080366 S    
C35   C39   1.397975 A    
C60   H38   1.111736 S    
C48   C49   1.413896 A    
C51   H30   1.080975 S    
C32   H21   1.112435 S    
C44   C46   1.402899 A    
C20   H16   1.080304 S    
N9    Ni1   1.817668 S    
N4    Ni4   1.828579 S    
C4    N4    1.325189 A    
C16   C24   1.394608 A    
C13   C21   1.383527 A    
N10   Ni2   1.855190 S    
C60   H39   1.112159 S    
C5    N5    1.330921 A    
C8    N8    1.342967 A    
C40   H23   1.081146 S    
C23   C33   1.470228 S    
C18   H14   1.077575 S    
C9    C54   1.487165 S    
C58   C59   1.487135 S    
C4    C12   1.376026 A    
C3    N3    1.342773 A    
C15   N11   1.337559 A    
C52   N17   1.439451 S    
C42   H26   1.083930 S    
C17   C24   1.395035 A    
C34   C36   1.406418 A    
C2    H2    1.079357 S    
N7    Ni4   1.861176 S    
C59   H36   1.111731 S    
C33   C40   1.402926 A    
C50   H29   1.080695 S    
N10   N16   1.365043 A    
C51   C52   1.398548 A    
C53   C60   1.494742 S    
C14   H10   1.079711 S    
C7    H7    1.080266 S    
N3    N5    1.365163 A    
C13   N9    1.332911 A    
N15   Ni4   1.861002 S    
C16   N12   1.341958 A    
N1    Ni1   1.816719 S    
C25   C30   1.378151 A    
C33   C41   1.406208 A    
C48   C52   1.414132 A    
N14   Ni1   1.855163 S    
C55   C56   1.410101 A    
C43   C50   1.398835 A    
C25   C26   1.401438 A    
C56   C57   1.401926 A    
C59   H37   1.112419 S    
C4    H4    1.074920 S    
C37   C38   1.390057 A    
N11   Ni3   1.861173 S    
C22   C29   1.455473 S    
C41   H24   1.080496 S    
C35   H25   1.083940 S    
C6    N6    1.342027 A    
C28   H18   1.080987 S    
N4    N6    1.365044 A    
C8    H8    1.076134 S    
C5    C11   1.384563 A    
C43   C51   1.402977 A    
N11   N14   1.385993 A    
C12   C26   1.456659 S    
