data_mof_unit_42239.cif
_audit_creation_date              2012-12-10T19:04:15-0500
_audit_creation_method            fapswitch 2.2
_symmetry_space_group_name_H-M    P1
_symmetry_Int_Tables_number       1
_space_group_crystal_system       triclinic
_cell_length_a                    10.644099
_cell_length_b                    10.813362
_cell_length_c                    9.547909
_cell_angle_alpha                 90.296898
_cell_angle_beta                  89.300775
_cell_angle_gamma                 90.22911
_cell_volume                      1098.84486485

loop_
_atom_site_label
_atom_site_type_symbol
_atom_type_description
_atom_site_fract_x
_atom_site_fract_y
_atom_site_fract_z
_atom_type_partial_charge
C1    C     C_R   0.497811 0.262317 0.499708 0.838806
C2    C     C_3   0.962612 0.497252 0.366039 -0.213930
C3    C     C_3   0.043796 0.396518 0.436244 -0.219871
C4    C     C_3   0.123056 0.500171 0.502911 -0.101798
C5    C     C_R   0.491747 0.064455 0.624558 0.115468
C6    C     C_R   0.482644 0.129428 0.499903 -0.247648
C7    C     C_R   0.445522 0.065492 0.378816 -0.187574
C8    C     C_R   0.434939 0.936479 0.379447 0.420567
C9    C     C_R   0.469765 0.870523 0.501739 -0.258277
C10   C     C_R   0.484148 0.937621 0.626331 -0.043872
C11   C     C_3   0.578416 0.928643 0.741558 0.172217
C12   C     C_R   0.259485 0.500041 0.500891 0.803696
C13   C     C_3   0.589353 0.069368 0.735265 0.247835
C14   C     C_R   0.567266 0.586807 0.073394 0.241605
C15   C     C_R   0.424478 0.422008 0.074987 -0.064579
C16   C     C_R   0.424182 0.422274 0.926099 -0.009190
C17   C     C_R   0.568368 0.585807 0.925959 0.141773
C18   C     C_3   0.706985 0.605963 0.917087 -0.499369
C19   C     C_3   0.706442 0.606018 0.076361 0.174869
C20   C     C_R   0.491687 0.737564 0.500325 0.825735
C21   C     C_R   0.740560 0.500038 0.499223 0.886242
C22   C     C_3   0.038987 0.502862 0.636027 -0.273347
C23   C     C_3   0.957983 0.402174 0.566746 0.380399
C24   C     C_3   0.877180 0.499948 0.497582 -0.029094
C25   C     C_3   0.958744 0.600558 0.562647 0.388727
C26   C     C_3   0.044570 0.600925 0.431988 -0.177654
Cu1   Cu    Cu3+1 0.499990 0.499980 0.640670 0.978047
Cu2   Cu    Cu3+1 0.500010 0.500020 0.359330 0.971711
H1    H     H_    0.681788 0.105045 0.696729 0.082654
N1    N     N_R   0.500800 0.500930 0.147930 -0.215385
N2    N     N_R   0.500800 0.500890 0.852020 -0.186031
O1    O     O_R   0.500000 0.319640 0.618810 -0.551402
O2    O     O_R   0.500010 0.319680 0.381230 -0.595763
O3    O     O_R   0.316850 0.499950 0.618770 -0.596152
O4    O     O_R   0.316860 0.499990 0.381190 -0.589942
O5    O     O_R   0.499990 0.680320 0.618770 -0.592181
O6    O     O_R   0.500000 0.680360 0.381190 -0.547210
O7    O     O_R   0.683140 0.500010 0.618810 -0.556655
O8    O     O_R   0.683150 0.500050 0.381230 -0.592670
O9    O     O_3   0.908434 0.298784 0.635556 -0.743107
H2    H     H_    0.982282 0.252099 0.668469 0.323885
H3    H     H_    0.665906 0.878376 0.712143 0.107789
O10   O     O_3   0.543663 0.129380 0.855909 -0.652753
H4    H     H_    0.614507 0.130884 0.922452 0.339507
H5    H     H_    0.365341 0.357058 0.131249 0.146267
H6    H     H_    0.364692 0.357655 0.870668 0.159008
H7    H     H_    0.758107 0.525480 0.871741 0.214057
H8    H     H_    0.731695 0.696552 0.869510 0.233580
H9    H     H_    0.757571 0.526769 0.121416 0.145577
O11   O     O_3   0.741411 0.720308 0.135861 -0.681207
H10   H     H_    0.686913 0.785954 0.097231 0.364534
H11   H     H_    0.071063 0.505157 0.746220 0.157396
O12   O     O_3   0.909957 0.706688 0.627019 -0.744250
H12   H     H_    0.983960 0.753030 0.661629 0.325597
H13   H     H_    0.082767 0.684079 0.378364 0.152281
H14   H     H_    0.931906 0.494268 0.255707 0.167118
H15   H     H_    0.081390 0.311287 0.386087 0.150042
H16   H     H_    0.425838 0.114994 0.283202 0.191744
O13   O     O_3   0.394227 0.879513 0.258730 -0.688364
H17   H     H_    0.342536 0.807071 0.286414 0.325299
O14   O     O_3   0.523494 0.888957 0.868069 -0.659266
H18   H     H_    0.484963 0.807193 0.849202 0.344510

loop_
_geom_bond_atom_site_label_1
_geom_bond_atom_site_label_2
_ccdc_geom_bond_type
C23   O9    S    
C4    C26   S    
C23   C24   S    
C6    C7    A    
Cu1   O5    S    
C4    C12   S    
C12   O3    A    
C4    C22   S    
C9    C10   A    
C19   H9    S    
C9    C20   S    
C5    C13   S    
C21   O8    A    
C13   O10   S    
O10   H4    S    
C26   H13   S    
Cu2   N1    S    
O11   H10   S    
Cu1   O1    S    
C1    O2    A    
O13   H17   S    
C2    C26   S    
C2    H14   S    
O12   H12   S    
C18   H7    S    
C16   N2    A    
C20   O6    A    
C11   C13   S    
C14   C17   A    
Cu1   O3    S    
C5    C6    A    
Cu2   O6    S    
C11   H3    S    
C3    H15   S    
C13   H1    S    
O9    H2    S    
C25   O12   S    
Cu2   O2    S    
C17   C18   S    
C2    C3    S    
C8    O13   S    
C2    C24   S    
O14   H18   S    
C17   N2    A    
C7    C8    A    
C10   C11   S    
C15   H5    S    
Cu1   O7    S    
Cu1   N2    S    
C1    C6    S    
C20   O5    A    
C19   O11   S    
C5    C10   A    
C24   C25   S    
C3    C4    S    
C15   N1    A    
C22   H11   S    
C18   C19   S    
C21   C24   S    
C16   H6    S    
Cu1   Cu2   S    
C22   C23   S    
C7    H16   S    
Cu2   O8    S    
C11   O14   S    
C25   C26   S    
C14   N1    A    
C3    C23   S    
C14   C19   S    
C1    O1    A    
C21   O7    A    
C15   C16   A    
Cu2   O4    S    
C8    C9    A    
C12   O4    A    
C22   C25   S    
C18   H8    S    
