data_mof_unit_12717.cif
_audit_creation_date              2012-10-26T21:08:03-0400
_audit_creation_method            fapswitch 2.2
_symmetry_space_group_name_H-M    P1
_symmetry_Int_Tables_number       1
_space_group_crystal_system       triclinic
_cell_length_a                    15.835148
_cell_length_b                    10.7721
_cell_length_c                    9.634563
_cell_angle_alpha                 85.857018
_cell_angle_beta                  91.820116
_cell_angle_gamma                 92.984228
_cell_volume                      1636.27821676

loop_
_atom_site_label
_atom_site_type_symbol
_atom_type_description
_atom_site_fract_x
_atom_site_fract_y
_atom_site_fract_z
_atom_type_partial_charge
C1    C     C_R   0.504186 0.262568 0.506009 0.555805
C2    C     C_R   0.709673 0.049941 0.711694 -0.116324
C3    C     C_R   0.724547 0.941391 0.650863 -0.116054
C4    C     C_R   0.340015 0.498573 0.498299 0.575097
C5    C     C_R   0.662060 0.885877 0.568288 0.216018
C6    C     C_R   0.581970 0.938302 0.546856 -0.048799
C7    C     C_R   0.573072 0.061507 0.585278 -0.017045
C8    C     C_R   0.504846 0.127563 0.520360 -0.009721
C9    C     C_R   0.439729 0.064826 0.448259 -0.110935
C10   C     C_R   0.439985 0.937589 0.438441 0.167039
C11   C     C_R   0.511135 0.873533 0.486298 0.032332
C12   C     C_3   0.082971 0.489449 0.503240 -0.054358
C13   C     C_R   0.619103 0.661765 0.122399 0.312762
C14   C     C_R   0.700581 0.676242 0.067762 0.278553
C15   C     C_R   0.719151 0.610168 0.954494 0.202375
C16   C     C_R   0.504300 0.737933 0.495732 0.647736
C17   C     C_R   0.653848 0.545331 0.886421 -0.095439
C18   C     C_R   0.569607 0.546088 0.928778 0.025103
C19   C     C_R   0.560409 0.570945 0.069403 0.062723
C20   C     C_R   0.440785 0.432949 0.077388 0.039752
C21   C     C_R   0.439201 0.435288 0.929306 0.350502
C22   C     C_R   0.659365 0.492656 0.502674 0.597695
C23   C     C_3   0.977855 0.592990 0.563429 0.282628
C24   C     C_3   0.969256 0.388478 0.586145 0.179778
C25   C     C_3   0.020247 0.386818 0.451828 0.209535
C26   C     C_1   0.250189 0.494665 0.495603 0.048017
C27   C     C_1   0.748818 0.490100 0.508170 0.111547
C28   C     C_3   0.031793 0.491299 0.637240 0.237628
C29   C     C_3   0.976975 0.207641 0.342753 0.046214
C30   C     C_3   0.987609 0.069795 0.384954 -0.275348
C31   C     C_3   0.911322 0.989293 0.337744 -0.397596
C32   C     C_3   0.542679 0.838337 0.110561 0.017998
C33   C     C_3   0.594760 0.954068 0.054760 -0.250776
C34   C     C_3   0.915721 0.490490 0.511654 -0.007104
C35   C     C_3   0.629631 0.032727 0.171300 -0.353963
C36   C     C_3   0.016460 0.780389 0.658182 0.041178
C37   C     C_3   0.986011 0.873027 0.756308 -0.244347
C38   C     C_3   0.057940 0.962527 0.801469 -0.444708
C39   C     C_3   0.103776 0.392881 0.824825 0.045901
C40   C     C_3   0.166747 0.421837 0.943287 -0.272572
C41   C     C_3   0.123512 0.467294 0.068246 -0.325145
C42   C     C_3   0.028335 0.590930 0.429284 0.190411
C43   C     C_3   0.966151 0.487768 0.377398 0.185578
C44   C     C_1   0.174572 0.491382 0.497538 0.037040
C45   C     C_1   0.824274 0.490342 0.511545 0.136303
C46   C     C_R   0.635193 0.111073 0.680741 0.222735
Cl1   Cl    Cl    0.696033 0.771684 0.467209 -0.549970
Cl2   Cl    Cl    0.349522 0.861314 0.365686 -0.582243
Cl3   Cl    Cl    0.778270 0.777029 0.140612 -0.483231
Cl4   Cl    Cl    0.822473 0.609003 0.892724 -0.426938
Cl5   Cl    Cl    0.366062 0.331266 0.852287 -0.613825
Cl6   Cl    Cl    0.924939 0.255258 0.684291 -0.659421
Cl7   Cl    Cl    0.918781 0.487651 0.207074 -0.494071
Cl8   Cl    Cl    0.068430 0.720198 0.320413 -0.562310
Cl9   Cl    Cl    0.619334 0.228183 0.793214 -0.617757
Cu1   Cu    Cu3+1 0.499990 0.499990 0.640660 1.100839
Cu2   Cu    Cu3+1 0.500010 0.500010 0.359340 1.051248
H1    H     H_    0.785116 0.899926 0.668111 0.184188
H2    H     H_    0.852923 0.016581 0.386175 0.173474
H3    H     H_    0.921010 0.889896 0.369955 0.246940
H4    H     H_    0.903168 0.999626 0.222633 0.200155
H5    H     H_    0.491380 0.868922 0.173720 0.201008
H6    H     H_    0.509868 0.794127 0.021126 0.096577
H7    H     H_    0.647576 0.926051 0.992700 0.189548
H8    H     H_    0.553444 0.012085 0.984131 0.182676
H9    H     H_    0.577072 0.064791 0.231066 0.147852
H10   H     H_    0.666081 0.115816 0.125695 0.178674
H11   H     H_    0.672386 0.978424 0.242964 0.238103
H12   H     H_    0.393742 0.376231 0.135481 0.141774
H13   H     H_    0.039530 0.833118 0.562433 0.168837
H14   H     H_    0.069994 0.731272 0.710892 0.188880
H15   H     H_    0.935353 0.927683 0.703038 0.181849
H16   H     H_    0.959383 0.821386 0.850350 0.254883
H17   H     H_    0.107888 0.910226 0.860084 0.180812
H18   H     H_    0.033154 0.029882 0.870115 0.189895
H19   H     H_    0.086049 0.015333 0.709466 0.170511
H20   H     H_    0.054530 0.323976 0.865925 0.206025
H21   H     H_    0.138995 0.349965 0.743771 0.146193
H22   H     H_    0.199585 0.335826 0.977879 0.168700
H23   H     H_    0.674071 0.475078 0.824456 0.236648
H24   H     H_    0.214895 0.493895 0.904810 0.202607
H25   H     H_    0.090398 0.553993 0.038116 0.259174
H26   H     H_    0.171585 0.487195 0.151201 0.164363
H27   H     H_    0.077377 0.394288 0.110578 0.199100
H28   H     H_    0.387064 0.115193 0.402019 0.165287
H29   H     H_    0.756915 0.087137 0.783445 0.204237
H30   H     H_    0.975355 0.221502 0.227300 0.174933
H31   H     H_    0.914615 0.233441 0.380040 0.174896
H32   H     H_    0.045661 0.038867 0.338533 0.211554
H33   H     H_    0.994807 0.057186 0.499903 0.197893
N1    N     N_R   0.500800 0.501210 0.147910 -0.261698
N2    N     N_R   0.500830 0.501290 0.852040 -0.203802
O1    O     O_R   0.499990 0.319640 0.618810 -0.396114
O2    O     O_3   0.593155 0.756820 0.196719 -0.478614
O3    O     O_3   0.948158 0.697471 0.624123 -0.496676
O4    O     O_3   0.066097 0.503442 0.773061 -0.534136
O5    O     O_R   0.500000 0.319660 0.381240 -0.535363
O6    O     O_R   0.379070 0.499980 0.618770 -0.453096
O7    O     O_R   0.379080 0.500000 0.381190 -0.507858
O8    O     O_R   0.500000 0.680340 0.618760 -0.506533
O9    O     O_R   0.500010 0.680360 0.381190 -0.411652
O10   O     O_R   0.620920 0.500000 0.618810 -0.499483
O11   O     O_R   0.620930 0.500020 0.381230 -0.470324
O12   O     O_3   0.047105 0.278570 0.395377 -0.550965

loop_
_geom_bond_atom_site_label_1
_geom_bond_atom_site_label_2
_ccdc_geom_bond_type
C24   Cl6   S    
C32   O2    S    
C4    O6    A    
C1    C8    S    
C31   H4    S    
Cu1   O6    S    
C30   H33   S    
C25   C43   S    
C26   C44   T    
C7    C8    A    
C38   H19   S    
C2    C46   A    
C5    Cl1   S    
C29   C30   S    
C23   C42   S    
C12   C28   S    
C39   H20   S    
C36   C37   S    
C30   C31   S    
C14   Cl3   S    
C41   H26   S    
Cu1   Cu2   S    
C18   C19   A    
C15   Cl4   S    
C31   H2    S    
C29   H31   S    
C12   C42   S    
C9    H28   S    
C43   Cl7   S    
C8    C9    A    
C46   Cl9   S    
C9    C10   A    
C36   H14   S    
C27   C45   T    
C13   C14   A    
C30   H32   S    
C36   H13   S    
C38   H18   S    
Cu1   O1    S    
Cu2   O11   S    
C20   N1    A    
C13   C19   A    
C33   H8    S    
C39   H21   S    
C24   C25   S    
C1    O5    A    
C6    C11   A    
C16   O8    A    
C35   H9    S    
C41   H27   S    
C17   H23   S    
C24   C34   S    
C22   O11   A    
C29   O12   S    
C31   H3    S    
C7    C46   A    
C37   C38   S    
C11   C16   S    
C35   H10   S    
C23   C34   S    
Cu2   O5    S    
C17   C18   A    
C40   H22   S    
C34   C45   S    
C23   C28   S    
C40   C41   S    
C22   C27   S    
C10   Cl2   S    
C20   H12   S    
C4    O7    A    
C42   C43   S    
Cu1   O8    S    
C21   Cl5   S    
C38   H17   S    
C15   C17   A    
C37   H16   S    
Cu2   N1    S    
C40   H24   S    
C34   C43   S    
C24   C28   S    
C32   H6    S    
C3    C5    A    
C4    C26   S    
C25   O12   S    
C6    C7    A    
Cu2   O9    S    
C13   O2    S    
C22   O10   A    
C12   C25   S    
C28   O4    S    
C18   N2    A    
C32   C33   S    
C2    C3    A    
Cu1   O10   S    
C12   C44   S    
C42   Cl8   S    
C36   O3    S    
C5    C6    A    
C35   H11   S    
C33   H7    S    
C41   H25   S    
C33   C35   S    
C23   O3    S    
C2    H29   S    
C39   O4    S    
C29   H30   S    
C19   N1    A    
C10   C11   A    
C32   H5    S    
C39   C40   S    
C3    H1    S    
C16   O9    A    
Cu1   N2    S    
C20   C21   A    
C1    O1    A    
C37   H15   S    
C14   C15   A    
C21   N2    A    
Cu2   O7    S    
