data_mof_unit_40837.cif
_audit_creation_date              2012-12-11T17:41:35-0500
_audit_creation_method            fapswitch 2.2
_symmetry_space_group_name_H-M    P1
_symmetry_Int_Tables_number       1
_space_group_crystal_system       triclinic
_cell_length_a                    15.565467
_cell_length_b                    15.133982
_cell_length_c                    15.037198
_cell_angle_alpha                 109.671606
_cell_angle_beta                  121.230289
_cell_angle_gamma                 58.898016
_cell_volume                      2582.07268137

loop_
_atom_site_label
_atom_site_type_symbol
_atom_type_description
_atom_site_fract_x
_atom_site_fract_y
_atom_site_fract_z
_atom_type_partial_charge
C1    C     C_R   0.774175 0.979263 0.789100 -0.132919
C2    C     C_R   0.151411 0.359774 0.092589 0.039939
C3    C     C_R   0.694810 0.822790 0.986411 -0.120474
C4    C     C_R   0.260123 0.304891 0.099056 -0.156209
C5    C     C_R   0.701266 0.918706 0.023338 0.086151
C6    C     C_R   0.285900 0.216589 0.029532 0.065011
C7    C     C_R   0.800863 0.923618 0.056012 -0.254252
C8    C     C_R   0.201890 0.184541 0.953503 -0.162521
C9    C     C_R   0.890049 0.835355 0.042893 -0.087847
C10   C     C_R   0.094571 0.239057 0.947020 -0.030153
C11   C     C_R   0.883630 0.739986 0.004858 -0.168484
C12   C     C_R   0.199941 0.059322 0.224955 -0.116116
C13   C     C_R   0.069318 0.326249 0.016116 -0.243724
C14   C     C_R   0.599217 0.056140 0.117786 -0.245724
C15   C     C_R   0.407905 0.133520 0.940689 -0.225544
C16   C     C_R   0.201896 0.275472 0.443580 -0.117220
C17   C     C_R   0.770105 0.712079 0.519343 -0.123679
C18   C     C_R   0.497088 0.108066 0.122964 0.041120
C19   C     C_R   0.504708 0.054950 0.931474 0.057893
C20   C     C_R   0.399510 0.155924 0.034337 0.044810
C21   C     C_R   0.601959 0.014898 0.022514 0.039654
C22   C     C_2   0.025422 0.350519 0.466097 -0.205098
C23   C     C_R   0.139225 0.275552 0.483548 0.146693
C24   C     C_2   0.866591 0.606065 0.400208 -0.205262
C25   C     C_2   0.967481 0.420780 0.397602 -0.104462
C26   C     C_2   0.876135 0.516147 0.409407 -0.101520
C27   C     C_2   0.871979 0.097387 0.894032 -0.198932
C28   C     C_2   0.019356 0.045888 0.153711 -0.214438
C29   C     C_R   0.171184 0.789368 0.507840 -0.101145
C30   C     C_R   0.776521 0.169042 0.310167 -0.113069
C31   C     C_R   0.272289 0.708283 0.511248 -0.120927
C32   C     C_R   0.680062 0.246584 0.320325 -0.108026
C33   C     C_R   0.287342 0.664160 0.419153 0.008349
C34   C     C_R   0.802201 0.703144 0.444919 0.146925
C35   C     C_R   0.685802 0.303687 0.417058 0.003538
C36   C     C_R   0.199045 0.700972 0.322054 0.011439
C37   C     C_R   0.790404 0.281234 0.505204 -0.034069
C38   C     C_R   0.097767 0.782707 0.320281 -0.125559
C39   C     C_R   0.886307 0.201281 0.493691 -0.103860
C40   C     C_R   0.593567 0.217298 0.492445 -0.129362
C41   C     C_R   0.404536 0.773555 0.442696 -0.120008
C42   C     C_R   0.084093 0.826415 0.412559 -0.162650
C43   C     C_R   0.879230 0.146086 0.396640 -0.152083
C44   C     C_R   0.403688 0.481261 0.424185 -0.132643
C45   C     C_R   0.502011 0.299888 0.439360 0.062865
C46   C     C_R   0.576244 0.491989 0.423668 -0.238307
C47   C     C_R   0.497674 0.391158 0.424102 0.040862
C48   C     C_R   0.484419 0.581902 0.430342 0.049128
C49   C     C_R   0.584482 0.395358 0.420738 0.005139
C50   C     C_R   0.394056 0.575871 0.424339 -0.018091
C51   C     C_2   0.874696 0.096845 0.984036 -0.106169
C52   C     C_2   0.963909 0.111250 0.081048 -0.108619
C53   C     C_R   0.407607 0.037484 0.732176 -0.122217
C54   C     C_R   0.589675 0.020825 0.287475 -0.120167
C55   C     C_R   0.409319 0.288066 0.413478 -0.149754
C56   C     C_R   0.492816 0.678774 0.460369 0.061006
C57   C     C_R   0.588236 0.694245 0.529423 -0.119547
C58   C     C_R   0.592770 0.961808 0.805352 -0.129343
C59   C     C_R   0.406139 0.087747 0.210423 -0.132350
C60   C     C_R   0.199013 0.185632 0.532911 -0.144138
C61   C     C_R   0.763917 0.802230 0.422543 -0.139985
C62   C     C_R   0.766942 0.075508 0.698051 -0.138677
C63   C     C_R   0.195370 0.972751 0.315566 -0.161481
C64   C     C_R   0.807191 0.052327 0.797375 0.147151
C65   C     C_R   0.134914 0.023865 0.226522 0.166171
C66   C     C_2   0.781558 0.630993 0.938216 0.482142
C67   C     C_R   0.501582 0.018075 0.827433 0.057901
C68   C     C_2   0.121347 0.451867 0.164796 0.441680
C69   C     C_2   0.215345 0.658225 0.224535 0.547168
C70   C     C_2   0.800034 0.339712 0.609029 0.426688
C71   C     C_R   0.496338 0.076500 0.204347 0.071632
C72   C     C_R   0.786519 0.732623 0.977689 -0.017778
H1    H     H_    0.805207 0.935189 0.850747 0.102668
H2    H     H_    0.219926 0.116240 0.899751 0.117008
H3    H     H_    0.963698 0.841540 0.061261 0.174086
H4    H     H_    0.030851 0.213427 0.888430 0.132117
H5    H     H_    0.676063 0.025029 0.185161 0.127736
H6    H     H_    0.334861 0.170547 0.872823 0.133964
H7    H     H_    0.829615 0.513987 0.442446 0.126474
H8    H     H_    0.998291 0.417601 0.345833 0.125783
H9    H     H_    0.913492 0.607634 0.367159 0.139175
H10   H     H_    0.993492 0.354967 0.517669 0.148974
H11   H     H_    0.005821 0.889393 0.410167 0.117151
H12   H     H_    0.175426 0.112217 0.174067 0.086139
H13   H     H_    0.953722 0.085960 0.388266 0.112369
H14   H     H_    0.177040 0.327415 0.391507 0.088688
H15   H     H_    0.796727 0.651238 0.561981 0.092560
H16   H     H_    0.160246 0.823413 0.579163 0.115941
H17   H     H_    0.772133 0.127844 0.234717 0.113418
H18   H     H_    0.339126 0.679827 0.585618 0.130818
H19   H     H_    0.601177 0.264806 0.251888 0.124413
H20   H     H_    0.029376 0.813651 0.247888 0.149672
H21   H     H_    0.967174 0.182114 0.559558 0.143345
H22   H     H_    0.337847 0.480180 0.430232 0.160944
H23   H     H_    0.985012 0.997989 0.151354 0.124694
H24   H     H_    0.644016 0.497289 0.425377 0.129594
H25   H     H_    0.679608 0.195966 0.516350 0.098607
H26   H     H_    0.319502 0.793057 0.389728 0.107970
H27   H     H_    0.321409 0.076430 0.718248 0.093299
H28   H     H_    0.674261 0.008834 0.316970 0.090975
H29   H     H_    0.324497 0.330660 0.360695 0.136509
H30   H     H_    0.670657 0.635598 0.566784 0.094245
H31   H     H_    0.678074 0.929501 0.856516 0.123760
H32   H     H_    0.319407 0.131998 0.165803 0.114633
H33   H     H_    0.167705 0.155660 0.560091 0.093596
H34   H     H_    0.922558 0.125673 0.892208 0.128672
H35   H     H_    0.776677 0.823611 0.370001 0.105950
H36   H     H_    0.781036 0.126415 0.676344 0.105267
H37   H     H_    0.162465 0.949480 0.347419 0.104244
H38   H     H_    0.997357 0.159523 0.082469 0.128042
H39   H     H_    0.823935 0.068800 0.985486 0.129143
H40   H     H_    0.853331 0.562528 0.931849 0.011171
H41   H     H_    0.036239 0.494654 0.155758 0.014196
H42   H     H_    0.291821 0.592897 0.224895 0.046028
H43   H     H_    0.726488 0.398131 0.620358 0.049841
H44   H     H_    0.954160 0.672008 0.996097 0.154166
H45   H     H_    0.985526 0.367437 0.010138 0.120968
H46   H     H_    0.617769 0.819363 0.962470 0.154145
H47   H     H_    0.324439 0.329819 0.157951 0.147019
H48   H     H_    0.806768 0.996908 0.086068 0.114952
N1    N     N_R   0.705410 0.966550 0.689210 -0.044902
N2    N     N_R   0.556610 0.796750 0.548620 -0.040978
N3    N     N_R   0.556610 0.951620 0.703500 -0.042576
N4    N     N_R   0.443390 0.048380 0.296500 -0.041128
N5    N     N_R   0.294590 0.131500 0.522480 -0.042221
N6    N     N_R   0.705410 0.868500 0.477520 -0.045567
N7    N     N_R   0.705410 0.023370 0.632390 -0.044726
N8    N     N_R   0.294590 0.976630 0.367610 -0.044036
N9    N     N_R   0.294590 0.033450 0.310790 -0.045310
N10   N     N_R   0.294590 0.188320 0.465660 -0.045412
N11   N     N_R   0.705410 0.811680 0.534340 -0.044936
N12   N     N_R   0.556610 0.157790 0.497330 -0.038091
N13   N     N_R   0.443390 0.842210 0.502670 -0.042263
N14   N     N_R   0.443390 0.997080 0.657540 -0.040086
N15   N     N_R   0.556610 0.002920 0.342460 -0.040791
N16   N     N_R   0.443390 0.203250 0.451380 -0.039485
Ni1   Ni    Ni4+2 0.629830 0.882720 0.617850 0.224843
Ni2   Ni    Ni4+2 0.370170 0.117280 0.382150 0.209550
Ni3   Ni    Ni4+2 0.629830 0.013030 0.487540 0.214177
Ni4   Ni    Ni4+2 0.370170 0.986970 0.512460 0.216653
O1    O     O_2   0.697665 0.622284 0.912414 -0.579357
O2    O     O_2   0.190968 0.480935 0.235573 -0.640651
O3    O     O_2   0.144058 0.695695 0.142227 -0.635014
O4    O     O_2   0.890521 0.323051 0.683678 -0.599273

loop_
_geom_bond_atom_site_label_1
_geom_bond_atom_site_label_2
_ccdc_geom_bond_type
C63   C65   A    
C29   C42   A    
C17   N11   A    
C25   H8    S    
C14   C18   A    
C2    C4    A    
N8    N9    A    
C41   N13   A    
C47   C49   A    
C66   O1    D    
C53   H27   S    
N12   Ni3   S    
N15   Ni3   S    
C57   H30   S    
C46   C49   A    
C58   N3    A    
C28   H23   S    
C59   H32   S    
C22   H10   S    
C14   C21   A    
N4    Ni2   S    
C60   N5    A    
C35   C37   A    
C24   C26   D    
N1    N7    A    
C41   C56   A    
C2    C68   S    
N14   Ni4   S    
C62   N7    A    
C15   H6    S    
C62   H36   S    
C55   N16   A    
C38   H20   S    
C59   N4    A    
C33   C36   A    
C56   C57   A    
C12   H12   S    
C7    C9    A    
C14   H5    S    
N1    Ni1   S    
C2    C13   A    
C39   H21   S    
C29   H16   S    
C62   C64   A    
C57   N2    A    
C10   H4    S    
N5    N10   A    
C66   C72   S    
N9    Ni2   S    
C22   C25   D    
C35   C49   S    
C31   C33   A    
C4    H47   S    
C68   O2    D    
C61   N6    A    
C16   N10   A    
C63   N8    A    
C44   C47   A    
C68   H41   S    
C48   C50   A    
C40   N12   A    
C37   C70   S    
C16   H14   S    
C54   H28   S    
C23   C60   A    
N7    Ni3   S    
C30   H17   S    
C61   H35   S    
C27   C51   D    
C45   C47   S    
N5    Ni4   S    
C40   C45   A    
C69   H42   S    
C46   C48   A    
N6    Ni3   S    
C12   N9    A    
C42   H11   S    
N3    N14   A    
C51   C52   S    
C43   H13   S    
C32   C35   A    
N16   Ni2   S    
C40   H25   S    
C5    C7    A    
C11   C72   A    
C6    C8    A    
C27   H34   S    
C25   C26   S    
C41   H26   S    
C34   C61   A    
C24   C34   S    
C15   C20   A    
C63   H37   S    
C15   C19   A    
C24   H9    S    
N2    N13   A    
N11   Ni1   S    
C3    H46   S    
C13   H45   S    
C52   H38   S    
N12   N16   A    
C31   H18   S    
C8    H2    S    
C46   H24   S    
C19   C67   S    
C11   H44   S    
C9    C11   A    
C4    C6    A    
C16   C23   A    
C30   C43   A    
C17   C34   A    
N10   Ni2   S    
C1    C64   A    
C36   C69   S    
C44   C50   A    
C18   C71   S    
C48   C56   S    
C55   H29   S    
C51   H39   S    
N4    N15   A    
C19   C21   A    
C17   H15   S    
C7    H48   S    
C8    C10   A    
C53   N14   A    
C54   C71   A    
N2    Ni1   S    
C3    C5    A    
C10   C13   A    
C39   C43   A    
C38   C42   A    
C70   H43   S    
C69   O3    D    
C6    C20   S    
C12   C65   A    
N3    Ni1   S    
C70   O4    D    
C26   H7    S    
C1    H1    S    
C36   C38   A    
C3    C72   A    
C33   C50   S    
C29   C31   A    
C30   C32   A    
C28   C52   D    
N6    N11   A    
C54   N15   A    
C28   C65   S    
C18   C20   A    
N8    Ni4   S    
C53   C67   A    
C1    N1    A    
C44   H22   S    
C27   C64   S    
C32   H19   S    
C58   C67   A    
C5    C21   S    
C45   C55   A    
N13   Ni4   S    
C37   C39   A    
C22   C23   S    
C58   H31   S    
C9    H3    S    
C66   H40   S    
C60   H33   S    
C59   C71   A    
