data_mof_unit_57522.cif
_audit_creation_date              2012-10-26T18:27:07-0400
_audit_creation_method            fapswitch 2.2
_symmetry_space_group_name_H-M    P1
_symmetry_Int_Tables_number       1
_space_group_crystal_system       triclinic
_cell_length_a                    15.01728
_cell_length_b                    10.91159
_cell_length_c                    9.853249
_cell_angle_alpha                 90.7221
_cell_angle_beta                  90.876094
_cell_angle_gamma                 90.031645
_cell_volume                      1614.25964782

loop_
_atom_site_label
_atom_site_type_symbol
_atom_type_description
_atom_site_fract_x
_atom_site_fract_y
_atom_site_fract_z
_atom_type_partial_charge
C1    C     C_R   0.503076 0.266010 0.499530 0.559660
C2    C     C_R   0.187749 0.422904 0.580647 -0.194949
C3    C     C_R   0.232722 0.504139 0.497876 0.026771
C4    C     C_R   0.329343 0.501050 0.499194 0.575118
C5    C     C_R   0.186446 0.586984 0.414700 0.208767
C6    C     C_2   0.498945 0.932423 0.398133 -0.145744
C7    C     C_2   0.470933 0.863726 0.502080 0.005355
C8    C     C_2   0.489837 0.065175 0.393149 -0.176946
C9    C     C_2   0.512824 0.134326 0.500527 -0.124433
C10   C     C_2   0.432888 0.481902 0.929889 0.121960
C11   C     C_2   0.449006 0.434752 0.071273 0.109245
C12   C     C_R   0.904536 0.585819 0.422843 0.000781
C13   C     C_R   0.493865 0.733828 0.500672 0.565790
C14   C     C_R   0.670678 0.499368 0.500798 0.594921
C15   C     C_R   0.811986 0.584353 0.424728 -0.188622
C16   C     C_R   0.767354 0.498529 0.502446 0.034573
C17   C     C_R   0.814201 0.410164 0.577175 0.214783
C18   C     C_R   0.908298 0.413835 0.580986 0.015046
C19   C     C_R   0.953230 0.500870 0.500912 0.029304
C20   C     C_3   0.409193 0.909916 0.613617 -0.264686
C21   C     C_3   0.318918 0.843706 0.606403 -0.276163
C22   C     C_3   0.257591 0.887413 0.719083 -0.474452
C23   C     C_R   0.958498 0.335491 0.664821 -0.136758
C24   C     C_3   0.339250 0.519820 0.889181 -0.227980
C25   C     C_3   0.279193 0.556044 0.008095 -0.329900
C26   C     C_3   0.186136 0.590131 0.956290 -0.462790
C27   C     C_3   0.591196 0.477089 0.895284 -0.069695
C28   C     C_3   0.617450 0.341046 0.888221 -0.244973
C29   C     C_3   0.706053 0.318493 0.961708 -0.454024
C30   C     C_3   0.416417 0.309625 0.113172 -0.214672
C31   C     C_3   0.365047 0.236960 0.002351 -0.344567
C32   C     C_3   0.348671 0.105187 0.045759 -0.466432
C33   C     C_R   0.051009 0.338967 0.664355 -0.138165
C34   C     C_R   0.095405 0.421237 0.581370 -0.000124
C35   C     C_R   0.046976 0.503502 0.499361 0.030738
C36   C     C_R   0.092083 0.588996 0.417212 0.014414
C37   C     C_R   0.041495 0.675305 0.343844 -0.137846
C38   C     C_R   0.948921 0.672866 0.346041 -0.131887
Cu1   Cu    Cu3+1 0.500020 0.500020 0.638630 0.900362
Cu2   Cu    Cu3+1 0.499980 0.499980 0.361370 0.925369
H1    H     H_    0.774207 0.650666 0.366289 0.113271
H2    H     H_    0.533504 0.890172 0.313498 0.132855
H3    H     H_    0.287261 0.865666 0.819890 0.145013
H4    H     H_    0.246315 0.987790 0.712477 0.149452
H5    H     H_    0.192347 0.840021 0.708591 0.149691
H6    H     H_    0.286219 0.861457 0.506603 0.202814
H7    H     H_    0.328186 0.743459 0.616506 0.194994
H8    H     H_    0.441693 0.894643 0.714108 0.145526
H9    H     H_    0.394331 0.008846 0.606406 0.149133
H10   H     H_    0.189552 0.670480 0.888605 0.152816
H11   H     H_    0.155634 0.511795 0.899366 0.163175
H12   H     H_    0.469244 0.105653 0.298152 0.137572
H13   H     H_    0.142747 0.613457 0.042976 0.141891
H14   H     H_    0.272343 0.479236 0.079929 0.181288
H15   H     H_    0.308874 0.635703 0.063820 0.184925
H16   H     H_    0.343875 0.602447 0.824930 0.180731
H17   H     H_    0.307392 0.443444 0.831402 0.153388
H18   H     H_    0.759328 0.375932 0.918111 0.181597
H19   H     H_    0.700124 0.340541 0.071601 0.157983
H20   H     H_    0.724944 0.220576 0.950307 0.144492
H21   H     H_    0.565814 0.283346 0.934874 0.138595
H22   H     H_    0.623775 0.311004 0.781282 0.241503
H23   H     H_    0.537221 0.092541 0.593569 0.105773
H24   H     H_    0.637909 0.533370 0.838074 0.170359
H25   H     H_    0.607646 0.516130 0.995256 0.094110
H26   H     H_    0.412888 0.055749 0.057811 0.146520
H27   H     H_    0.312370 0.103693 0.143129 0.158269
H28   H     H_    0.307833 0.056951 0.966933 0.145235
H29   H     H_    0.299381 0.280307 0.982864 0.154130
H30   H     H_    0.403107 0.234829 0.906467 0.171182
H31   H     H_    0.476427 0.255842 0.141067 0.158596
H32   H     H_    0.373351 0.319722 0.203170 0.176743
H33   H     H_    0.799810 0.242563 0.636723 0.312906
H34   H     H_    0.510224 0.587314 0.122253 0.207530
H35   H     H_    0.202540 0.686157 0.254146 0.312460
H36   H     H_    0.927388 0.272506 0.733464 0.114586
H37   H     H_    0.088008 0.277249 0.729563 0.104256
H38   H     H_    0.225085 0.358756 0.642526 0.104813
H39   H     H_    0.071753 0.746968 0.285625 0.107551
H40   H     H_    0.911860 0.739970 0.287916 0.108565
N1    N     N_2   0.499020 0.498660 0.846910 -0.257086
N2    N     N_2   0.499000 0.498630 0.153040 -0.367188
O1    O     O_R   0.500020 0.321960 0.617040 -0.511886
O2    O     O_3   0.235939 0.666576 0.338005 -0.724706
O3    O     O_R   0.499980 0.321920 0.382900 -0.508245
O4    O     O_R   0.370270 0.499990 0.617090 -0.543573
O5    O     O_R   0.370240 0.499950 0.382940 -0.461751
O6    O     O_R   0.500020 0.678080 0.617100 -0.510188
O7    O     O_R   0.499980 0.678040 0.382960 -0.504327
O8    O     O_R   0.629760 0.500050 0.617060 -0.492542
O9    O     O_R   0.629730 0.500010 0.382910 -0.504356
O10   O     O_3   0.766022 0.320292 0.640721 -0.737592

loop_
_geom_bond_atom_site_label_1
_geom_bond_atom_site_label_2
_ccdc_geom_bond_type
C8    C9    D    
C35   C36   A    
C23   H36   S    
C30   H31   S    
C4    O5    A    
C37   H39   S    
C20   H9    S    
C27   H25   S    
Cu2   O5    S    
C36   C37   A    
C18   C19   A    
C26   H10   S    
C30   C31   S    
H35   O2    S    
C4    O4    A    
C15   C16   A    
C5    C36   A    
C12   C19   A    
C34   C35   A    
C14   O8    A    
C31   H30   S    
C22   H4    S    
C31   C32   S    
C11   C30   S    
C16   C17   A    
C23   C33   A    
C29   H20   S    
Cu2   O7    S    
C8    H12   S    
Cu1   O8    S    
C32   H28   S    
C28   H21   S    
C2    C34   A    
C21   C22   S    
C17   O10   S    
Cu1   O6    S    
H34   N2    S    
C17   C18   A    
C11   N2    D    
C1    O3    A    
C18   C23   A    
Cu2   N2    S    
C27   N1    S    
C1    C9    S    
C24   C25   S    
C15   H1    S    
C10   C11   S    
Cu1   Cu2   S    
C5    O2    S    
C24   H17   S    
C6    C8    S    
C10   C24   S    
C25   C26   S    
Cu2   O3    S    
C37   C38   A    
C2    H38   S    
C22   H3    S    
C12   C15   A    
C7    C13   S    
C33   C34   A    
C25   H14   S    
Cu1   N1    S    
C20   H8    S    
C32   H27   S    
C14   C16   S    
C1    O1    A    
C3    C4    S    
C26   H13   S    
C29   H18   S    
C32   H26   S    
C21   H6    S    
C28   C29   S    
C13   O7    A    
C9    H23   S    
C25   H15   S    
H33   O10   S    
C3    C5    A    
C30   H32   S    
C6    C7    D    
C24   H16   S    
C10   N1    D    
C2    C3    A    
Cu1   O1    S    
C19   C35   A    
C26   H11   S    
C33   H37   S    
C38   H40   S    
C13   O6    A    
Cu2   O9    S    
C12   C38   A    
C14   O9    A    
C27   H24   S    
C31   H29   S    
C22   H5    S    
C20   C21   S    
C7    C20   S    
C6    H2    S    
C27   C28   S    
C29   H19   S    
Cu1   O4    S    
C21   H7    S    
C28   H22   S    
