data_mof_unit_68484.cif
_audit_creation_date              2012-12-11T15:14:57-0500
_audit_creation_method            fapswitch 2.2
_symmetry_space_group_name_H-M    P1
_symmetry_Int_Tables_number       1
_space_group_crystal_system       triclinic
_cell_length_a                    11.417277
_cell_length_b                    11.398912
_cell_length_c                    18.420646
_cell_angle_alpha                 89.620284
_cell_angle_beta                  90.189541
_cell_angle_gamma                 119.946894
_cell_volume                      2077.22741377

loop_
_atom_site_label
_atom_site_type_symbol
_atom_type_description
_atom_site_fract_x
_atom_site_fract_y
_atom_site_fract_z
_atom_type_partial_charge
C1    C     C_R   0.539418 0.423184 0.637609 0.513282
C2    C     C_R   0.421205 0.540332 0.362159 0.514081
C3    C     C_R   0.460582 0.883766 0.137609 0.513282
C4    C     C_R   0.116385 0.576708 0.362564 0.513672
C5    C     C_3   0.455934 0.034401 0.462043 0.258416
C6    C     C_3   0.578486 0.543976 0.037508 0.256620
C7    C     C_3   0.958867 0.415936 0.465119 0.247445
C8    C     C_3   0.457516 0.041520 0.034869 0.246795
C9    C     C_3   0.579325 0.540244 0.463270 0.253559
C10   C     C_3   0.961282 0.420604 0.037218 0.255815
C11   C     C_3   0.041133 0.457069 0.965119 0.247445
C12   C     C_R   0.883615 0.460323 0.862564 0.513671
C13   C     C_3   0.542484 0.584004 0.534869 0.246795
C14   C     C_3   0.420675 0.960918 0.963270 0.253559
C15   C     C_3   0.038718 0.459322 0.537217 0.255814
C16   C     C_3   0.544066 0.578468 0.962043 0.258416
C17   C     C_3   0.421514 0.965490 0.537508 0.256621
C18   C     C_3   0.602117 0.134288 0.485981 -0.224679
C19   C     C_3   0.531801 0.397455 0.013957 -0.225283
C20   C     C_3   0.861731 0.464287 0.491730 -0.212358
C21   C     C_3   0.602768 0.138566 0.007636 -0.211111
C22   C     C_3   0.528003 0.395206 0.492743 -0.218696
C23   C     C_R   0.579886 0.121918 0.637463 0.513499
C24   C     C_3   0.867596 0.471885 0.007923 -0.220598
C25   C     C_3   0.138269 0.602556 0.991730 -0.212357
C26   C     C_3   0.397232 0.535798 0.507637 -0.211111
C27   C     C_3   0.471997 0.867203 0.992743 -0.218696
C28   C     C_3   0.132404 0.604289 0.507923 -0.220597
C29   C     C_3   0.397883 0.532170 0.985981 -0.224675
C30   C     C_3   0.468198 0.865653 0.513957 -0.225283
C31   C     C_3   0.562996 0.068514 0.562528 -0.037305
C32   C     C_3   0.505164 0.436624 0.937430 -0.037045
C33   C     C_3   0.938394 0.499276 0.564262 -0.027991
C34   C     C_R   0.541656 0.419776 0.862517 0.514613
C35   C     C_3   0.560680 0.061205 0.935557 -0.027535
C36   C     C_3   0.499303 0.443531 0.564772 -0.029225
C37   C     C_3   0.943796 0.500219 0.935418 -0.029264
C38   C     C_3   0.061606 0.560882 0.064262 -0.027990
C39   C     C_3   0.439320 0.500526 0.435557 -0.027535
C40   C     C_3   0.500697 0.944228 0.064772 -0.029225
C41   C     C_3   0.056203 0.556422 0.435418 -0.029263
C42   C     C_3   0.437004 0.505518 0.062529 -0.037305
C43   C     C_3   0.494836 0.931460 0.437430 -0.037045
C44   C     C_3   0.612926 0.971622 0.538063 0.277675
C45   C     C_R   0.880908 0.459836 0.637679 0.515659
C46   C     C_3   0.358788 0.387169 0.962258 0.276751
C47   C     C_3   0.029224 0.643948 0.535125 0.266446
C48   C     C_3   0.614568 0.970314 0.964857 0.267396
C49   C     C_3   0.353972 0.392132 0.537399 0.274526
C50   C     C_3   0.037908 0.645858 0.962185 0.275389
C51   C     C_3   0.970776 0.614724 0.035125 0.266446
C52   C     C_3   0.385432 0.355746 0.464857 0.267396
C53   C     C_3   0.646027 0.038159 0.037399 0.274526
C54   C     C_3   0.962092 0.607949 0.462185 0.275388
C55   C     C_3   0.387073 0.358695 0.038063 0.277675
C56   C     C_R   0.578795 0.119128 0.862159 0.514081
C57   C     C_3   0.641211 0.028380 0.462258 0.276750
C58   C     C_3   0.838810 0.072846 0.580254 0.017530
C59   C     C_3   0.233880 0.161207 0.920477 0.017470
C60   C     C_3   0.937262 0.774410 0.580906 0.005965
C61   C     C_3   0.836721 0.062288 0.918488 0.006200
C62   C     C_3   0.221938 0.168925 0.584021 0.011046
C63   C     C_3   0.946900 0.778211 0.915696 0.011028
C64   C     C_3   0.062738 0.837148 0.080907 0.005966
C65   C     C_3   0.163279 0.225567 0.418488 0.006200
C66   C     C_3   0.778062 0.946987 0.084020 0.011047
C67   C     C_R   0.420114 0.542031 0.137463 0.513499
C68   C     C_3   0.053099 0.831310 0.415696 0.011028
C69   C     C_3   0.161190 0.234034 0.080254 0.017529
C70   C     C_3   0.766119 0.927326 0.420477 0.017471
C71   C     C_3   0.449530 0.153630 0.360562 -0.036680
C72   C     C_3   0.703482 0.551462 0.139329 -0.035022
C73   C     C_3   0.853338 0.295532 0.358849 -0.035792
C74   C     C_3   0.442568 0.146846 0.141137 -0.035484
C75   C     C_3   0.693902 0.531886 0.360821 -0.035349
C76   C     C_3   0.836811 0.305207 0.139380 -0.038711
C77   C     C_3   0.146661 0.442193 0.858849 -0.035793
C78   C     C_R   0.458344 0.878121 0.362517 0.514613
C79   C     C_3   0.557432 0.704279 0.641138 -0.035484
C80   C     C_3   0.306097 0.837983 0.860821 -0.035349
C81   C     C_3   0.163189 0.468396 0.639380 -0.038711
C82   C     C_3   0.550469 0.704100 0.860562 -0.036679
C83   C     C_3   0.296518 0.847980 0.639329 -0.035023
C84   C     C_R   0.119092 0.578928 0.137679 0.515660
Cr1   Cr    Cr6+3 0.769930 0.543130 0.750000 0.950405
Cr2   Cr    Cr6+3 0.773200 0.230070 0.750000 0.952086
Cr3   Cr    Cr6+3 0.456870 0.226800 0.750000 0.958958
Cr4   Cr    Cr6+3 0.543130 0.769930 0.250000 0.958958
Cr5   Cr    Cr6+3 0.230070 0.773200 0.250000 0.950405
Cr6   Cr    Cr6+3 0.226800 0.456870 0.250000 0.952087
H1    H     H_    0.666667 0.234939 0.465676 0.104033
H2    H     H_    0.234722 0.685110 0.504917 0.095679
H3    H     H_    0.333333 0.568275 0.965676 0.104029
H4    H     H_    0.432531 0.764918 0.534093 0.105187
H5    H     H_    0.875553 0.083465 0.636991 0.137945
H6    H     H_    0.837098 0.166559 0.565190 0.188666
H7    H     H_    0.915010 0.066953 0.546430 0.116561
H8    H     H_    0.151569 0.084854 0.954415 0.115466
H9    H     H_    0.328877 0.162444 0.935441 0.188545
H10   H     H_    0.208016 0.124803 0.863793 0.138697
H11   H     H_    0.928256 0.792606 0.639173 0.138701
H12   H     H_    0.567469 0.332386 0.034092 0.105187
H13   H     H_    0.841756 0.683792 0.563467 0.189142
H14   H     H_    0.946853 0.863904 0.552193 0.104625
H15   H     H_    0.841552 0.158030 0.935502 0.189110
H16   H     H_    0.916486 0.052905 0.947238 0.105457
H17   H     H_    0.863959 0.071010 0.860169 0.138041
H18   H     H_    0.312750 0.163177 0.568051 0.193770
H19   H     H_    0.134584 0.092593 0.553133 0.107550
H20   H     H_    0.199265 0.137669 0.641788 0.133412
H21   H     H_    0.958121 0.865547 0.946620 0.107553
H22   H     H_    0.850489 0.687203 0.932014 0.194187
H23   H     H_    0.757094 0.433204 0.496451 0.088664
H24   H     H_    0.938132 0.801240 0.857982 0.132682
H25   H     H_    0.158244 0.842037 0.063467 0.189142
H26   H     H_    0.053147 0.917052 0.052193 0.104626
H27   H     H_    0.071745 0.864351 0.139173 0.138701
H28   H     H_    0.136041 0.207051 0.360169 0.138042
H29   H     H_    0.158448 0.316477 0.435503 0.189109
H30   H     H_    0.083514 0.136418 0.447238 0.105457
H31   H     H_    0.865415 0.958009 0.053133 0.107550
H32   H     H_    0.687249 0.850427 0.068051 0.193770
H33   H     H_    0.800734 0.938403 0.141788 0.133412
H34   H     H_    0.675901 0.243324 0.001367 0.085458
H35   H     H_    0.061868 0.863109 0.357982 0.132682
H36   H     H_    0.149510 0.836714 0.432014 0.194188
H37   H     H_    0.041879 0.907426 0.446620 0.107552
H38   H     H_    0.084990 0.151943 0.046430 0.116561
H39   H     H_    0.162901 0.329460 0.065190 0.188666
H40   H     H_    0.124447 0.207911 0.136991 0.137944
H41   H     H_    0.791984 0.916786 0.363793 0.138697
H42   H     H_    0.671122 0.833567 0.435441 0.188544
H43   H     H_    0.848429 0.933284 0.454416 0.115468
H44   H     H_    0.377785 0.150892 0.318962 0.154642
H45   H     H_    0.550116 0.314787 0.498249 0.092040
H46   H     H_    0.518174 0.125143 0.333632 0.103313
H47   H     H_    0.512518 0.258730 0.377805 0.102891
H48   H     H_    0.749546 0.491123 0.123800 0.104807
H49   H     H_    0.605765 0.480321 0.165182 0.101153
H50   H     H_    0.768555 0.624224 0.181414 0.156967
H51   H     H_    0.890086 0.255498 0.315142 0.155810
H52   H     H_    0.867147 0.394477 0.340694 0.095974
H53   H     H_    0.743863 0.226265 0.361285 0.120801
H54   H     H_    0.481850 0.256327 0.138887 0.120822
H55   H     H_    0.528064 0.133604 0.158875 0.095893
H56   H     H_    0.765278 0.450389 0.004918 0.095680
H57   H     H_    0.365853 0.109172 0.185035 0.153755
H58   H     H_    0.769071 0.597760 0.319618 0.159399
H59   H     H_    0.596735 0.472968 0.332017 0.113395
H60   H     H_    0.722599 0.458576 0.380228 0.084461
H61   H     H_    0.736514 0.279608 0.118807 0.084958
H62   H     H_    0.875954 0.401431 0.169169 0.113983
H63   H     H_    0.823637 0.227255 0.179977 0.159557
H64   H     H_    0.256136 0.482402 0.861286 0.120801
H65   H     H_    0.132852 0.527329 0.840694 0.095974
H66   H     H_    0.109913 0.365411 0.815142 0.155810
H67   H     H_    0.242906 0.676109 0.996451 0.088664
H68   H     H_    0.634147 0.743318 0.685035 0.153755
H69   H     H_    0.471936 0.605539 0.658875 0.095893
H70   H     H_    0.518150 0.774477 0.638888 0.120822
H71   H     H_    0.277401 0.735976 0.880228 0.084460
H72   H     H_    0.403265 0.876232 0.832017 0.113395
H73   H     H_    0.230929 0.828689 0.819618 0.159399
H74   H     H_    0.124045 0.525477 0.669168 0.113983
H75   H     H_    0.263486 0.543094 0.618807 0.084958
H76   H     H_    0.176362 0.403617 0.679977 0.159557
H77   H     H_    0.487482 0.746211 0.877805 0.102890
H78   H     H_    0.324099 0.567423 0.501368 0.085459
H79   H     H_    0.481826 0.606968 0.833632 0.103313
H80   H     H_    0.622214 0.773107 0.818962 0.154642
H81   H     H_    0.394234 0.874555 0.665182 0.101153
H82   H     H_    0.250454 0.741577 0.623799 0.104807
H83   H     H_    0.231444 0.855668 0.681414 0.156968
H84   H     H_    0.449884 0.764671 0.998249 0.092038
O1    O     O_R   0.913270 0.574260 0.668550 -0.520876
O2    O     O_R   0.574260 0.913270 0.331450 -0.514648
O3    O     O_R   0.086730 0.660990 0.168550 -0.520876
O4    O     O_R   0.339010 0.425740 0.331450 -0.521807
O5    O     O_R   0.640160 0.530400 0.673300 -0.513528
O6    O     O_R   0.890240 0.359840 0.826700 -0.513245
O7    O     O_R   0.469600 0.109760 0.673300 -0.499575
O8    O     O_R   0.640160 0.530400 0.826700 -0.499907
O9    O     O_R   0.890240 0.359840 0.673300 -0.500656
O10   O     O_R   0.469600 0.109760 0.826700 -0.500132
O11   O     O_R   0.530400 0.640160 0.173300 -0.499575
O12   O     O_R   0.660990 0.086730 0.831450 -0.521807
O13   O     O_R   0.359840 0.890240 0.326700 -0.499907
O14   O     O_R   0.109760 0.469600 0.173300 -0.500655
O15   O     O_R   0.530400 0.640160 0.326700 -0.500132
O16   O     O_R   0.359840 0.890240 0.173300 -0.513528
O17   O     O_R   0.109760 0.469600 0.326700 -0.513245
O18   O     O_3   0.666667 0.333333 0.750000 -0.368510
O19   O     O_3   0.333333 0.666667 0.250000 -0.368510
O20   O     O_3   0.711573 0.951952 0.574754 -0.535608
O21   O     O_3   0.240611 0.288798 0.925910 -0.535587
O22   O     O_3   0.055424 0.764710 0.570695 -0.536725
O23   O     O_R   0.425740 0.339010 0.668550 -0.517612
O24   O     O_3   0.709009 0.943996 0.929253 -0.536105
O25   O     O_3   0.235211 0.299020 0.575260 -0.531269
O26   O     O_3   0.063465 0.764702 0.923899 -0.531532
O27   O     O_3   0.944576 0.709285 0.070695 -0.536725
O28   O     O_3   0.290991 0.234987 0.429253 -0.536105
O29   O     O_3   0.764788 0.063808 0.075259 -0.531268
O30   O     O_3   0.936535 0.701237 0.423899 -0.531533
O31   O     O_3   0.288427 0.240379 0.074754 -0.535608
O32   O     O_3   0.759389 0.048187 0.425910 -0.535587
O33   O     O_3   0.374492 0.069255 0.420027 -0.514094
O34   O     O_R   0.913270 0.574260 0.831450 -0.517304
O35   O     O_3   0.695039 0.625466 0.078855 -0.515992
O36   O     O_3   0.919972 0.297035 0.425024 -0.529330
O37   O     O_3   0.377797 0.080666 0.075066 -0.529422
O38   O     O_3   0.692711 0.614118 0.418502 -0.515312
O39   O     O_3   0.922015 0.307239 0.082421 -0.513858
O40   O     O_3   0.080028 0.377063 0.925024 -0.529330
O41   O     O_3   0.622203 0.702869 0.575066 -0.529422
O42   O     O_3   0.307289 0.921407 0.918502 -0.515312
O43   O     O_3   0.077984 0.385223 0.582421 -0.513859
O44   O     O_3   0.625508 0.694763 0.920026 -0.514094
O45   O     O_R   0.660990 0.086730 0.668550 -0.515321
O46   O     O_3   0.304961 0.930426 0.578855 -0.515992
O47   O     O_R   0.425740 0.339010 0.831450 -0.514649
O48   O     O_R   0.574260 0.913270 0.168550 -0.517612
O49   O     O_R   0.086730 0.660990 0.331450 -0.517304
O50   O     O_R   0.339010 0.425740 0.168550 -0.515321

loop_
_geom_bond_atom_site_label_1
_geom_bond_atom_site_label_2
_ccdc_geom_bond_type
C27   C48   S    
C29   H3    S    
C64   O27   S    
Cr6   O4    S    
C28   C47   S    
Cr1   O8    S    
C64   H26   S    
C68   H36   S    
C29   C42   S    
C68   O30   S    
C33   C45   S    
C28   C41   S    
C74   H55   S    
C2    O15   A    
C81   H75   S    
C71   H44   S    
C82   H80   S    
Cr2   O18   S    
C46   O21   S    
C71   H47   S    
C6    O35   S    
C73   H51   S    
Cr1   O18   S    
C6    C19   S    
C62   H19   S    
C26   H78   S    
C53   O29   S    
C17   C30   S    
Cr3   O23   S    
C18   H1    S    
Cr3   O47   S    
C75   H59   S    
C62   O25   S    
C23   O7    A    
C82   H77   S    
C45   O1    A    
C77   H66   S    
C49   O25   S    
C20   H23   S    
C25   C38   S    
C19   H12   S    
C54   O30   S    
C9    C22   S    
C5    C17   S    
C4    C41   S    
C11   C25   S    
C9    O38   S    
C76   H63   S    
C9    C39   S    
C59   H9    S    
C63   O26   S    
C44   O20   S    
C63   H22   S    
C11   C37   S    
C9    C13   S    
C25   C50   S    
C58   H6    S    
C71   O33   S    
C63   H24   S    
C6    C42   S    
C2    C39   S    
C72   H49   S    
C65   O28   S    
C69   H38   S    
C69   H40   S    
C83   H81   S    
C46   C55   S    
C70   H43   S    
Cr5   O16   S    
C66   H32   S    
C16   O44   S    
Cr5   O3    S    
C14   C27   S    
C15   O43   S    
C60   H13   S    
C61   H15   S    
C44   C57   S    
C52   O28   S    
C34   O47   A    
Cr1   O5    S    
C73   H52   S    
C30   C43   S    
C24   C51   S    
C72   H48   S    
C39   C52   S    
C5    C43   S    
C82   H79   S    
C81   O43   S    
C64   H25   S    
C78   O2    A    
C59   H10   S    
Cr5   O13   S    
C4    O17   A    
C30   C44   S    
C84   O3    A    
C58   H7    S    
C79   H68   S    
C79   H70   S    
C35   C48   S    
C76   O39   S    
C27   H84   S    
Cr2   O6    S    
C7    C20   S    
C77   O40   S    
C8    C21   S    
Cr6   O17   S    
C48   C53   S    
C55   O31   S    
C23   O45   A    
C75   O38   S    
C31   C44   S    
C47   O22   S    
C13   C36   S    
C80   O42   S    
C26   C49   S    
C71   H46   S    
C50   O26   S    
C7    C15   S    
C56   O10   A    
C76   H61   S    
C10   C24   S    
C16   C29   S    
Cr5   O49   S    
C57   O32   S    
C14   C35   S    
C64   H27   S    
C18   C31   S    
C48   O24   S    
C43   C78   S    
C23   C31   S    
C58   H5    S    
C36   C49   S    
C80   H73   S    
Cr6   O50   S    
C77   H64   S    
C5    O33   S    
C26   C39   S    
C74   H57   S    
C18   C57   S    
C72   O35   S    
C62   H20   S    
C27   C40   S    
C81   H76   S    
C49   C52   S    
Cr5   O19   S    
C83   H82   S    
C70   H42   S    
C50   C51   S    
C65   H29   S    
C66   H31   S    
C14   O42   S    
C28   H2    S    
C61   H16   S    
C68   H37   S    
C80   H72   S    
C17   O46   S    
C47   C54   S    
C21   C35   S    
C66   O29   S    
C20   C54   S    
Cr4   O11   S    
C12   O6    A    
C56   O12   A    
C3    C40   S    
Cr2   O12   S    
C3    O48   A    
C73   O36   S    
C83   H83   S    
C25   H67   S    
Cr2   O9    S    
C33   C47   S    
C81   H74   S    
Cr4   O48   S    
C13   C26   S    
C84   O14   A    
C16   C32   S    
C20   C33   S    
C60   H11   S    
C8    O37   S    
C12   O34   A    
Cr3   O10   S    
C7    O36   S    
C8    C40   S    
C45   O9    A    
C22   C52   S    
C29   C46   S    
C73   H53   S    
C19   C55   S    
C24   C37   S    
C74   H54   S    
C3    O16   A    
C8    C14   S    
C2    O4    A    
C38   C84   S    
C35   C56   S    
C32   C46   S    
C19   C32   S    
C1    O23   A    
C61   O24   S    
Cr3   O7    S    
C10   O39   S    
C38   C51   S    
C75   H58   S    
C70   O32   S    
C4    O49   A    
C22   C36   S    
C65   H28   S    
C74   O37   S    
C69   O31   S    
Cr4   O2    S    
C22   H45   S    
C10   C38   S    
C59   O21   S    
C13   O41   S    
C21   H34   S    
Cr4   O15   S    
C30   H4    S    
C24   H56   S    
C77   H65   S    
C21   C53   S    
C83   O46   S    
C1    O5    A    
C15   C28   S    
C42   C67   S    
Cr6   O19   S    
Cr6   O14   S    
C82   O44   S    
C5    C18   S    
C42   C55   S    
C17   C31   S    
Cr4   O19   S    
C79   H69   S    
C79   O41   S    
C70   H41   S    
Cr1   O1    S    
C65   H30   S    
C58   O20   S    
C34   O8    A    
C37   C50   S    
Cr2   O45   S    
C7    C41   S    
C41   C54   S    
C63   H21   S    
C67   O50   A    
C61   H17   S    
C80   H71   S    
C10   C11   S    
C43   C57   S    
C11   O40   S    
C6    C16   S    
C67   O11   A    
C72   H50   S    
C62   H18   S    
C1    C36   S    
C69   H39   S    
C40   C53   S    
C12   C37   S    
C59   H8    S    
C76   H62   S    
C66   H33   S    
C78   O13   A    
C75   H60   S    
C60   H14   S    
C68   H35   S    
C15   C33   S    
C60   O22   S    
C51   O27   S    
Cr1   O34   S    
C32   C34   S    
Cr3   O18   S    
