data_mof_unit_32501.cif
_audit_creation_date              2012-12-10T18:23:56-0500
_audit_creation_method            fapswitch 2.2
_symmetry_space_group_name_H-M    P1
_symmetry_Int_Tables_number       1
_space_group_crystal_system       triclinic
_cell_length_a                    15.709583
_cell_length_b                    14.995002
_cell_length_c                    14.064439
_cell_angle_alpha                 89.782317
_cell_angle_beta                  88.843122
_cell_angle_gamma                 89.920892
_cell_volume                      3312.39072869

loop_
_atom_site_label
_atom_site_type_symbol
_atom_type_description
_atom_site_fract_x
_atom_site_fract_y
_atom_site_fract_z
_atom_type_partial_charge
C1    C     C_R   0.501209 0.326893 0.500271 0.918132
C2    C     C_R   0.499240 0.673387 0.499448 0.930041
C3    C     C_R   0.499076 0.769337 0.497522 -0.189837
C4    C     C_R   0.503366 0.231423 0.500898 -0.180960
C5    C     C_R   0.539099 0.814056 0.570957 -0.373433
C6    C     C_R   0.458997 0.186833 0.430824 -0.325994
C7    C     C_R   0.540778 0.906148 0.571895 0.137350
C8    C     C_R   0.457186 0.094875 0.430308 0.129554
C9    C     C_R   0.499152 0.954037 0.499969 0.022475
C10   C     C_R   0.500353 0.047047 0.501185 0.015795
C11   C     C_R   0.456746 0.909086 0.426533 0.000484
C12   C     C_R   0.545049 0.092129 0.572853 0.002935
C13   C     C_R   0.583246 0.950891 0.643918 -0.222417
C14   C     C_R   0.411921 0.050282 0.360548 -0.205972
C15   C     C_R   0.585726 0.043412 0.644245 -0.184262
C16   C     C_R   0.411279 0.957904 0.358895 -0.196486
C17   C     C_R   0.438186 0.546715 0.799146 0.619365
C18   C     C_R   0.567721 0.464021 0.199680 0.623217
C19   C     C_R   0.560046 0.452589 0.796982 -0.104770
C20   C     C_R   0.432387 0.534814 0.203098 -0.143211
C21   C     C_R   0.561164 0.451668 0.897065 -0.018225
C22   C     C_R   0.430778 0.535535 0.102772 -0.020818
C23   C     C_R   0.337845 0.500031 0.500819 0.905215
C24   C     C_R   0.662113 0.499831 0.499178 0.885952
C25   C     C_R   0.496665 0.496065 0.949328 -0.027112
C26   C     C_R   0.497518 0.495384 0.050248 -0.022589
C27   C     C_R   0.431281 0.540632 0.900532 -0.189803
C28   C     C_R   0.565075 0.454619 0.098775 -0.190599
C29   C     C_R   0.624495 0.405277 0.945287 -0.300405
C30   C     C_R   0.362449 0.573483 0.054586 -0.313669
C31   C     C_R   0.628429 0.407070 0.045779 0.555892
C32   C     C_R   0.361728 0.577466 0.953679 0.556464
C33   C     C_3   0.969286 0.498504 0.587469 0.644306
C34   C     C_3   0.030436 0.498316 0.411780 0.649837
C35   C     C_3   0.026649 0.424240 0.546069 -0.322254
C36   C     C_3   0.973102 0.572573 0.453210 -0.326084
C37   C     C_1   0.248896 0.499583 0.502506 -0.148767
C38   C     C_1   0.750981 0.499066 0.497398 -0.188045
C39   C     C_3   0.026182 0.572847 0.545185 -0.310415
C40   C     C_3   0.973519 0.423966 0.454088 -0.324023
C41   C     C_3   0.082710 0.498598 0.502055 0.050178
C42   C     C_3   0.917065 0.498241 0.497200 0.054829
C43   C     C_1   0.173570 0.499090 0.502805 0.019760
C44   C     C_1   0.826265 0.498495 0.496767 -0.004343
C45   C     C_R   0.460817 0.816097 0.422367 0.467907
C46   C     C_R   0.548403 0.185126 0.571120 0.471002
H1    H     H_    0.670530 0.367012 0.904149 0.153277
H2    H     H_    0.309160 0.598850 0.096297 0.156758
H3    H     H_    0.949868 0.364360 0.416274 0.160901
H4    H     H_    0.049731 0.632470 0.583051 0.163186
H5    H     H_    0.615033 0.914300 0.699575 0.143398
H6    H     H_    0.377400 0.086861 0.306978 0.149077
H7    H     H_    0.619536 0.076480 0.700425 0.188667
H8    H     H_    0.375266 0.925106 0.304322 0.185225
N1    N     N_R   0.500040 0.500070 0.750030 -0.158235
N2    N     N_R   0.499960 0.499930 0.249970 -0.157836
O1    O     O_R   0.500020 0.367860 0.580280 -0.578087
O2    O     O_R   0.499980 0.632140 0.419720 -0.596812
O3    O     O_R   0.500020 0.367840 0.419730 -0.608425
O4    O     O_R   0.499980 0.632160 0.580270 -0.621404
O5    O     O_R   0.376770 0.500000 0.580260 -0.570336
O6    O     O_R   0.623230 0.500000 0.419740 -0.584037
O7    O     O_R   0.376780 0.499980 0.419710 -0.620964
O8    O     O_R   0.623220 0.500020 0.580290 -0.624364
Zn1   Zn    Zn3+2 0.499990 0.500020 0.607200 0.999941
Zn2   Zn    Zn3+2 0.500010 0.499980 0.392800 0.989505
H9    H     H_    0.050566 0.364848 0.584641 0.160727
H10   H     H_    0.949147 0.631950 0.414637 0.156718
O9    O     O_3   0.687086 0.355131 0.094304 -0.557703
C47   C     C_3   0.769578 0.360367 0.052713 -0.320014
H11   H     H_    0.816529 0.343802 0.107962 0.193268
H12   H     H_    0.785306 0.428480 0.025729 0.133051
H13   H     H_    0.777159 0.310263 0.995220 0.170084
O10   O     O_3   0.290351 0.606567 0.904980 -0.565396
C48   C     C_3   0.251175 0.681490 0.948021 -0.336093
H14   H     H_    0.213823 0.716961 0.893454 0.197374
H15   H     H_    0.298287 0.729912 0.975703 0.138759
H16   H     H_    0.205724 0.660001 0.005084 0.172580
O11   O     O_3   0.929604 0.498560 0.678342 -0.608592
C49   C     C_3   0.992470 0.498836 0.748314 -0.313391
H17   H     H_    0.032425 0.559910 0.743365 0.170400
H18   H     H_    0.032954 0.438030 0.743971 0.164957
H19   H     H_    0.960440 0.498778 0.819330 0.188172
O12   O     O_3   0.069785 0.498284 0.320732 -0.595382
C50   C     C_3   0.006619 0.497622 0.251062 -0.335546
H20   H     H_    0.965708 0.558105 0.255656 0.151707
H21   H     H_    0.967067 0.436264 0.256124 0.157378
H22   H     H_    0.038356 0.497970 0.179889 0.196915
O13   O     O_3   0.422223 0.770559 0.349216 -0.600805
C51   C     C_3   0.478084 0.769903 0.269057 -0.306023
H23   H     H_    0.448467 0.730385 0.212066 0.185564
H24   H     H_    0.540238 0.738249 0.285368 0.168287
H25   H     H_    0.489395 0.838059 0.240296 0.147390
O14   O     O_3   0.592585 0.230762 0.639958 -0.604698
C52   C     C_3   0.675416 0.248755 0.604328 -0.316839
H26   H     H_    0.674125 0.291823 0.539764 0.158565
H27   H     H_    0.710922 0.186039 0.588720 0.157722
H28   H     H_    0.710719 0.285398 0.659389 0.194303
H29   H     H_    0.570776 0.776912 0.626373 0.172703
H30   H     H_    0.424639 0.224041 0.377442 0.182335
O15   O     O_3   0.384028 0.600775 0.748451 -0.542200
C53   C     C_3   0.412118 0.690012 0.756040 -0.219124
H31   H     H_    0.380792 0.730565 0.700609 0.188095
H32   H     H_    0.482231 0.696805 0.745163 0.129544
H33   H     H_    0.394164 0.718800 0.826108 0.150213
O16   O     O_3   0.639768 0.439411 0.247780 -0.535689
C54   C     C_3   0.700681 0.508407 0.236577 -0.241873
H34   H     H_    0.758049 0.490257 0.277157 0.180497
H35   H     H_    0.676067 0.572973 0.264839 0.135873
H36   H     H_    0.721204 0.517753 0.161180 0.131181
H37   H     H_    0.607941 0.416534 0.756112 0.180916
H38   H     H_    0.380330 0.563902 0.243973 0.188460

loop_
_geom_bond_atom_site_label_1
_geom_bond_atom_site_label_2
_ccdc_geom_bond_type
C7    C13   A    
O15   C53   S    
C41   C43   S    
C36   C42   S    
C52   H26   S    
C20   N2    A    
C52   H28   S    
C39   C41   S    
C4    C46   A    
C50   H20   S    
C33   C39   S    
C36   C39   S    
C34   O12   S    
C29   H1    S    
C34   C40   S    
C33   C42   S    
C15   H7    S    
C30   H2    S    
C19   C21   A    
O9    C47   S    
C1    O3    A    
O3    Zn2   S    
C32   O10   S    
C2    O4    A    
C50   H22   S    
O16   C54   S    
C40   H3    S    
C53   H33   S    
C17   O15   S    
C20   H38   S    
O2    Zn2   S    
C14   H6    S    
C5    H29   S    
C24   C38   S    
C54   H34   S    
C47   H11   S    
C45   O13   S    
C9    C10   A    
C17   N1    A    
C18   N2    A    
C40   C42   S    
O7    Zn2   S    
C24   O8    A    
C13   H5    S    
C24   O6    A    
C54   H35   S    
C53   H31   S    
C34   C41   S    
C42   C44   S    
C49   H19   S    
N1    Zn1   S    
C50   H21   S    
O10   C48   S    
O6    Zn2   S    
C17   C27   A    
C18   C28   A    
O12   C50   S    
C4    C6    A    
C5    C7    A    
C33   O11   S    
C6    C8    A    
C25   C26   A    
C23   C37   S    
C21   C29   A    
C3    C45   A    
C6    H30   S    
C37   C43   T    
C48   H14   S    
C18   O16   S    
C38   C44   T    
C1    O1    A    
C48   H15   S    
C11   C16   A    
C51   H24   S    
C46   O14   S    
C12   C15   A    
C35   H9    S    
C36   H10   S    
C47   H13   S    
C52   H27   S    
C53   H32   S    
C9    C11   A    
C10   C12   A    
C12   C46   A    
C20   C22   A    
O4    Zn1   S    
C13   C15   A    
C54   H36   S    
C14   C16   A    
C11   C45   A    
C51   H25   S    
C23   O5    A    
C19   N1    A    
C7    C9    A    
C21   C25   A    
C8    C14   A    
C22   C30   A    
C27   C32   A    
C28   C31   A    
O1    Zn1   S    
C49   H17   S    
C3    C5    A    
C2    O2    A    
C19   H37   S    
C25   C27   A    
C26   C28   A    
C1    C4    S    
O8    Zn1   S    
C2    C3    S    
C29   C31   A    
C30   C32   A    
C51   H23   S    
N2    Zn2   S    
C23   O7    A    
C33   C35   S    
C49   H18   S    
C35   C40   S    
C34   C36   S    
O14   C52   S    
C35   C41   S    
C48   H16   S    
C16   H8    S    
O11   C49   S    
O5    Zn1   S    
C31   O9    S    
C39   H4    S    
C8    C10   A    
C22   C26   A    
C47   H12   S    
O13   C51   S    
