data_mof_unit_63576.cif
_audit_creation_date              2012-12-10T20:12:39-0500
_audit_creation_method            fapswitch 2.2
_symmetry_space_group_name_H-M    P1
_symmetry_Int_Tables_number       1
_space_group_crystal_system       triclinic
_cell_length_a                    18.926477
_cell_length_b                    18.427061
_cell_length_c                    10.714201
_cell_angle_alpha                 89.467455
_cell_angle_beta                  90.499814
_cell_angle_gamma                 89.717508
_cell_volume                      3736.32723321

loop_
_atom_site_label
_atom_site_type_symbol
_atom_type_description
_atom_site_fract_x
_atom_site_fract_y
_atom_site_fract_z
_atom_type_partial_charge
Br1   Br    Br    0.456779 0.911756 0.227321 -0.392770
Br2   Br    Br    0.455541 0.092563 0.228893 -0.388582
Br3   Br    Br    0.399676 0.629540 0.115010 -0.451115
Br4   Br    Br    0.346600 0.456119 0.150428 -0.463761
Br5   Br    Br    0.731529 0.379860 0.637949 -0.469887
Br6   Br    Br    0.674922 0.621584 0.285546 -0.493844
C1    C     C_R   0.364910 0.500259 0.496532 0.918218
C2    C     C_R   0.963402 0.437018 0.323596 -0.154817
C3    C     C_R   0.033971 0.565582 0.381109 -0.166847
C4    C     C_R   0.036854 0.438112 0.325846 -0.163768
C5    C     C_R   0.072528 0.501581 0.360489 0.101878
C6    C     C_R   0.925333 0.499724 0.353525 0.131099
C7    C     C_R   0.177772 0.439380 0.453535 -0.144220
C8    C     C_R   0.190605 0.560135 0.364513 -0.128785
C9    C     C_R   0.497486 0.500525 0.258012 0.952666
C10   C     C_R   0.248216 0.439942 0.491210 -0.130452
C11   C     C_R   0.260388 0.561369 0.404838 -0.123237
C12   C     C_3   0.571689 0.458342 0.937602 -0.161835
C13   C     C_R   0.289578 0.501275 0.468252 -0.019866
C14   C     C_R   0.148429 0.499524 0.389800 0.106269
C15   C     C_R   0.560845 0.726309 0.523997 0.109166
C16   C     C_R   0.561235 0.272749 0.519728 0.059980
C17   C     C_R   0.561847 0.802492 0.521253 -0.250347
C18   C     C_R   0.562114 0.196591 0.517620 -0.249975
C19   C     C_R   0.499940 0.841604 0.491952 0.158801
C20   C     C_R   0.499596 0.158430 0.493120 0.161033
C21   C     C_R   0.437802 0.802407 0.468881 -0.189086
C22   C     C_R   0.437019 0.198455 0.474345 -0.190098
C23   C     C_R   0.756722 0.447476 0.508862 0.238331
C24   C     C_R   0.439054 0.726279 0.472609 0.068156
C25   C     C_R   0.438391 0.274560 0.477737 0.043789
C26   C     C_R   0.479640 0.962423 0.379075 0.242055
C27   C     C_R   0.479369 0.039412 0.379547 0.243119
C28   C     C_R   0.499727 0.077317 0.488319 -0.019936
C29   C     C_R   0.500063 0.922828 0.487564 -0.016716
C30   C     C_R   0.634997 0.499966 0.493275 0.997492
C31   C     C_R   0.521639 0.037283 0.593962 -0.197704
C32   C     C_R   0.521749 0.961297 0.593629 -0.198513
C33   C     C_R   0.501675 0.499684 0.742922 0.952664
C34   C     C_R   0.733915 0.550043 0.367670 0.218225
C35   C     C_3   0.488403 0.580998 0.071045 0.069204
C36   C     C_3   0.439109 0.450047 0.070603 0.076543
C37   C     C_3   0.498864 0.580908 0.928944 -0.275101
C38   C     C_3   0.432533 0.462709 0.928982 -0.316925
C39   C     C_3   0.571129 0.474044 0.080857 -0.568511
C40   C     C_3   0.497214 0.501717 0.122808 -0.043451
C41   C     C_3   0.503297 0.499178 0.880108 -0.227614
C42   C     C_2   0.558061 0.632634 0.892922 1.010826
C43   C     C_2   0.404609 0.396050 0.861993 0.987535
C44   C     C_2   0.642396 0.483731 0.884850 1.011943
C45   C     C_R   0.826272 0.445463 0.468421 -0.175895
C46   C     C_2   0.571625 0.376129 0.914206 0.988953
C47   C     C_R   0.803839 0.547510 0.329682 -0.154457
C48   C     C_R   0.850043 0.495649 0.379905 -0.008180
C49   C     C_R   0.709663 0.500159 0.459198 -0.213212
C50   C     C_R   0.960780 0.564716 0.376787 -0.153437
H1    H     H_    0.529251 0.615681 0.115826 0.199784
H2    H     H_    0.609816 0.301449 0.536621 0.190699
H3    H     H_    0.610776 0.830667 0.540419 0.155338
H4    H     H_    0.611434 0.167711 0.533100 0.164834
H5    H     H_    0.388674 0.830516 0.447928 0.166854
H6    H     H_    0.387499 0.171004 0.456853 0.164742
H7    H     H_    0.391120 0.696793 0.452858 0.134629
H8    H     H_    0.389981 0.304645 0.461614 0.138824
H9    H     H_    0.538012 0.065117 0.677921 0.184471
H10   H     H_    0.538131 0.932232 0.677422 0.182869
H11   H     H_    0.450593 0.605680 0.885886 0.196789
H12   H     H_    0.456262 0.393363 0.090407 0.215483
H13   H     H_    0.389441 0.503363 0.914532 0.207969
H14   H     H_    0.610694 0.516310 0.104685 0.238677
H15   H     H_    0.588940 0.426262 0.137174 0.234363
H16   H     H_    0.862751 0.406554 0.510162 0.177768
H17   H     H_    0.822505 0.586492 0.261311 0.183779
H18   H     H_    0.931886 0.613357 0.401427 0.148709
H19   H     H_    0.936284 0.386630 0.304527 0.154572
H20   H     H_    0.586377 0.721037 0.793430 0.337217
H21   H     H_    0.333511 0.356537 0.739251 0.337413
H22   H     H_    0.696084 0.536970 0.750557 0.355386
H23   H     H_    0.059896 0.615053 0.409601 0.140296
H24   H     H_    0.586293 0.294832 0.791919 0.357130
H25   H     H_    0.065602 0.388574 0.306572 0.148631
H26   H     H_    0.146004 0.392536 0.476714 0.137551
H27   H     H_    0.169649 0.606648 0.313699 0.145260
H28   H     H_    0.270239 0.392681 0.538391 0.150878
H29   H     H_    0.292088 0.608460 0.382694 0.171193
H30   H     H_    0.608946 0.696804 0.545761 0.155362
N1    N     N_R   0.499980 0.689440 0.500020 -0.087961
N2    N     N_R   0.499980 0.310560 0.500020 -0.095447
O1    O     O_R   0.398180 0.560840 0.500010 -0.641549
O2    O     O_R   0.544202 0.688186 0.806335 -0.776481
O3    O     O_2   0.429526 0.335733 0.882092 -0.578018
O4    O     O_R   0.348008 0.404186 0.778230 -0.808148
O5    O     O_2   0.697361 0.466405 0.938719 -0.571996
O6    O     O_R   0.645928 0.523546 0.773473 -0.800802
O7    O     O_2   0.562114 0.332512 0.999230 -0.583993
O8    O     O_R   0.586644 0.349796 0.795346 -0.748122
O9    O     O_R   0.398180 0.439160 0.500010 -0.621538
O10   O     O_R   0.499990 0.560810 0.314820 -0.589281
O11   O     O_R   0.499990 0.439190 0.314820 -0.621809
O12   O     O_R   0.601820 0.560790 0.500050 -0.592590
O13   O     O_R   0.601820 0.439210 0.500050 -0.593483
O14   O     O_R   0.500010 0.560810 0.685230 -0.591191
O15   O     O_R   0.500010 0.439190 0.685230 -0.572843
O16   O     O_2   0.615726 0.629535 0.945192 -0.602509
Zn1   Zn    Zn3+2 0.500000 0.581210 0.500040 1.029494
Zn2   Zn    Zn3+2 0.500000 0.418790 0.500040 1.025798

loop_
_geom_bond_atom_site_label_1
_geom_bond_atom_site_label_2
_ccdc_geom_bond_type
C38   C43   S    
C15   N1    A    
H21   O4    S    
C39   H15   S    
C28   C31   A    
C12   C41   S    
C12   C46   S    
C47   C48   A    
C17   H3    S    
O12   Zn1   S    
O10   Zn1   S    
C46   O7    D    
C11   H29   S    
C18   C20   A    
C3    H23   S    
C42   O16   D    
C10   H28   S    
O14   Zn1   S    
C36   C40   S    
C21   H5    S    
C20   C28   S    
C32   H10   S    
C31   H9    S    
C35   C40   S    
C16   N2    A    
H24   O8    S    
C37   C42   S    
C38   C41   S    
C18   H4    S    
C17   C19   A    
C42   O2    S    
C24   H7    S    
C21   C24   A    
C36   H12   S    
C35   C37   S    
C8    C11   A    
C36   C38   S    
C8    H27   S    
C43   O3    D    
Br5   C23   S    
C5    C14   S    
C50   H18   S    
C22   H6    S    
C26   C29   A    
C8    C14   A    
C29   C32   A    
C44   O6    S    
C23   C49   A    
C39   C40   S    
C7    H26   S    
Br1   C26   S    
C30   O13   A    
C31   C32   A    
N2    Zn2   S    
N1    Zn1   S    
C2    C6    A    
C34   C49   A    
C27   C28   A    
C38   H13   S    
C30   O12   A    
C3    C50   A    
C3    C5    A    
C6    C50   A    
C19   C29   S    
O9    Zn2   S    
Br2   C27   S    
C2    C4    A    
C1    C13   S    
C15   C17   A    
Br6   C34   S    
C45   H16   S    
C43   O4    S    
C12   C39   S    
C12   C44   S    
C33   O14   A    
C33   C41   S    
C23   C45   A    
O13   Zn2   S    
O11   Zn2   S    
C15   H30   S    
Br3   C35   S    
C25   N2    A    
C1    O9    A    
C7    C14   A    
C39   H14   S    
C25   H8    S    
C22   C25   A    
C47   H17   S    
C9    O11   A    
C16   H2    S    
C44   O5    D    
C33   O15   A    
C19   C21   A    
C4    H25   S    
C20   C22   A    
C45   C48   A    
C26   C27   A    
C35   H1    S    
C30   C49   S    
Br4   C36   S    
H22   O6    S    
C10   C13   A    
C11   C13   A    
C46   O8    S    
O15   Zn2   S    
C16   C18   A    
C2    H19   S    
C4    C5    A    
C37   H11   S    
C34   C47   A    
C7    C10   A    
O1    Zn1   S    
C9    O10   A    
C9    C40   S    
C24   N1    A    
C37   C41   S    
C6    C48   S    
H20   O2    S    
C1    O1    A    
