data_mof_unit_14584.cif
_audit_creation_date              2013-03-05T16:40:44-0500
_audit_creation_method            fapswitch 2.2
_symmetry_space_group_name_H-M    P1
_symmetry_Int_Tables_number       1
_space_group_crystal_system       triclinic
_cell_length_a                    17.957088
_cell_length_b                    16.543723
_cell_length_c                    10.922226
_cell_angle_alpha                 90.649652
_cell_angle_beta                  95.61007
_cell_angle_gamma                 90.717054
_cell_volume                      3228.69140358

loop_
_atom_site_label
_atom_site_type_symbol
_atom_site_description
_atom_site_fract_x
_atom_site_fract_y
_atom_site_fract_z
_atom_type_partial_charge
O1    O     O_R   0.391260 0.567930 0.500000 -0.497090
O2    O     O_R   0.608740 0.432070 0.500000 -0.588825
O3    O     O_R   0.608740 0.567930 0.500000 -0.514514
O4    O     O_R   0.391260 0.432070 0.500000 -0.529643
C1    C     C_R   0.355403 0.500575 0.507330 0.849382
C2    C     C_R   0.645351 0.500786 0.497436 0.830802
O5    O     O_R   0.500000 0.567910 0.319660 -0.557358
O6    O     O_R   0.500000 0.432090 0.680340 -0.553084
O7    O     O_R   0.500000 0.567910 0.680340 -0.507187
O8    O     O_R   0.500000 0.432090 0.319660 -0.538331
C3    C     C_R   0.509340 0.499623 0.262764 0.847752
C4    C     C_R   0.490159 0.499453 0.737019 0.855199
Cu1   Cu    Cu3+1 0.500000 0.580420 0.500000 1.139412
Cu2   Cu    Cu3+1 0.500000 0.419580 0.500000 1.125144
C5    C     C_R   0.535312 0.649147 0.105483 -0.087612
C6    C     C_R   0.458128 0.345923 0.887558 -0.051730
C7    C     C_R   0.423286 0.629573 0.909539 -0.052383
C8    C     C_R   0.555002 0.352294 0.106103 -0.013274
C9    C     C_R   0.500917 0.718788 0.051239 0.009175
C10   C     C_R   0.483656 0.273147 0.943528 0.022606
C11   C     C_R   0.439538 0.707933 0.959299 0.014003
C12   C     C_R   0.538943 0.277025 0.044820 0.027786
C13   C     C_R   0.473703 0.566989 0.941962 0.085479
C14   C     C_R   0.520547 0.424012 0.059334 0.011987
C15   C     C_R   0.511586 0.571384 0.059940 0.081461
C16   C     C_R   0.486227 0.421617 0.936984 0.019451
C17   C     C_R   0.477255 0.495516 0.871834 -0.144982
C18   C     C_R   0.521371 0.498647 0.127413 -0.160149
C19   C     C_R   0.849177 0.580613 0.534827 -0.227680
C20   C     C_R   0.147777 0.440197 0.501731 -0.210924
C21   C     C_R   0.159070 0.580102 0.559426 -0.243475
C22   C     C_R   0.852048 0.438269 0.494240 -0.101527
H1    H     H_    0.879638 0.637359 0.552474 0.133024
H2    H     H_    0.112202 0.387260 0.480574 0.136177
H3    H     H_    0.131410 0.635227 0.583514 0.125689
H4    H     H_    0.885174 0.384775 0.482683 0.176375
C23   C     C_R   0.770951 0.579404 0.519520 0.021934
C24   C     C_R   0.224928 0.435146 0.497768 -0.084297
C25   C     C_R   0.237077 0.579063 0.555771 0.021484
C26   C     C_R   0.773612 0.433171 0.481271 -0.075984
C27   C     C_R   0.730008 0.504149 0.498309 -0.115211
C28   C     C_R   0.272692 0.504569 0.522461 -0.062831
C29   C     C_R   0.889119 0.510810 0.522288 0.097183
C30   C     C_R   0.115306 0.511713 0.532445 0.149566
C31   C     C_1   0.968973 0.514030 0.530042 -0.024788
C32   C     C_1   0.035868 0.514504 0.533004 -0.019243
C33   C     C_R   0.552351 0.831994 0.576505 -0.229174
C34   C     C_R   0.453602 0.166712 0.417585 -0.204639
C35   C     C_R   0.455123 0.830229 0.414100 -0.241098
C36   C     C_R   0.549693 0.170006 0.581197 -0.190034
H5    H     H_    0.589399 0.866679 0.642145 0.222038
H6    H     H_    0.417064 0.131656 0.351470 0.214878
H7    H     H_    0.416507 0.863313 0.351273 0.227787
H8    H     H_    0.588479 0.137588 0.644696 0.222155
C37   C     C_R   0.549996 0.746612 0.581197 0.562049
C38   C     C_R   0.452095 0.252131 0.416848 0.614738
C39   C     C_R   0.451753 0.744841 0.416447 0.522727
C40   C     C_R   0.549820 0.255515 0.582107 0.532719
N1    N     N_R   0.500000 0.701220 0.500000 -0.295445
N2    N     N_R   0.500000 0.298780 0.500000 -0.281320
C41   C     C_R   0.505124 0.874267 0.493570 -0.050107
C42   C     C_R   0.501979 0.125152 0.499325 -0.046955
C43   C     C_1   0.504683 0.962846 0.495240 0.089943
C44   C     C_1   0.503661 0.036615 0.497220 0.089927
C45   C     C_2   0.576843 0.202380 0.091807 0.578383
H9    H     H_    0.637323 0.202144 0.110390 0.093327
O9    O     O_2   0.540891 0.142422 0.115632 -0.487714
C46   C     C_2   0.397552 0.777866 0.905487 0.540424
H10   H     H_    0.337251 0.780233 0.905130 0.034352
O10   O     O_2   0.430222 0.832708 0.858197 -0.465535
C47   C     C_2   0.452976 0.193609 0.895612 0.561481
H11   H     H_    0.392872 0.184037 0.880676 0.092092
O11   O     O_2   0.494220 0.139411 0.868880 -0.488238
C48   C     C_2   0.528621 0.801084 0.092275 0.460813
H12   H     H_    0.587878 0.811954 0.117073 0.048259
O12   O     O_2   0.485855 0.857158 0.101133 -0.468230
C49   C     C_2   0.600622 0.657947 0.199180 0.420400
H13   H     H_    0.607274 0.711664 0.256900 0.089803
O13   O     O_2   0.648139 0.605680 0.211275 -0.530792
C50   C     C_2   0.397485 0.343632 0.784671 0.385776
H14   H     H_    0.359414 0.393689 0.770968 0.132384
O14   O     O_2   0.391659 0.287455 0.711029 -0.517382
C51   C     C_2   0.346562 0.609196 0.852579 0.418785
H15   H     H_    0.303747 0.654773 0.843751 0.056589
O15   O     O_2   0.328436 0.540355 0.820040 -0.595719
C52   C     C_2   0.610185 0.356194 0.215496 0.351368
H16   H     H_    0.645521 0.409496 0.234002 0.076094
O16   O     O_2   0.613208 0.301407 0.289425 -0.571418
C53   C     C_2   0.738369 0.660683 0.524106 0.497181
H17   H     H_    0.761185 0.703334 0.594429 0.108502
O17   O     O_2   0.692717 0.684199 0.443133 -0.541824
C54   C     C_2   0.249295 0.355237 0.461066 0.514356
H18   H     H_    0.221805 0.327333 0.378159 0.096195
O18   O     O_2   0.292697 0.316329 0.528669 -0.451705
C55   C     C_2   0.272819 0.659949 0.587252 0.451537
H19   H     H_    0.237658 0.712983 0.585287 0.079786
O19   O     O_2   0.338961 0.670676 0.619880 -0.530886
C56   C     C_2   0.742061 0.352184 0.446916 0.449725
H20   H     H_    0.689246 0.332526 0.473442 0.200295
O20   O     O_2   0.776597 0.304316 0.388691 -0.510221
S1    S     S_3+6 0.606294 0.710142 0.712727 0.015380
O21   O     O_2   0.561094 0.717903 0.819644 -0.314216
O22   O     O_2   0.633589 0.625227 0.707936 -0.289017
O23   O     O_3   0.681616 0.771498 0.741360 -0.583750
H21   H     H_    0.703194 0.757726 0.825372 0.379672
S2    S     S_3+6 0.387145 0.286302 0.294523 0.024640
O24   O     O_2   0.367988 0.374029 0.290868 -0.283521
O25   O     O_2   0.417085 0.264073 0.176086 -0.343627
O26   O     O_3   0.307964 0.231406 0.298795 -0.556052
H22   H     H_    0.280340 0.237285 0.216373 0.369479
S3    S     S_3+6 0.375267 0.706686 0.312399 0.012874
O27   O     O_2   0.376997 0.749707 0.192678 -0.340527
O28   O     O_2   0.371034 0.617846 0.284889 -0.278811
O29   O     O_3   0.295420 0.734634 0.367691 -0.545743
H23   H     H_    0.255090 0.716906 0.304328 0.369279
S4    S     S_3+6 0.622079 0.293861 0.694330 -0.003792
O30   O     O_2   0.630785 0.383351 0.712857 -0.279708
O31   O     O_2   0.609707 0.257606 0.815680 -0.325547
O32   O     O_3   0.703977 0.256587 0.658356 -0.566817
H24   H     H_    0.741294 0.274463 0.726402 0.382427

loop_
_geom_bond_atom_site_label_1
_geom_bond_atom_site_label_2
_geom_bond_distance
_ccdc_geom_bond_type
C1    C28   1.512556 S    
S1    O21   1.491142 D    
C37   N1    1.403137 A    
S3    O27   1.498627 D    
O3    C2    1.299256 A    
O29   H23   0.990723 S    
C5    C49   1.483780 S    
C31   C32   1.198440 T    
C15   C18   1.421994 A    
O5    C3    1.303761 A    
C16   C17   1.424518 A    
C36   H8    1.084931 S    
C48   O12   1.220655 D    
C23   C27   1.442746 A    
C8    C14   1.421902 A    
C22   H4    1.085502 S    
C9    C11   1.424788 A    
C14   C16   1.415737 A    
C24   C28   1.431980 A    
C26   C56   1.478177 S    
C52   O16   1.218911 D    
C5    C15   1.419289 A    
S2    O24   1.495805 D    
C40   N2    1.410891 A    
C24   C54   1.461693 S    
C35   C39   1.413817 A    
S4    O30   1.496160 D    
C20   C24   1.393827 A    
C41   C43   1.465458 S    
O7    Cu1   1.982889 S    
C42   C44   1.465376 S    
C55   H19   1.086538 S    
C19   H1    1.086338 S    
S4    O31   1.496027 D    
C46   H10   1.083657 S    
C45   O9    1.221096 D    
C2    C27   1.519605 S    
C10   C47   1.489539 S    
C13   C17   1.407049 A    
C53   O17   1.216376 D    
O3    Cu1   1.966125 S    
O6    C4    1.291167 A    
C13   C15   1.397772 A    
S1    O22   1.495677 D    
Cu1   Cu2   2.660894 S    
C19   C29   1.379535 A    
C40   S4    1.799810 S    
C20   C30   1.377997 A    
O2    C2    1.308048 A    
O23   H21   0.990696 S    
C30   C32   1.428399 S    
C25   C28   1.454390 A    
C49   O13   1.221561 D    
C6    C16   1.424697 A    
C35   C41   1.381036 A    
C21   C30   1.381828 A    
C20   H2    1.086747 S    
C4    C17   1.514814 S    
C36   C40   1.414543 A    
C50   O14   1.218941 D    
C48   H12   1.084296 S    
C47   O11   1.220943 D    
C52   H16   1.085347 S    
O4    C1    1.315943 A    
C33   H5    1.083381 S    
C49   H13   1.082300 S    
C7    C11   1.415859 A    
C38   N2    1.405397 A    
C7    C51   1.488238 S    
C5    C9    1.421830 A    
C12   C45   1.489536 S    
C34   C42   1.379022 A    
C51   H15   1.081955 S    
C7    C13   1.409305 A    
O5    Cu1   1.978223 S    
C6    C10   1.417444 A    
C25   C55   1.498594 S    
C54   O18   1.215637 D    
S3    O28   1.496291 D    
C8    C52   1.476094 S    
C29   C31   1.428433 S    
C38   S2    1.787151 S    
C26   C27   1.439822 A    
C51   O15   1.219932 D    
C10   C12   1.412719 A    
C45   H9    1.085226 S    
S1    O23   1.683246 S    
C56   O20   1.222350 D    
C11   C46   1.484268 S    
O8    Cu2   1.982891 S    
C36   C42   1.379715 A    
C21   H3    1.085856 S    
O1    Cu1   1.960985 S    
O1    C1    1.287181 A    
C33   C37   1.414303 A    
C34   C38   1.413856 A    
O6    Cu2   1.978221 S    
C8    C12   1.419905 A    
C9    C48   1.492532 S    
C14   C18   1.433278 A    
C50   H14   1.082836 S    
C33   C41   1.381257 A    
O32   H24   0.990732 S    
C55   O19   1.216416 D    
Cu1   N1    1.998480 S    
Cu2   N2    1.998480 S    
C37   S1    1.789091 S    
S4    O32   1.681549 S    
C23   C53   1.475398 S    
C47   H11   1.085034 S    
O26   H22   0.990864 S    
C39   S3    1.798110 S    
S2    O25   1.492581 D    
C3    C18   1.514727 S    
C35   H7    1.084561 S    
C54   H18   1.083596 S    
C22   C29   1.381662 A    
C21   C25   1.405543 A    
S3    O29   1.677467 S    
C22   C26   1.403126 A    
O4    Cu2   1.966128 S    
O2    Cu2   1.960981 S    
O7    C4    1.315051 A    
C39   N1    1.407196 A    
O8    C3    1.301529 A    
C43   C44   1.220766 T    
C34   H6    1.084728 S    
C46   O10   1.220946 D    
C56   H20   1.066449 S    
C19   C23   1.398157 A    
C6    C50   1.486221 S    
C53   H17   1.083820 S    
S2    O26   1.682343 S    
