data_mof_unit_33412.cif
_audit_creation_date              2012-12-11T16:12:47-0500
_audit_creation_method            fapswitch 2.2
_symmetry_space_group_name_H-M    P1
_symmetry_Int_Tables_number       1
_space_group_crystal_system       triclinic
_cell_length_a                    7.189991
_cell_length_b                    20.934742
_cell_length_c                    23.737997
_cell_angle_alpha                 90.0
_cell_angle_beta                  89.999987
_cell_angle_gamma                 90.000193
_cell_volume                      3573.05770711

loop_
_atom_site_label
_atom_site_type_symbol
_atom_type_description
_atom_site_fract_x
_atom_site_fract_y
_atom_site_fract_z
_atom_type_partial_charge
O1    O     O_R   0.615270 0.806540 0.192260 -0.534222
O2    O     O_R   0.384730 0.193460 0.807740 -0.530734
O3    O     O_R   0.384730 0.193460 0.692260 -0.534222
O4    O     O_R   0.615270 0.806540 0.307740 -0.530734
O5    O     O_R   0.115270 0.693460 0.307740 -0.534222
O6    O     O_R   0.884730 0.306540 0.692260 -0.530734
O7    O     O_R   0.884730 0.306540 0.807740 -0.534222
O8    O     O_R   0.115270 0.693460 0.192260 -0.530734
O9    O     O_R   0.285500 0.813970 0.307340 -0.536063
O10   O     O_R   0.714500 0.186030 0.692660 -0.534666
O11   O     O_R   0.714500 0.186030 0.807340 -0.536063
O12   O     O_R   0.285500 0.813970 0.192660 -0.534666
O13   O     O_R   0.785500 0.686030 0.192660 -0.536064
O14   O     O_R   0.214500 0.313970 0.807340 -0.534666
O15   O     O_R   0.214500 0.313970 0.692660 -0.536064
O16   O     O_R   0.785500 0.686030 0.307340 -0.534666
C1    C     C_R   0.452917 0.828786 0.326322 0.719098
C2    C     C_R   0.546955 0.171212 0.673681 0.718061
C3    C     C_R   0.547083 0.171214 0.826322 0.719097
C4    C     C_R   0.453045 0.828788 0.173681 0.718060
C5    C     C_R   0.952916 0.671214 0.173678 0.719097
C6    C     C_R   0.046955 0.328788 0.826319 0.718060
C7    C     C_R   0.047084 0.328786 0.673678 0.719097
C8    C     C_R   0.953044 0.671212 0.326319 0.718060
O17   O     O_3   0.448760 0.710460 0.250000 -0.371716
O18   O     O_3   0.551240 0.289540 0.750000 -0.371716
O19   O     O_3   0.948760 0.789540 0.250000 -0.371716
O20   O     O_3   0.051240 0.210460 0.750000 -0.371716
V1    V     V_3+5 0.173900 0.757330 0.250000 1.403927
V2    V     V_3+5 0.826100 0.242670 0.750000 1.403927
V3    V     V_3+5 0.673900 0.742670 0.250000 1.403926
V4    V     V_3+5 0.326100 0.257330 0.750000 1.403927
C9    C     C_3   0.098429 0.530952 0.544349 0.124493
C10   C     C_3   0.925796 0.472243 0.458038 0.087342
C11   C     C_3   0.901571 0.469048 0.044350 0.124493
C12   C     C_3   0.074203 0.527756 0.958037 0.087341
C13   C     C_3   0.598427 0.969049 0.955651 0.124494
C14   C     C_3   0.425807 0.027757 0.041965 0.087331
C15   C     C_3   0.401573 0.030951 0.455651 0.124492
C16   C     C_3   0.574192 0.972242 0.541965 0.087338
C17   C     C_3   0.908485 0.551651 0.519622 0.102659
C18   C     C_3   0.115457 0.451910 0.482872 0.091442
C19   C     C_3   0.091514 0.448350 0.019622 0.102659
C20   C     C_3   0.884542 0.548090 0.982872 0.091443
C21   C     C_3   0.408484 0.948351 0.980379 0.102661
C22   C     C_3   0.615465 0.048091 0.017128 0.091446
C23   C     C_3   0.591515 0.051649 0.480380 0.102660
C24   C     C_3   0.384534 0.951909 0.517128 0.091446
C25   C     C_1   0.957454 0.625601 0.372276 -0.206253
C26   C     C_1   0.044723 0.374931 0.628122 -0.196385
C27   C     C_1   0.042545 0.374399 0.872276 -0.206253
C28   C     C_1   0.955277 0.625069 0.128122 -0.196385
C29   C     C_1   0.457457 0.874399 0.127724 -0.206254
C30   C     C_1   0.544721 0.125070 0.871878 -0.196385
C31   C     C_1   0.542543 0.125601 0.627725 -0.206254
C32   C     C_1   0.455279 0.874931 0.371878 -0.196385
C33   C     C_3   0.179848 0.523127 0.483903 0.115690
C34   C     C_3   0.844289 0.480403 0.517996 0.100306
C35   C     C_3   0.820151 0.476873 0.983904 0.115689
C36   C     C_3   0.155711 0.519597 0.017995 0.100306
C37   C     C_3   0.679853 0.976874 0.016096 0.115697
C38   C     C_3   0.344292 0.019599 0.982008 0.100301
C39   C     C_3   0.320146 0.023126 0.516096 0.115692
C40   C     C_3   0.655707 0.980401 0.482007 0.100306
C41   C     C_3   0.989130 0.543034 0.459196 -0.014289
C42   C     C_3   0.033809 0.460298 0.542800 -0.027225
C43   C     C_3   0.010868 0.456965 0.959196 -0.014288
C44   C     C_3   0.966191 0.539702 0.042800 -0.027225
C45   C     C_3   0.489136 0.956966 0.040805 -0.014285
C46   C     C_3   0.533810 0.039704 0.957201 -0.027224
C47   C     C_3   0.510862 0.043033 0.540805 -0.014286
C48   C     C_3   0.466190 0.960296 0.457201 -0.027226
C49   C     C_1   0.965655 0.588100 0.411263 -0.028488
C50   C     C_1   0.045196 0.413423 0.589842 -0.046862
C51   C     C_1   0.034344 0.411900 0.911263 -0.028489
C52   C     C_1   0.954805 0.586577 0.089842 -0.046863
C53   C     C_1   0.465660 0.911900 0.088737 -0.028492
C54   C     C_1   0.545194 0.086578 0.910158 -0.046867
C55   C     C_1   0.534339 0.088099 0.588738 -0.028493
C56   C     C_1   0.454807 0.913422 0.410158 -0.046866
C57   C     C_3   0.810694 0.615337 0.533993 -0.324699
C58   C     C_3   0.784462 0.630185 0.596711 -0.782712
H1    H     H_    0.756959 0.586935 0.621999 0.230605
H2    H     H_    0.907726 0.654714 0.614246 0.231597
H3    H     H_    0.667415 0.664118 0.602162 0.215785
H4    H     H_    0.891305 0.655172 0.515028 0.175554
H5    H     H_    0.674818 0.616093 0.513571 0.173685
C59   C     C_3   0.217740 0.389297 0.469281 -0.328366
C60   C     C_3   0.291040 0.385642 0.409080 -0.791403
H6    H     H_    0.181702 0.396731 0.377841 0.238020
H7    H     H_    0.407529 0.419057 0.402959 0.226270
H8    H     H_    0.342995 0.336595 0.400770 0.218590
H9    H     H_    0.333082 0.381874 0.499356 0.170861
H10   H     H_    0.120703 0.348932 0.476531 0.183365
C61   C     C_3   0.189305 0.384663 0.033993 -0.324700
C62   C     C_3   0.215537 0.369815 0.096711 -0.782713
H11   H     H_    0.243043 0.413064 0.121999 0.230605
H12   H     H_    0.092272 0.345286 0.114246 0.231598
H13   H     H_    0.332583 0.335881 0.102162 0.215785
H14   H     H_    0.108694 0.344828 0.015028 0.175555
H15   H     H_    0.325181 0.383907 0.013571 0.173685
C63   C     C_3   0.782260 0.610703 0.969282 -0.328367
C64   C     C_3   0.708958 0.614358 0.909080 -0.791403
H16   H     H_    0.818295 0.603267 0.877842 0.238020
H17   H     H_    0.592467 0.580943 0.902960 0.226270
H18   H     H_    0.657005 0.663405 0.900770 0.218590
H19   H     H_    0.666919 0.618126 0.999357 0.170863
H20   H     H_    0.879298 0.651068 0.976530 0.183367
C65   C     C_3   0.310690 0.884665 0.966007 -0.324703
C66   C     C_3   0.284449 0.869821 0.903289 -0.782713
H21   H     H_    0.256944 0.913073 0.878004 0.230607
H22   H     H_    0.407710 0.845293 0.885751 0.231597
H23   H     H_    0.167401 0.835889 0.897838 0.215786
H24   H     H_    0.391303 0.844829 0.984970 0.175555
H25   H     H_    0.174817 0.883909 0.986430 0.173688
C67   C     C_3   0.717746 0.110704 0.030718 -0.328365
C68   C     C_3   0.791077 0.114353 0.090916 -0.791423
H26   H     H_    0.681776 0.103235 0.122158 0.238022
H27   H     H_    0.907615 0.080954 0.097021 0.226269
H28   H     H_    0.842975 0.163405 0.099235 0.218595
H29   H     H_    0.833071 0.118132 0.000638 0.170870
H30   H     H_    0.620697 0.151067 0.023477 0.183375
C69   C     C_3   0.689307 0.115335 0.466008 -0.324704
C70   C     C_3   0.715546 0.130182 0.403290 -0.782718
H31   H     H_    0.743059 0.086931 0.378004 0.230607
H32   H     H_    0.592282 0.154708 0.385753 0.231600
H33   H     H_    0.832589 0.164116 0.397839 0.215785
H34   H     H_    0.608695 0.155171 0.484972 0.175555
H35   H     H_    0.825182 0.116092 0.486431 0.173689
C71   C     C_3   0.282250 0.889295 0.530717 -0.328369
C72   C     C_3   0.208930 0.885641 0.590916 -0.791411
H36   H     H_    0.318255 0.896736 0.622157 0.238023
H37   H     H_    0.092430 0.919053 0.597032 0.226271
H38   H     H_    0.156985 0.836593 0.599226 0.218592
H39   H     H_    0.166919 0.881871 0.500638 0.170866
H40   H     H_    0.379292 0.848932 0.523471 0.183366
C73   C     C_3   0.181808 0.557667 0.598982 -0.314791
C74   C     C_3   0.275830 0.622246 0.591104 -0.787216
H41   H     H_    0.403122 0.616551 0.565922 0.240841
H42   H     H_    0.184030 0.656644 0.569161 0.231459
H43   H     H_    0.314607 0.642184 0.632812 0.215712
H44   H     H_    0.071850 0.561428 0.631378 0.184417
H45   H     H_    0.280199 0.523148 0.617034 0.170660
C75   C     C_3   0.825753 0.446713 0.405367 -0.323773
C76   C     C_3   0.779544 0.375483 0.407447 -0.788991
H46   H     H_    0.906489 0.345774 0.406955 0.237543
H47   H     H_    0.695656 0.363408 0.445008 0.226532
H48   H     H_    0.697646 0.362650 0.369458 0.218564
H49   H     H_    0.695510 0.474167 0.399754 0.163543
H50   H     H_    0.912944 0.456243 0.367720 0.180198
C77   C     C_3   0.818192 0.442333 0.098982 -0.314792
C78   C     C_3   0.724169 0.377754 0.091104 -0.787219
H51   H     H_    0.596876 0.383450 0.065924 0.240841
H52   H     H_    0.815967 0.343357 0.069161 0.231460
H53   H     H_    0.685394 0.357817 0.132813 0.215712
H54   H     H_    0.928151 0.438572 0.131378 0.184418
H55   H     H_    0.719802 0.476853 0.117035 0.170660
C79   C     C_3   0.174245 0.553286 0.905366 -0.323773
C80   C     C_3   0.220452 0.624517 0.907446 -0.788988
H56   H     H_    0.093506 0.654225 0.906952 0.237543
H57   H     H_    0.304334 0.636593 0.945008 0.226531
H58   H     H_    0.302354 0.637350 0.869458 0.218564
H59   H     H_    0.304489 0.525833 0.899754 0.163543
H60   H     H_    0.087054 0.543756 0.867719 0.180198
C81   C     C_3   0.681803 0.942334 0.901017 -0.314794
C82   C     C_3   0.775822 0.877754 0.908896 -0.787221
H61   H     H_    0.903107 0.883448 0.934080 0.240844
H62   H     H_    0.684016 0.843356 0.930835 0.231458
H63   H     H_    0.814609 0.857819 0.867188 0.215713
H64   H     H_    0.571845 0.938574 0.868622 0.184419
H65   H     H_    0.780196 0.976853 0.882965 0.170660
C83   C     C_3   0.325775 0.053286 0.094638 -0.323777
C84   C     C_3   0.279601 0.124520 0.092564 -0.788983
H66   H     H_    0.406560 0.154221 0.093077 0.237547
H67   H     H_    0.195766 0.136608 0.054996 0.226530
H68   H     H_    0.197663 0.137349 0.130547 0.218563
H69   H     H_    0.195521 0.025838 0.100248 0.163537
H70   H     H_    0.412961 0.043748 0.132284 0.180197
C85   C     C_3   0.318199 0.057667 0.401017 -0.314791
C86   C     C_3   0.224180 0.122246 0.408895 -0.787215
H71   H     H_    0.096886 0.116552 0.434075 0.240839
H72   H     H_    0.315980 0.156643 0.430839 0.231458
H73   H     H_    0.185410 0.142185 0.367187 0.215712
H74   H     H_    0.428159 0.061426 0.368622 0.184418
H75   H     H_    0.219806 0.023148 0.382964 0.170659
C87   C     C_3   0.674226 0.946713 0.594638 -0.323771
C88   C     C_3   0.720429 0.875481 0.592560 -0.788998
H76   H     H_    0.593481 0.845774 0.593053 0.237546
H77   H     H_    0.804320 0.863404 0.555001 0.226534
H78   H     H_    0.802321 0.862651 0.630551 0.218566
H79   H     H_    0.804471 0.974166 0.600251 0.163540
H80   H     H_    0.587031 0.956245 0.632283 0.180199
C89   C     C_3   0.671653 0.443707 0.537008 -0.348670
C90   C     C_3   0.603877 0.464561 0.594487 -0.775883
H81   H     H_    0.481533 0.435343 0.606734 0.220266
H82   H     H_    0.564061 0.515167 0.592010 0.237742
H83   H     H_    0.713302 0.458794 0.626984 0.236806
H84   H     H_    0.561920 0.449355 0.505309 0.178103
H85   H     H_    0.704276 0.391908 0.538982 0.187669
C91   C     C_3   0.366543 0.549002 0.461954 -0.347326
C92   C     C_3   0.363832 0.618606 0.442079 -0.750701
H86   H     H_    0.312620 0.621472 0.398231 0.238309
H87   H     H_    0.278134 0.649056 0.470146 0.230186
H88   H     H_    0.506749 0.638133 0.440163 0.201486
H89   H     H_    0.467473 0.544768 0.496256 0.187470
H90   H     H_    0.414242 0.519683 0.426220 0.176582
C93   C     C_3   0.328347 0.556293 0.037007 -0.348671
C94   C     C_3   0.396124 0.535439 0.094486 -0.775882
H91   H     H_    0.518468 0.564657 0.106733 0.220266
H92   H     H_    0.435940 0.484833 0.092010 0.237740
H93   H     H_    0.286698 0.541207 0.126984 0.236806
H94   H     H_    0.438080 0.550645 0.005308 0.178103
H95   H     H_    0.295724 0.608092 0.038981 0.187669
C95   C     C_3   0.633456 0.450998 0.961955 -0.347327
C96   C     C_3   0.636168 0.381394 0.942079 -0.750699
H96   H     H_    0.687379 0.378528 0.898231 0.238309
H97   H     H_    0.721867 0.350944 0.970146 0.230186
H98   H     H_    0.493251 0.361866 0.940163 0.201485
H99   H     H_    0.532527 0.455232 0.996257 0.187471
H100  H     H_    0.585755 0.480317 0.926221 0.176582
C97   C     C_3   0.171655 0.056298 0.963000 -0.348677
C98   C     C_3   0.103861 0.035445 0.905523 -0.775885
H101  H     H_    0.981510 0.064662 0.893280 0.220266
H102  H     H_    0.064047 0.984838 0.907999 0.237743
H103  H     H_    0.213275 0.041215 0.873022 0.236807
H104  H     H_    0.061930 0.050651 0.994702 0.178111
H105  H     H_    0.204285 0.108096 0.961025 0.187667
C99   C     C_3   0.866547 0.950999 0.038046 -0.347334
C100  C     C_3   0.863835 0.881395 0.057922 -0.750707
H106  H     H_    0.812622 0.878530 0.101769 0.238310
H107  H     H_    0.778139 0.850946 0.029854 0.230188
H108  H     H_    0.006752 0.861869 0.059839 0.201487
H109  H     H_    0.967479 0.955235 0.003745 0.187474
H110  H     H_    0.914242 0.980319 0.073780 0.176590
C101  C     C_3   0.828345 0.943704 0.463000 -0.348677
C102  C     C_3   0.896140 0.964557 0.405523 -0.775886
H111  H     H_    0.018491 0.935341 0.393280 0.220267
H112  H     H_    0.935952 0.015164 0.408000 0.237739
H113  H     H_    0.786725 0.958788 0.373022 0.236807
H114  H     H_    0.938068 0.949351 0.494703 0.178109
H115  H     H_    0.795718 0.891905 0.461025 0.187672
C103  C     C_3   0.133450 0.049002 0.538042 -0.347329
C104  C     C_3   0.136163 0.118605 0.557921 -0.750702
H116  H     H_    0.187377 0.121468 0.601768 0.238310
H117  H     H_    0.221861 0.149055 0.529854 0.230186
H118  H     H_    0.993247 0.138132 0.559838 0.201486
H119  H     H_    0.032527 0.044769 0.503738 0.187475
H120  H     H_    0.085741 0.019681 0.573775 0.176584

loop_
_geom_bond_atom_site_label_1
_geom_bond_atom_site_label_2
_ccdc_geom_bond_type
C83   H69   S    
O17   V3    S    
C90   H82   S    
C73   H44   S    
C81   H65   S    
C91   H89   S    
C16   C47   S    
O12   V1    S    
O19   V1    S    
C101  H114  S    
C45   C53   S    
C61   C62   S    
C10   C18   S    
C93   H95   S    
C102  H112  S    
C72   H38   S    
C47   C55   S    
C57   C58   S    
C12   C43   S    
C69   C70   S    
C72   H37   S    
C84   H66   S    
C102  H111  S    
O16   V3    S    
O18   V4    S    
O11   C3    A    
C81   C82   S    
C67   H30   S    
C19   C36   S    
O8    V1    S    
C77   H55   S    
C11   C35   S    
C27   C51   T    
C17   C34   S    
C15   C23   S    
C100  H108  S    
C95   H99   S    
C68   H27   S    
C88   H77   S    
C21   C65   S    
C90   H83   S    
C46   C54   S    
C20   C35   S    
C83   H70   S    
C104  H116  S    
C42   C50   S    
C62   H13   S    
C21   C38   S    
O1    V3    S    
C41   C49   S    
C67   C68   S    
C38   C46   S    
O3    C2    A    
O2    V4    S    
C92   H86   S    
C38   C97   S    
C87   H79   S    
C66   H21   S    
C101  H115  S    
C88   H78   S    
C75   H50   S    
C66   H22   S    
C35   C43   S    
C34   C42   S    
C71   H39   S    
O11   V2    S    
C9    C73   S    
C91   C92   S    
C104  H117  S    
C62   H12   S    
C19   C61   S    
C77   C78   S    
C80   H57   S    
C63   H20   S    
C60   H7    S    
C11   C19   S    
C99   H110  S    
C57   H4    S    
C86   H73   S    
C12   C79   S    
O15   C7    A    
C90   H81   S    
C73   H45   S    
C14   C45   S    
O16   C8    A    
O7    V2    S    
C13   C46   S    
C69   H35   S    
C82   H62   S    
C92   H87   S    
C24   C71   S    
C82   H61   S    
O3    V4    S    
C11   C77   S    
C24   C48   S    
C10   C41   S    
C99   C100  S    
C76   H47   S    
C100  H106  S    
C86   H72   S    
C9    C42   S    
C76   H46   S    
O5    V1    S    
C84   H67   S    
O17   V1    S    
C59   H10   S    
C35   C95   S    
C37   C99   S    
C22   C46   S    
C67   H29   S    
C22   C37   S    
O19   V3    S    
C93   C94   S    
O4    V3    S    
O15   V4    S    
C18   C42   S    
C40   C101  S    
C96   H98   S    
O14   V4    S    
C23   C40   S    
C20   C63   S    
C95   C96   S    
C94   H91   S    
C7    C26   S    
C17   C41   S    
C79   H60   S    
C98   H103  S    
C28   C52   T    
C89   H85   S    
C39   C103  S    
C21   C45   S    
C97   H104  S    
C18   C33   S    
C24   C39   S    
C29   C53   T    
C96   H96   S    
C19   C43   S    
C97   C98   S    
C31   C55   T    
O10   V2    S    
C23   C69   S    
C80   H56   S    
C66   H23   S    
C78   H53   S    
O20   V4    S    
C101  C102  S    
C104  H118  S    
C17   C57   S    
C62   H11   S    
O12   C4    A    
O8    C5    A    
C80   H58   S    
O13   C5    A    
C63   H19   S    
C64   H17   S    
C13   C81   S    
C77   H54   S    
C59   C60   S    
C60   H8    S    
C98   H102  S    
C1    C32   S    
C23   C47   S    
C99   H109  S    
C57   H5    S    
C15   C48   S    
C74   H42   S    
C79   H59   S    
C70   H33   S    
O4    C1    A    
C65   H24   S    
C3    C30   S    
O9    C1    A    
O6    V2    S    
C39   C47   S    
C89   C90   S    
C58   H2    S    
C33   C91   S    
C79   C80   S    
C92   H88   S    
C25   C49   T    
C12   C20   S    
C43   C51   S    
C13   C21   S    
C72   H36   S    
O7    C6    A    
C76   H48   S    
C83   C84   S    
C70   H32   S    
C85   H74   S    
C78   H52   S    
C84   H68   S    
C37   C45   S    
C81   H64   S    
C16   C24   S    
C59   H9    S    
O1    C4    A    
C91   H90   S    
C13   C37   S    
C75   H49   S    
C103  C104  S    
O2    C3    A    
C61   H14   S    
O13   V3    S    
C71   H40   S    
C33   C41   S    
C4    C29   S    
C12   C36   S    
C74   H43   S    
C16   C40   S    
C15   C85   S    
C36   C93   S    
C14   C83   S    
C85   H75   S    
C9    C33   S    
C44   C52   S    
C58   H3    S    
C15   C39   S    
C73   C74   S    
C97   H105  S    
C34   C89   S    
C103  H119  S    
C32   C56   T    
C102  H113  S    
C22   C67   S    
C75   C76   S    
C9    C17   S    
O14   C6    A    
C26   C50   T    
C71   C72   S    
C60   H6    S    
C88   H76   S    
C100  H107  S    
C94   H92   S    
C95   H100  S    
C65   C66   S    
C10   C75   S    
O9    V1    S    
C69   H34   S    
C93   H94   S    
O5    C8    A    
C11   C44   S    
O10   C2    A    
C94   H93   S    
C2    C31   S    
O6    C7    A    
C8    C25   S    
O20   V2    S    
C68   H28   S    
C64   H18   S    
C16   C87   S    
C40   C48   S    
C87   H80   S    
C63   C64   S    
C103  H120  S    
C14   C22   S    
C96   H97   S    
C20   C44   S    
C74   H41   S    
C65   H25   S    
C85   C86   S    
C61   H15   S    
C18   C59   S    
C78   H51   S    
C36   C44   S    
C82   H63   S    
C48   C56   S    
C58   H1    S    
C64   H16   S    
C10   C34   S    
C6    C27   S    
C30   C54   T    
C87   C88   S    
C68   H26   S    
C98   H101  S    
C5    C28   S    
C86   H71   S    
C89   H84   S    
C70   H31   S    
C14   C38   S    
O18   V2    S    
