data_mof_unit_51786.cif
_audit_creation_date              2012-12-11T15:42:47-0500
_audit_creation_method            fapswitch 2.2
_symmetry_space_group_name_H-M    P1
_symmetry_Int_Tables_number       1
_space_group_crystal_system       triclinic
_cell_length_a                    6.965895
_cell_length_b                    14.625866
_cell_length_c                    16.187117
_cell_angle_alpha                 90.489307
_cell_angle_beta                  90.39346
_cell_angle_gamma                 90.499424
_cell_volume                      1649.01732596

loop_
_atom_site_label
_atom_site_type_symbol
_atom_type_description
_atom_site_fract_x
_atom_site_fract_y
_atom_site_fract_z
_atom_type_partial_charge
O1    O     O_R   0.505810 0.583360 0.413880 -0.540593
O2    O     O_R   0.175870 0.595480 0.585520 -0.544702
O3    O     O_R   0.005540 0.416640 0.586120 -0.544070
C1    C     C_R   0.346373 0.615678 0.616016 0.695863
O4    O     O_R   0.176100 0.594390 0.414490 -0.533804
O5    O     O_R   0.005770 0.415540 0.413870 -0.539188
C2    C     C_R   0.343406 0.615737 0.384912 0.691571
O6    O     O_R   0.505580 0.584460 0.586130 -0.539246
O7    O     O_3   0.339190 0.441320 0.500000 -0.373562
V1    V     V_3+5 0.064350 0.510890 0.500000 1.367608
O8    O     O_R   0.676050 0.404520 0.414480 -0.543027
C3    C     C_R   0.843725 0.380206 0.387165 0.668215
O9    O     O_R   0.675830 0.405610 0.585510 -0.538474
C4    C     C_R   0.845240 0.380712 0.610605 0.748991
V2    V     V_3+5 0.564340 0.489110 0.500000 1.374520
O10   O     O_3   0.839370 0.558680 0.500000 -0.372488
C5    C     C_2   0.738491 0.204071 0.780852 -0.174607
C6    C     C_2   0.886411 0.195417 0.835493 -0.053940
H1    H     H_    0.620628 0.155036 0.783007 0.120418
C7    C     C_2   0.716881 0.277430 0.718344 -0.143514
C8    C     C_2   0.861438 0.304815 0.669627 -0.335296
H2    H     H_    0.574923 0.306174 0.709982 0.143055
H3    H     H_    0.000020 0.271668 0.674443 0.135200
C9    C     C_R   0.031890 0.241841 0.205438 -0.174770
H4    H     H_    0.160971 0.241626 0.168504 0.124998
C10   C     C_R   0.016818 0.305077 0.270438 -0.181698
H5    H     H_    0.135312 0.352255 0.281035 0.121588
C11   C     C_R   0.851351 0.308933 0.320199 -0.062343
C12   C     C_R   0.699160 0.244959 0.303663 0.082505
C13   C     C_R   0.715984 0.183439 0.236713 -0.170855
H6    H     H_    0.600587 0.135012 0.224146 0.116796
C14   C     C_R   0.880568 0.181137 0.187203 -0.064356
C15   C     C_R   0.213595 0.747753 0.694958 -0.183584
H7    H     H_    0.095271 0.744525 0.651567 0.143291
C16   C     C_R   0.216718 0.815044 0.758271 0.132250
C17   C     C_R   0.374402 0.817069 0.815147 -0.125115
C18   C     C_R   0.522713 0.754356 0.804843 -0.198004
H8    H     H_    0.640552 0.755082 0.848947 0.131596
C19   C     C_R   0.519054 0.687473 0.742194 0.088571
C20   C     C_R   0.361540 0.683831 0.685496 -0.112705
C21   C     C_R   0.183361 0.727665 0.283483 0.146154
C22   C     C_R   0.201544 0.795294 0.222560 -0.174095
H9    H     H_    0.074622 0.830323 0.200844 0.118220
C23   C     C_R   0.377582 0.812759 0.184641 -0.069489
C24   C     C_R   0.535273 0.760771 0.208581 -0.163449
H10   H     H_    0.669458 0.767397 0.175866 0.125255
C25   C     C_R   0.518526 0.697998 0.273289 -0.215808
H11   H     H_    0.633991 0.655409 0.289294 0.157237
C26   C     C_R   0.347894 0.683317 0.315032 -0.074006
O11   O     O_R   0.230120 0.912300 0.917180 -0.546287
O12   O     O_R   0.559740 0.902430 0.088770 -0.543636
O13   O     O_R   0.729930 0.081310 0.089370 -0.538503
C27   C     C_R   0.390621 0.880547 0.117104 0.698807
O14   O     O_R   0.559840 0.901330 0.917750 -0.540562
O15   O     O_R   0.730030 0.080210 0.917120 -0.542175
C28   C     C_R   0.389435 0.882492 0.886499 0.689688
O16   O     O_R   0.230020 0.913400 0.089430 -0.539389
O17   O     O_3   0.396460 0.055470 0.003290 -0.368811
V3    V     V_3+5 0.671360 0.985960 0.003250 1.388110
O18   O     O_R   0.059740 0.091300 0.917690 -0.546525
C29   C     C_R   0.891204 0.115702 0.891846 0.708991
O19   O     O_R   0.059640 0.092400 0.088720 -0.546426
C30   C     C_R   0.891475 0.114336 0.117585 0.681910
V4    V     V_3+5 0.171350 0.007820 0.003190 1.380538
O20   O     O_3   0.896380 0.938200 0.003220 -0.372681
C31   C     C_3   0.055198 0.884772 0.765098 -0.319636
C32   C     C_3   0.915138 0.889286 0.691984 -0.809601
H12   H     H_    0.993840 0.901664 0.633629 0.229194
H13   H     H_    0.828711 0.825314 0.686886 0.231552
H14   H     H_    0.814271 0.946686 0.701962 0.220787
H15   H     H_    0.969405 0.869707 0.821038 0.197855
H16   H     H_    0.120280 0.954118 0.772013 0.173098
C33   C     C_3   0.676441 0.616644 0.745954 -0.347942
C34   C     C_3   0.599692 0.527360 0.783121 -0.308179
C35   C     C_3   0.759891 0.474321 0.824936 -0.774124
H17   H     H_    0.878509 0.462620 0.780838 0.226851
H18   H     H_    0.816695 0.513139 0.879226 0.226918
H19   H     H_    0.702751 0.407818 0.846752 0.229636
H20   H     H_    0.488522 0.541921 0.830381 0.195715
H21   H     H_    0.532385 0.484442 0.733756 0.191115
H22   H     H_    0.744585 0.604685 0.685309 0.188653
H23   H     H_    0.797065 0.643011 0.785140 0.168851
C36   C     C_3   0.986392 0.692268 0.299751 -0.343749
C37   C     C_3   0.960198 0.597021 0.258742 -0.683744
H24   H     H_    0.901371 0.604587 0.195237 0.199367
H25   H     H_    0.096580 0.558640 0.254000 0.206929
H26   H     H_    0.861187 0.553834 0.295355 0.202388
H27   H     H_    0.951505 0.692885 0.366402 0.192287
H28   H     H_    0.883679 0.740857 0.273692 0.147615
C38   C     C_3   0.048577 0.265882 0.845561 -0.346053
C39   C     C_3   0.058623 0.305564 0.933837 -0.306025
C40   C     C_3   0.214123 0.379494 0.941441 -0.784613
H29   H     H_    0.356708 0.350773 0.925950 0.230721
H30   H     H_    0.182509 0.437084 0.899305 0.225910
H31   H     H_    0.219327 0.406186 0.005852 0.219557
H32   H     H_    0.917949 0.335627 0.950433 0.190476
H33   H     H_    0.091553 0.251191 0.979071 0.202195
H34   H     H_    0.187078 0.232698 0.830374 0.170033
H35   H     H_    0.033105 0.324506 0.804013 0.196260
C41   C     C_3   0.519683 0.236618 0.356166 -0.359802
C42   C     C_3   0.565465 0.197185 0.441654 -0.278987
C43   C     C_3   0.384808 0.188985 0.494029 -0.750421
H36   H     H_    0.318759 0.257085 0.503150 0.242351
H37   H     H_    0.278787 0.142335 0.463599 0.217767
H38   H     H_    0.422655 0.160912 0.555498 0.207640
H39   H     H_    0.628954 0.128164 0.434023 0.183483
H40   H     H_    0.671475 0.240931 0.475250 0.189961
H41   H     H_    0.444914 0.302987 0.360853 0.194789
H42   H     H_    0.413151 0.190057 0.325694 0.162757

loop_
_geom_bond_atom_site_label_1
_geom_bond_atom_site_label_2
_ccdc_geom_bond_type
C42   H40   S    
C42   C43   S    
O15   V3    S    
O11   V4    S    
C21   C22   A    
C33   H23   S    
C16   C17   A    
C37   H26   S    
C1    O6    A    
C25   C26   A    
C24   H10   S    
C10   H5    S    
C12   C13   A    
C3    C11   S    
C4    C8    S    
C11   C12   A    
C37   H25   S    
O5    C3    A    
C13   H6    S    
V2    O10   S    
C21   C36   S    
C5    C7    S    
C43   H38   S    
C33   C34   S    
C21   C26   A    
C40   H29   S    
O19   V4    S    
C5    H1    S    
C39   H32   S    
O8    V2    S    
C23   C27   S    
C31   H16   S    
C31   H15   S    
O1    V2    S    
O7    V1    S    
C36   H27   S    
C41   H42   S    
C34   H21   S    
O9    C4    A    
C22   C23   A    
C33   H22   S    
C5    C6    D    
O14   V3    S    
C24   C25   A    
O17   V4    S    
C36   H28   S    
O14   C28   A    
C41   H41   S    
C15   C20   A    
C34   C35   S    
C32   H12   S    
C6    C38   S    
C25   H11   S    
C1    C20   S    
C37   H24   S    
C9    H4    S    
C2    C26   S    
C19   C20   A    
O4    C2    A    
C27   O16   A    
C16   C31   S    
O17   V3    S    
C40   H31   S    
O11   C28   A    
O18   C29   A    
O12   C27   A    
O2    C1    A    
C35   H17   S    
C9    C14   A    
C18   H8    S    
C17   C28   S    
O13   V3    S    
C36   C37   S    
O19   C30   A    
C40   H30   S    
C15   H7    S    
C39   H33   S    
C43   H37   S    
C35   H18   S    
O3    C4    A    
C7    H2    S    
O6    V2    S    
C34   H20   S    
C8    H3    S    
O12   V3    S    
C22   H9    S    
O2    V1    S    
C38   H35   S    
C39   C40   S    
C23   C24   A    
O16   V4    S    
C42   H39   S    
C17   C18   A    
C12   C41   S    
O1    C2    A    
C14   C30   S    
C9    C10   A    
O13   C30   A    
O5    V1    S    
O8    C3    A    
C6    C29   S    
C10   C11   A    
O18   V4    S    
C32   H14   S    
V4    O20   S    
O9    V2    S    
O7    V2    S    
O4    V1    S    
C18   C19   A    
O3    V1    S    
V1    O10   S    
V3    O20   S    
C13   C14   A    
C38   C39   S    
O15   C29   A    
C41   C42   S    
C15   C16   A    
C31   C32   S    
C19   C33   S    
C43   H36   S    
C35   H19   S    
C7    C8    D    
C32   H13   S    
C38   H34   S    
