data_mof_unit_30400.cif
_audit_creation_date              2012-12-10T18:44:23-0500
_audit_creation_method            fapswitch 2.2
_symmetry_space_group_name_H-M    P1
_symmetry_Int_Tables_number       1
_space_group_crystal_system       triclinic
_cell_length_a                    12.905111
_cell_length_b                    10.691772
_cell_length_c                    9.859969
_cell_angle_alpha                 90.464245
_cell_angle_beta                  96.623096
_cell_angle_gamma                 92.29318
_cell_volume                      1350.1914366

loop_
_atom_site_label
_atom_site_type_symbol
_atom_type_description
_atom_site_fract_x
_atom_site_fract_y
_atom_site_fract_z
_atom_type_partial_charge
C1    C     C_R   0.512055 0.260705 0.501311 0.943294
C2    C     C_R   0.487945 0.739294 0.498689 0.943293
C3    C     C_R   0.476370 0.873133 0.497439 -0.302546
C4    C     C_R   0.523630 0.126867 0.502561 -0.302546
C5    C     C_R   0.566137 0.580180 0.082398 0.303833
C6    C     C_R   0.433862 0.419820 0.917602 0.303833
C7    C     C_R   0.565994 0.580203 0.938571 0.255937
C8    C     C_R   0.434006 0.419797 0.061429 0.255937
C9    C     C_R   0.299249 0.515144 0.474448 0.934669
C10   C     C_R   0.700751 0.484856 0.525552 0.934669
C11   C     C_R   0.812770 0.464904 0.540670 -0.253891
C12   C     C_R   0.187230 0.535095 0.459330 -0.253891
C13   C     C_R   0.033699 0.450929 0.328160 0.203901
C14   C     C_R   0.966301 0.549071 0.671840 0.203901
C15   C     C_R   0.130758 0.509929 0.332108 0.115841
C16   C     C_R   0.869242 0.490071 0.667892 0.115842
C17   C     C_R   0.133418 0.555585 0.574114 0.266737
C18   C     C_R   0.866582 0.444415 0.425886 0.266737
C19   C     C_R   0.024790 0.530410 0.561138 -0.088138
C20   C     C_R   0.975210 0.469590 0.438862 -0.088138
C21   C     C_R   0.515735 0.060651 0.377763 0.163479
C22   C     C_R   0.484265 0.939349 0.622237 0.163479
C23   C     C_R   0.480748 0.936844 0.373813 0.246055
C24   C     C_R   0.519252 0.063156 0.626187 0.246055
N1    N     N_R   0.499970 0.499970 0.857200 -0.176162
N2    N     N_R   0.500030 0.500030 0.142800 -0.176162
O1    O     O_R   0.499990 0.316750 0.614620 -0.566505
O2    O     O_R   0.500010 0.683250 0.385380 -0.566505
O3    O     O_R   0.499990 0.316780 0.385290 -0.581913
O4    O     O_R   0.500010 0.683220 0.614710 -0.581913
O5    O     O_R   0.346360 0.499970 0.595710 -0.561553
O6    O     O_R   0.653640 0.500030 0.404290 -0.561553
O7    O     O_R   0.346360 0.499990 0.366380 -0.582670
O8    O     O_R   0.653640 0.500010 0.633620 -0.582670
Zn1   Zn    Zn3+2 0.500000 0.499980 0.653120 1.095647
Zn2   Zn    Zn3+2 0.500000 0.500020 0.346880 1.095647
Br1   Br    Br    0.791090 0.394104 0.250607 -0.364744
Br2   Br    Br    0.208910 0.605896 0.749393 -0.364744
I1    I     I_    0.820601 0.422247 0.854523 -0.070691
I2    I     I_    0.179399 0.577753 0.145477 -0.070691
I3    I     I_    0.018319 0.289560 0.195588 -0.049418
I4    I     I_    0.981681 0.710441 0.804412 -0.049418
I5    I     I_    0.581717 0.131055 0.202193 -0.022993
I6    I     I_    0.418283 0.868945 0.797807 -0.022994
Br3   Br    Br    0.421607 0.865237 0.199473 -0.318024
Br4   Br    Br    0.578393 0.134763 0.800527 -0.318024
Br5   Br    Br    0.661077 0.694230 0.191575 -0.288180
Br6   Br    Br    0.338923 0.305770 0.808425 -0.288180
Br7   Br    Br    0.659519 0.695019 0.858593 -0.301963
Br8   Br    Br    0.340481 0.304981 0.141407 -0.301963

loop_
_geom_bond_atom_site_label_1
_geom_bond_atom_site_label_2
_ccdc_geom_bond_type
C12   C17   A    
C6    C8    A    
C11   C18   A    
C23   Br3   S    
C14   C16   A    
C10   O6    A    
C8    N2    A    
C11   C16   A    
C3    C23   A    
C19   C20   A    
C7    N1    A    
C12   C15   A    
C2    O4    A    
C14   I4    S    
C1    C4    S    
C24   Br4   S    
C1    O3    A    
C2    C3    S    
C10   O8    A    
C9    O7    A    
C4    C21   A    
C5    Br5   S    
O3    Zn2   S    
C7    Br7   S    
C6    Br6   S    
O4    Zn1   S    
N1    Zn1   S    
O6    Zn2   S    
C13   I3    S    
C17   C19   A    
C18   Br1   S    
O5    Zn1   S    
C17   Br2   S    
C13   C15   A    
C21   C23   A    
C4    C24   A    
C9    C12   S    
C22   C24   A    
C15   I2    S    
C6    N1    A    
C10   C11   S    
C9    O5    A    
C16   I1    S    
C5    N2    A    
C8    Br8   S    
O7    Zn2   S    
O2    Zn2   S    
C18   C20   A    
C1    O1    A    
O8    Zn1   S    
N2    Zn2   S    
C5    C7    A    
C3    C22   A    
C2    O2    A    
C13   C20   A    
O1    Zn1   S    
C21   I5    S    
C14   C19   A    
C22   I6    S    
