data_mof_unit_20545.cif
_audit_creation_date              2013-03-05T16:45:09-0500
_audit_creation_method            fapswitch 2.2
_symmetry_space_group_name_H-M    P1
_symmetry_Int_Tables_number       1
_space_group_crystal_system       triclinic
_cell_length_a                    14.562971
_cell_length_b                    15.497042
_cell_length_c                    10.010289
_cell_angle_alpha                 89.129976
_cell_angle_beta                  88.920697
_cell_angle_gamma                 90.224584
_cell_volume                      2258.47057949

loop_
_atom_site_label
_atom_site_type_symbol
_atom_site_description
_atom_site_fract_x
_atom_site_fract_y
_atom_site_fract_z
_atom_type_partial_charge
O1    O     O_R   0.408400 0.908380 0.614690 -0.580758
O2    O     O_R   0.408400 0.091620 0.614690 -0.552356
O3    O     O_R   0.908400 0.408380 0.614690 -0.580758
O4    O     O_R   0.908400 0.591620 0.614690 -0.552356
O5    O     O_R   0.408370 0.908370 0.385350 -0.589277
O6    O     O_R   0.408370 0.091630 0.385350 -0.594294
O7    O     O_R   0.908370 0.408370 0.385350 -0.589277
O8    O     O_R   0.908370 0.591630 0.385350 -0.594294
C1    C     C_R   0.388546 0.873449 0.500051 0.905635
C2    C     C_R   0.378425 0.118416 0.500042 0.958508
C3    C     C_R   0.888546 0.373449 0.500051 0.905634
C4    C     C_R   0.878425 0.618416 0.500042 0.958509
Zn1   Zn    Zn3+2 0.500010 0.000000 0.653130 1.050385
Zn2   Zn    Zn3+2 0.000010 0.500000 0.653130 1.050385
Zn3   Zn    Zn3+2 0.499980 1.000000 0.346870 1.025131
Zn4   Zn    Zn3+2 0.999980 0.500000 0.346870 1.025131
O9    O     O_R   0.591610 0.091610 0.614650 -0.629557
O10   O     O_R   0.591610 0.908390 0.614650 -0.586470
O11   O     O_R   0.091610 0.591610 0.614650 -0.629557
O12   O     O_R   0.091610 0.408390 0.614650 -0.586470
O13   O     O_R   0.591590 0.091600 0.385310 -0.602841
O14   O     O_R   0.591590 0.908400 0.385310 -0.623378
O15   O     O_R   0.091590 0.591600 0.385310 -0.602841
O16   O     O_R   0.091590 0.408400 0.385310 -0.623378
C5    C     C_R   0.624445 0.115838 0.498771 0.884289
C6    C     C_R   0.622452 0.883619 0.500089 0.859564
C7    C     C_R   0.124445 0.615838 0.498771 0.884290
C8    C     C_R   0.122453 0.383619 0.500089 0.859564
C9    C     C_R   0.228531 0.175677 0.563138 0.181555
C10   C     C_R   0.306114 0.758131 0.617288 0.074907
C11   C     C_R   0.728531 0.675677 0.563139 0.181559
C12   C     C_R   0.806114 0.258131 0.617288 0.074908
C13   C     C_R   0.314484 0.187334 0.500252 -0.167908
C14   C     C_R   0.342964 0.790607 0.498936 -0.193931
C15   C     C_R   0.814484 0.687334 0.500251 -0.167911
C16   C     C_R   0.842964 0.290607 0.498936 -0.193930
C17   C     C_R   0.342742 0.270296 0.456029 0.152299
C18   C     C_R   0.330979 0.741754 0.381924 0.199523
C19   C     C_R   0.842742 0.770296 0.456029 0.152299
C20   C     C_R   0.830979 0.241754 0.381924 0.199522
C21   C     C_R   0.778635 0.836424 0.454789 -0.194306
C22   C     C_R   0.759465 0.181237 0.381125 -0.159898
C23   C     C_R   0.278635 0.336424 0.454789 -0.194306
C24   C     C_R   0.259465 0.681237 0.381125 -0.159898
H1    H     H_    0.797287 0.899696 0.415172 0.174442
H2    H     H_    0.743470 0.148830 0.289261 0.203149
H3    H     H_    0.297287 0.399696 0.415171 0.174442
H4    H     H_    0.243470 0.648830 0.289261 0.203149
C25   C     C_R   0.690004 0.819769 0.503811 -0.157556
C26   C     C_R   0.706712 0.166559 0.498367 -0.191660
C27   C     C_R   0.190004 0.319769 0.503811 -0.157555
C28   C     C_R   0.206712 0.666559 0.498367 -0.191660
C29   C     C_R   0.668133 0.743005 0.568729 0.122844
C30   C     C_R   0.740297 0.195213 0.619055 0.095612
C31   C     C_R   0.168133 0.243005 0.568728 0.122845
C32   C     C_R   0.240298 0.695212 0.619055 0.095612
C33   C     C_3   0.585037 0.688552 0.549885 0.045239
C34   C     C_3   0.691873 0.235180 0.736446 0.140549
C35   C     C_3   0.085037 0.188552 0.549884 0.045239
C36   C     C_3   0.191873 0.735179 0.736446 0.140549
C37   C     C_3   0.150718 0.113701 0.537299 -0.452708
C38   C     C_3   0.265805 0.803775 0.731536 -0.367565
C39   C     C_3   0.650718 0.613701 0.537300 -0.452708
C40   C     C_3   0.765804 0.303775 0.731536 -0.367566
H5    H     H_    0.546408 0.703765 0.457797 0.115063
H6    H     H_    0.621834 0.259572 0.714595 0.140687
H7    H     H_    0.046408 0.203765 0.457796 0.115063
H8    H     H_    0.121834 0.759572 0.714595 0.140687
H9    H     H_    0.138484 0.063570 0.615731 0.289324
H10   H     H_    0.316354 0.800672 0.812439 0.282705
H11   H     H_    0.638483 0.563570 0.615731 0.289324
H12   H     H_    0.816354 0.300672 0.812439 0.282705
H13   H     H_    0.151600 0.088840 0.434952 0.199209
H14   H     H_    0.239071 0.867979 0.702112 0.225155
H15   H     H_    0.651600 0.588840 0.434953 0.199209
H16   H     H_    0.739070 0.367979 0.702111 0.225155
C41   C     C_R   0.421993 0.986847 0.073978 0.101600
C42   C     C_R   0.921993 0.486847 0.073978 0.101600
N1    N     N_R   0.499140 0.000000 0.142800 -0.114619
N2    N     N_R   0.999140 0.500000 0.142800 -0.114619
C43   C     C_R   0.579474 0.006557 0.068996 -0.003962
C44   C     C_R   0.079474 0.506556 0.068996 -0.003962
H17   H     H_    0.643850 0.013470 0.120025 0.156231
H18   H     H_    0.143850 0.513470 0.120025 0.156231
C45   C     C_R   0.579306 0.007758 0.925695 0.015585
C46   C     C_R   0.079306 0.507758 0.925695 0.015585
H19   H     H_    0.643327 0.014880 0.870388 0.180528
H20   H     H_    0.143327 0.514880 0.870388 0.180528
N3    N     N_R   0.499160 0.000000 0.857150 -0.120677
N4    N     N_R   0.999160 0.500000 0.857150 -0.120677
C47   C     C_R   0.422860 0.974028 0.934897 0.027811
C48   C     C_R   0.922860 0.474028 0.934897 0.027811
C49   C     C_3   0.321328 0.001583 0.940271 0.355631
C50   C     C_3   0.821328 0.501584 0.940271 0.355630
C51   C     C_3   0.335917 0.037764 0.079894 0.139100
C52   C     C_3   0.835917 0.537764 0.079894 0.139100
I1    I     I_    0.479449 0.300890 0.393474 -0.221064
I2    I     I_    0.417222 0.750769 0.208483 -0.124871
I3    I     I_    0.979449 0.800890 0.393474 -0.221064
I4    I     I_    0.917222 0.250769 0.208483 -0.124871
I5    I     I_    0.369867 0.173542 0.092701 -0.101976
I6    I     I_    0.239479 0.997720 0.234314 -0.139643
I7    I     I_    0.869867 0.673542 0.092701 -0.101975
I8    I     I_    0.739479 0.497721 0.234314 -0.139643
N5    N     N_R   0.526312 0.681785 0.669940 0.253933
O17   O     O_R   0.464812 0.620795 0.679392 -0.327036
O18   O     O_R   0.528312 0.740719 0.761160 -0.318095
N6    N     N_R   0.696008 0.183235 0.859247 0.233997
O19   O     O_R   0.635709 0.196641 0.954078 -0.335417
O20   O     O_R   0.768280 0.137131 0.885293 -0.338658
N7    N     N_R   0.026312 0.181784 0.669939 0.253933
O21   O     O_R   0.964811 0.120795 0.679390 -0.327037
O22   O     O_R   0.028311 0.240718 0.761160 -0.318095
N8    N     N_R   0.196009 0.683235 0.859247 0.233997
O23   O     O_R   0.135710 0.696641 0.954079 -0.335417
O24   O     O_R   0.268280 0.637130 0.885293 -0.338658
N9    N     N_R   0.293126 0.060226 0.834111 0.218830
O25   O     O_R   0.274239 0.023348 0.722457 -0.433579
O26   O     O_R   0.250221 0.131327 0.862057 -0.330284
N10   N     N_R   0.257507 0.927334 0.950018 0.187235
O27   O     O_R   0.279044 0.858798 0.019338 -0.358413
O28   O     O_R   0.171460 0.938422 0.921057 -0.283500
N11   N     N_R   0.793126 0.560227 0.834111 0.218830
O29   O     O_R   0.750221 0.631327 0.862057 -0.330284
O30   O     O_R   0.774239 0.523348 0.722457 -0.433579
N12   N     N_R   0.757507 0.427334 0.950018 0.187235
O31   O     O_R   0.671460 0.438422 0.921057 -0.283500
O32   O     O_R   0.779044 0.358799 0.019338 -0.358413

loop_
_geom_bond_atom_site_label_1
_geom_bond_atom_site_label_2
_geom_bond_distance
_ccdc_geom_bond_type
C33   N5    1.464042 S    
N12   O31   1.302944 A    
C31   C35   1.489132 S    
C36   N8    1.461464 S    
N7    O21   1.300724 A    
O10   C6    1.288234 A    
C18   I2    2.126123 S    
C17   I1    2.125337 S    
N8    O23   1.300555 A    
N11   O29   1.300349 A    
C19   C21   1.389044 A    
C7    C28   1.430219 S    
O7    C3    1.289176 A    
N5    O18   1.301891 A    
O5    C1    1.289176 A    
C26   C30   1.390252 A    
Zn1   O10   1.988831 S    
C12   C16   1.378657 A    
C3    C16   1.443244 S    
N9    O26   1.300349 A    
C8    C27   1.398627 S    
C46   H20   1.079732 S    
N11   O30   1.296626 A    
C9    C13   1.400298 A    
N6    O19   1.300555 A    
C38   H10   1.105292 S    
C36   C38   1.509668 S    
C22   H2    1.083190 S    
C12   C30   1.364273 A    
O2    Zn1   1.990344 S    
C5    C26   1.430218 S    
Zn2   N4    2.042105 S    
C35   H7    1.111661 S    
O6    Zn3   1.989151 S    
N4    C48   1.398846 A    
C34   H6    1.113549 S    
Zn3   O14   1.990123 S    
Zn3   N1    2.043068 S    
C42   C52   1.484524 S    
C35   N7    1.464042 S    
C49   N10   1.477207 S    
O15   C7    1.300778 A    
N3    C47   1.398845 A    
O11   C7    1.296010 A    
C34   N6    1.461464 S    
C51   I6    2.151568 S    
C50   N11   1.453936 S    
C24   C28   1.405662 A    
C50   N12   1.477208 S    
O8    Zn4   1.989151 S    
C49   N9    1.453935 S    
C21   C25   1.393948 A    
C43   H17   1.081785 S    
N10   O28   1.302944 A    
C33   C39   1.511591 S    
C41   N1    1.345373 A    
C34   C40   1.509667 S    
C9    C37   1.511129 S    
C35   C37   1.511592 S    
C10   C14   1.378658 A    
C45   H19   1.079732 S    
C11   C39   1.511132 S    
C16   C20   1.417478 A    
O1    C1    1.312892 A    
C12   C40   1.468132 S    
N2    C44   1.374424 A    
C46   N4    1.370811 A    
C6    C25   1.398627 S    
N1    C43   1.374424 A    
C45   N3    1.370812 A    
C9    C31   1.368410 A    
C27   C31   1.380104 A    
C37   H13   1.099895 S    
C44   C46   1.434378 A    
C10   C32   1.364272 A    
C41   C51   1.484524 S    
C13   C17   1.410664 A    
C32   C36   1.502049 S    
Zn4   N2    2.043068 S    
C17   C23   1.389045 A    
C15   C19   1.410665 A    
C18   C24   1.398963 A    
Zn2   O12   1.988831 S    
C47   C49   1.540831 S    
C19   I3    2.125339 S    
O8    C4    1.295243 A    
C48   C50   1.540829 S    
C40   H16   1.107591 S    
N7    O22   1.301889 A    
C11   C29   1.368411 A    
C4    C15   1.419702 S    
C50   C52   1.532010 S    
O3    Zn2   1.991219 S    
C22   C26   1.405663 A    
O7    Zn4   1.973271 S    
C39   H11   1.107626 S    
Zn4   O15   1.990998 S    
C44   H18   1.081784 S    
C10   C38   1.468131 S    
C1    C14   1.443245 S    
C11   C15   1.400300 A    
O4    C4    1.298431 A    
O2    C2    1.298430 A    
N10   O27   1.302455 A    
C30   C34   1.502048 S    
C37   H9    1.107624 S    
O13   C5    1.300778 A    
C41   C47   1.409158 A    
N12   O32   1.302454 A    
Zn1   N3    2.042105 S    
C14   C18   1.417477 A    
Zn2   O11   1.972952 S    
O16   C8    1.294997 A    
C33   H5    1.111660 S    
C29   C33   1.489133 S    
C20   I4    2.126124 S    
N8    O24   1.302599 A    
O12   C8    1.288234 A    
N5    O17   1.300725 A    
Zn1   O9    1.972952 S    
C42   C48   1.409158 A    
C52   I8    2.151568 S    
O9    C5    1.296011 A    
C24   H4    1.083190 S    
N9    O25   1.296626 A    
C23   C27   1.393947 A    
C49   C51   1.532009 S    
C39   H15   1.099896 S    
C25   C29   1.380103 A    
C20   C22   1.398962 A    
N6    O20   1.302598 A    
C2    C13   1.419701 S    
C42   N2    1.345373 A    
C40   H12   1.105291 S    
O4    Zn2   1.990344 S    
O5    Zn3   1.973271 S    
O3    C3    1.312893 A    
O6    C2    1.295244 A    
C51   I5    2.165818 S    
Zn3   O13   1.990998 S    
O1    Zn1   1.991220 S    
C36   H8    1.113549 S    
Zn4   O16   1.990123 S    
O14   C6    1.294997 A    
C52   I7    2.165820 S    
C21   H1    1.083765 S    
C38   H14   1.107590 S    
C23   H3    1.083764 S    
C43   C45   1.434378 A    
C28   C32   1.390252 A    
