data_mof_unit_46821.cif
_audit_creation_date              2012-12-10T17:07:44-0500
_audit_creation_method            fapswitch 2.2
_symmetry_space_group_name_H-M    P1
_symmetry_Int_Tables_number       1
_space_group_crystal_system       triclinic
_cell_length_a                    10.692676
_cell_length_b                    10.725209
_cell_length_c                    10.013077
_cell_angle_alpha                 90.400416
_cell_angle_beta                  89.883349
_cell_angle_gamma                 89.479336
_cell_volume                      1148.23355015

loop_
_atom_site_label
_atom_site_type_symbol
_atom_type_description
_atom_site_fract_x
_atom_site_fract_y
_atom_site_fract_z
_atom_type_partial_charge
C1    C     C_R   0.510642 0.262588 0.498767 0.851903
C2    C     C_2   0.515076 0.598610 0.073469 0.007121
C3    C     C_R   0.258564 0.487896 0.500639 1.023187
C4    C     C_R   0.497083 0.737201 0.500385 0.876803
C5    C     C_R   0.741817 0.491262 0.500170 0.873172
C6    C     C_3   0.071113 0.472609 0.651480 0.151088
C7    C     C_3   0.926434 0.458889 0.649397 -0.220825
C8    C     C_3   0.069444 0.600227 0.435610 0.157464
C9    C     C_3   0.072039 0.360877 0.428638 0.146920
C10   C     C_3   0.121699 0.479911 0.503588 -0.214854
C11   C     C_3   0.493485 0.102308 0.250788 -0.328596
C12   C     C_3   0.878261 0.481376 0.502236 -0.124512
C13   C     C_3   0.481946 0.997890 0.145186 -0.465836
C14   C     C_3   0.433805 0.048707 0.012632 -0.606911
C15   C     C_3   0.876537 0.334049 0.710299 -0.332991
C16   C     C_3   0.855316 0.344473 0.862210 -0.264321
C17   C     C_3   0.801381 0.224538 0.918741 -0.721744
C18   C     C_3   0.927856 0.608052 0.453196 -0.436416
C19   C     C_3   0.928087 0.373732 0.409035 0.210616
C20   C     C_2   0.558194 0.927964 0.409300 -0.224386
C21   C     C_2   0.487475 0.868774 0.498450 0.317326
C22   C     C_2   0.540063 0.059593 0.387545 0.039944
C23   C     C_2   0.553160 0.134655 0.495956 0.244081
C24   C     C_2   0.490245 0.599869 0.926085 -0.060780
Cl1   Cl    Cl    0.885923 0.397730 0.236283 -0.580050
Cl2   Cl    Cl    0.368607 0.939907 0.597380 -0.485649
Cl3   Cl    Cl    0.633695 0.082869 0.641055 -0.645813
Cl4   Cl    Cl    0.150055 0.354772 0.751248 -0.538409
Cl5   Cl    Cl    0.403967 0.383284 0.092170 -0.461178
Cl6   Cl    Cl    0.138054 0.741689 0.497267 -0.560221
Cl7   Cl    Cl    0.153580 0.317236 0.277808 -0.455620
H1    H     H_    0.092729 0.562396 0.702556 0.198489
H2    H     H_    0.088739 0.279034 0.493951 0.155220
H3    H     H_    0.883701 0.284429 0.437809 0.099993
H4    H     H_    0.339537 0.091421 0.026013 0.301063
H5    H     H_    0.498828 0.119723 0.973008 0.271768
H6    H     H_    0.427079 0.971429 0.938652 0.261522
H7    H     H_    0.574976 0.953676 0.127396 0.228144
H8    H     H_    0.416048 0.925680 0.180870 0.257048
H9    H     H_    0.399585 0.146185 0.263490 0.277967
H10   H     H_    0.560253 0.171822 0.211095 0.238983
H11   H     H_    0.706134 0.209225 0.878623 0.271235
H12   H     H_    0.090916 0.595439 0.326813 0.219055
H13   H     H_    0.862461 0.143507 0.893108 0.286697
H14   H     H_    0.794045 0.231912 0.029005 0.277983
H15   H     H_    0.944334 0.365108 0.914188 0.305469
H16   H     H_    0.788708 0.422149 0.884216 0.208702
H17   H     H_    0.786195 0.307459 0.664974 0.223716
H18   H     H_    0.939027 0.253945 0.685856 0.249281
H19   H     H_    0.884805 0.635884 0.356608 0.222985
H20   H     H_    0.624247 0.877506 0.345656 0.132622
H21   H     H_    0.468005 0.688279 0.879526 0.168634
H22   H     H_    0.545388 0.425450 0.894032 0.215063
H23   H     H_    0.544299 0.685131 0.120029 0.098278
H24   H     H_    0.889156 0.536867 0.712623 0.192107
H25   H     H_    0.901579 0.682023 0.526972 0.214341
N1    N     N_2   0.501360 0.501330 0.852150 -0.153195
N2    N     N_2   0.501390 0.501360 0.147810 0.061542
O1    O     O_R   0.499980 0.319060 0.613040 -0.560093
O2    O     O_R   0.500020 0.319100 0.386900 -0.625602
O3    O     O_R   0.314770 0.499960 0.613070 -0.554344
O4    O     O_R   0.314820 0.500000 0.386930 -0.541588
O5    O     O_R   0.499980 0.680900 0.613100 -0.595317
O6    O     O_R   0.500020 0.680940 0.386960 -0.657683
O7    O     O_R   0.685180 0.500000 0.613070 -0.652776
O8    O     O_R   0.685230 0.500040 0.386930 -0.575822
Zn1   Zn    Zn3+2 0.499970 0.499970 0.650990 1.038927
Zn2   Zn    Zn3+2 0.500030 0.500030 0.349010 1.069072

loop_
_geom_bond_atom_site_label_1
_geom_bond_atom_site_label_2
_ccdc_geom_bond_type
C6    C10   S    
O8    Zn2   S    
C21   Cl2   S    
C2    N2    D    
C24   H21   S    
C6    C7    S    
C23   Cl3   S    
C9    C10   S    
O3    Zn1   S    
C11   C22   S    
C6    H1    S    
C8    H12   S    
O4    Zn2   S    
C5    O8    A    
C8    Cl6   S    
C1    C23   S    
C1    O1    A    
C16   H16   S    
C17   H13   S    
C3    C10   S    
C13   C14   S    
C20   C21   D    
C14   H6    S    
C9    H2    S    
C4    C21   S    
C11   C13   S    
C4    O5    A    
C18   H19   S    
C13   H7    S    
C7    C12   S    
C15   H17   S    
N1    Zn1   S    
C7    H24   S    
O6    Zn2   S    
C12   C19   S    
N2    Zn2   S    
C1    O2    A    
C17   H14   S    
C11   H10   S    
C20   H20   S    
C15   H18   S    
C2    C24   S    
C11   H9    S    
C19   Cl1   S    
O5    Zn1   S    
C13   H8    S    
C9    Cl7   S    
C3    O3    A    
C12   C18   S    
C15   C16   S    
C6    Cl4   S    
Cl5   N2    S    
O2    Zn2   S    
C5    C12   S    
C5    O7    A    
C2    H23   S    
C3    O4    A    
C16   H15   S    
C14   H4    S    
C4    O6    A    
C22   C23   D    
C24   N1    D    
C14   H5    S    
H22   N1    S    
C7    C15   S    
O1    Zn1   S    
C17   H11   S    
C18   H25   S    
C9    C19   S    
C8    C10   S    
C8    C18   S    
C20   C22   S    
C16   C17   S    
O7    Zn1   S    
C19   H3    S    
