data_mof_unit_16183.cif
_audit_creation_date              2012-12-10T17:33:12-0500
_audit_creation_method            fapswitch 2.2
_symmetry_space_group_name_H-M    P1
_symmetry_Int_Tables_number       1
_space_group_crystal_system       triclinic
_cell_length_a                    11.987849
_cell_length_b                    12.81542
_cell_length_c                    13.634265
_cell_angle_alpha                 91.462319
_cell_angle_beta                  79.099275
_cell_angle_gamma                 94.201284
_cell_volume                      2051.15558438

loop_
_atom_site_label
_atom_site_type_symbol
_atom_type_description
_atom_site_fract_x
_atom_site_fract_y
_atom_site_fract_z
_atom_type_partial_charge
C1    C     C_R   0.523661 0.700522 0.495947 0.869145
C2    C     C_R   0.144516 0.449672 0.467843 -0.051904
C3    C     C_R   0.973163 0.541103 0.528092 0.092982
C4    C     C_R   0.026841 0.458907 0.471896 0.093062
C5    C     C_R   0.479698 0.501224 0.686914 0.898954
C6    C     C_R   0.520303 0.498775 0.313085 0.899007
C7    C     C_1   0.536574 0.497757 0.208681 -0.190401
C8    C     C_1   0.463430 0.502232 0.791318 -0.190409
C9    C     C_2   0.549515 0.496447 0.016186 -0.030207
C10   C     C_2   0.450493 0.503530 0.983815 -0.030219
C11   C     C_1   0.452842 0.503130 0.879574 -0.048356
C12   C     C_R   0.476342 0.299480 0.504060 0.869096
C13   C     C_1   0.547161 0.496854 0.120426 -0.048389
C14   C     C_R   0.459345 0.187782 0.511687 -0.091150
C15   C     C_R   0.540667 0.812228 0.488388 -0.091182
C16   C     C_R   0.631225 0.970631 0.409604 -0.213047
C17   C     C_R   0.368827 0.029395 0.590564 -0.213062
C18   C     C_R   0.631018 0.862165 0.419287 0.074047
C19   C     C_R   0.369070 0.137870 0.580886 0.074079
C20   C     C_R   0.456153 0.868277 0.546127 -0.294034
C21   C     C_R   0.543842 0.131725 0.453949 -0.294040
C22   C     C_R   0.337858 0.508723 0.051409 0.151752
C23   C     C_R   0.456145 0.974407 0.534512 0.148540
C24   C     C_R   0.271097 0.593255 0.045776 -0.151645
C25   C     C_R   0.165130 0.598462 0.109064 -0.143736
C26   C     C_R   0.124628 0.519001 0.177723 -0.099065
C27   C     C_R   0.189699 0.433847 0.182703 -0.131071
C28   C     C_R   0.295621 0.428328 0.119630 -0.139165
C29   C     C_R   0.662140 0.491135 0.948590 0.151714
C30   C     C_R   0.728824 0.406552 0.954290 -0.151614
C31   C     C_R   0.834723 0.401145 0.890928 -0.143808
C32   C     C_R   0.875242 0.480469 0.822127 -0.099033
C33   C     C_R   0.810269 0.565691 0.817100 -0.130842
C34   C     C_R   0.543871 0.025606 0.465613 0.148561
C35   C     C_R   0.704417 0.571410 0.880249 -0.139251
C36   C     C_3   0.278492 0.201538 0.644582 -0.373375
C37   C     C_3   0.192859 0.141449 0.725511 -0.380148
C38   C     C_3   0.110432 0.214881 0.786215 -0.883626
C39   C     C_3   0.721726 0.798536 0.355701 -0.373465
C40   C     C_3   0.807673 0.858708 0.275069 -0.380181
C41   C     C_3   0.890351 0.785343 0.214565 -0.883621
C42   C     C_R   0.961752 0.388535 0.421196 -0.354173
C43   C     C_R   0.038252 0.611476 0.578792 -0.354178
C44   C     C_R   0.845251 0.401039 0.427103 0.031244
C45   C     C_R   0.154750 0.598964 0.572895 0.031284
C46   C     C_R   0.855488 0.550338 0.532144 -0.051987
H1    H     H_    0.611641 0.171770 0.401030 0.145944
H2    H     H_    0.999704 0.675795 0.622335 0.137571
H3    H     H_    0.301610 0.655491 0.993086 0.124710
H4    H     H_    0.114424 0.664135 0.104898 0.134921
H5    H     H_    0.042674 0.523200 0.226708 0.136657
H6    H     H_    0.158034 0.371824 0.235144 0.116902
H7    H     H_    0.344552 0.361339 0.123738 0.123915
H8    H     H_    0.698285 0.344409 0.007075 0.124712
H9    H     H_    0.885351 0.335417 0.895135 0.134870
H10   H     H_    0.957133 0.476111 0.773069 0.136618
H11   H     H_    0.841955 0.627612 0.764556 0.116915
H12   H     H_    0.388329 0.828221 0.599011 0.145960
H13   H     H_    0.655556 0.638438 0.876081 0.123922
H14   H     H_    0.157600 0.276101 0.824561 0.265908
H15   H     H_    0.062050 0.253025 0.736830 0.261241
H16   H     H_    0.049043 0.169594 0.843578 0.245692
H17   H     H_    0.142448 0.080184 0.690118 0.221761
H18   H     H_    0.239025 0.104000 0.777169 0.224948
H19   H     H_    0.322582 0.265603 0.682431 0.206978
H20   H     H_    0.229366 0.236983 0.594085 0.219064
H21   H     H_    0.938474 0.747163 0.264148 0.261335
H22   H     H_    0.843412 0.724156 0.175977 0.265815
H23   H     H_    0.697617 0.013265 0.358098 0.127626
H24   H     H_    0.951956 0.830697 0.157408 0.245694
H25   H     H_    0.761786 0.896215 0.223233 0.224895
H26   H     H_    0.857851 0.919934 0.310731 0.221813
H27   H     H_    0.770621 0.762963 0.406310 0.219206
H28   H     H_    0.677764 0.734572 0.317623 0.206971
H29   H     H_    0.302450 0.986771 0.642101 0.127626
H30   H     H_    0.187265 0.387335 0.424451 0.120376
H31   H     H_    0.812740 0.612679 0.575528 0.120306
H32   H     H_    0.204531 0.653575 0.611976 0.127030
H33   H     H_    0.795469 0.346426 0.388024 0.127020
H34   H     H_    0.000302 0.324223 0.377646 0.137555
N1    N     N_R   0.206090 0.519450 0.517820 -0.095932
N2    N     N_R   0.793910 0.480550 0.482180 -0.095892
O1    O     O_R   0.421240 0.658850 0.504760 -0.615237
O2    O     O_R   0.578760 0.341150 0.495240 -0.615244
O3    O     O_R   0.609960 0.646370 0.493320 -0.638409
O4    O     O_R   0.390040 0.353630 0.506680 -0.638357
O5    O     O_R   0.392060 0.507120 0.646890 -0.621258
O6    O     O_R   0.607940 0.492880 0.353110 -0.621257
O7    O     O_R   0.580780 0.494630 0.635450 -0.597631
O8    O     O_R   0.419220 0.505370 0.364550 -0.597622
Zn1   Zn    Zn3+2 0.373990 0.508340 0.507630 0.935653
Zn2   Zn    Zn3+2 0.626010 0.491660 0.492370 0.935628

loop_
_geom_bond_atom_site_label_1
_geom_bond_atom_site_label_2
_ccdc_geom_bond_type
C15   C18   A    
C42   H34   S    
C40   H25   S    
O5    Zn1   S    
N2    Zn2   S    
C41   H21   S    
C10   C22   S    
C30   H8    S    
C3    C43   A    
C26   C27   A    
C29   C30   A    
C14   C21   A    
C36   C37   S    
C44   N2    A    
C19   C36   S    
C30   C31   A    
C36   H20   S    
C6    O6    A    
C12   O2    A    
C35   H13   S    
C39   H28   S    
C9    C13   S    
C25   H4    S    
C16   C34   A    
C46   N2    A    
O6    Zn2   S    
C45   H32   S    
C1    C15   S    
C43   H2    S    
C9    C29   S    
C38   H15   S    
C22   C28   A    
C42   C44   A    
C37   H17   S    
O3    Zn2   S    
C41   H22   S    
C1    O3    A    
C15   C20   A    
C24   C25   A    
C39   C40   S    
C36   H19   S    
C17   C19   A    
C21   C34   A    
C25   C26   A    
C6    O8    A    
C5    O5    A    
C2    C4    A    
C18   C39   S    
C37   C38   S    
C5    C8    S    
C31   C32   A    
C20   C23   A    
C23   C34   A    
C17   C23   A    
O7    Zn2   S    
C43   C45   A    
C38   H14   S    
C40   C41   S    
C12   C14   S    
C22   C24   A    
C20   H12   S    
C3    C4    A    
C37   H18   S    
C2    H30   S    
C27   H6    S    
C9    C10   D    
C24   H3    S    
C33   H11   S    
C40   H26   S    
C14   C19   A    
C44   H33   S    
C45   N1    A    
C16   H23   S    
C46   H31   S    
C28   H7    S    
C6    C7    S    
C1    O1    A    
O1    Zn1   S    
C29   C35   A    
C3    C46   A    
C12   O4    A    
O4    Zn1   S    
C32   C33   A    
C26   H5    S    
O8    Zn1   S    
C4    C42   A    
C8    C11   T    
C33   C35   A    
C39   H27   S    
C21   H1    S    
C10   C11   S    
N1    Zn1   S    
C7    C13   T    
C16   C18   A    
C27   C28   A    
C17   H29   S    
C2    N1    A    
O2    Zn2   S    
C31   H9    S    
C32   H10   S    
C5    O7    A    
C41   H24   S    
C38   H16   S    
