data_mof_unit_37041.cif
_audit_creation_date              2012-12-11T15:19:32-0500
_audit_creation_method            fapswitch 2.2
_symmetry_space_group_name_H-M    P1
_symmetry_Int_Tables_number       1
_space_group_crystal_system       triclinic
_cell_length_a                    20.224121
_cell_length_b                    6.876387
_cell_length_c                    18.005691
_cell_angle_alpha                 90.06509
_cell_angle_beta                  104.181997
_cell_angle_gamma                 89.912241
_cell_volume                      2427.71082081

loop_
_atom_site_label
_atom_site_type_symbol
_atom_type_description
_atom_site_fract_x
_atom_site_fract_y
_atom_site_fract_z
_atom_type_partial_charge
O1    O     O_R   0.312200 0.620210 0.189560 -0.542082
O2    O     O_R   0.687800 0.379790 0.810440 -0.536148
O3    O     O_R   0.187800 0.120210 0.310440 -0.544521
O4    O     O_R   0.812200 0.879790 0.689560 -0.536023
O5    O     O_R   0.171590 0.286140 0.165000 -0.547369
O6    O     O_R   0.828410 0.713860 0.835000 -0.536934
O7    O     O_R   0.328410 0.786140 0.335000 -0.548058
O8    O     O_R   0.671590 0.213860 0.665000 -0.537155
C1    C     C_R   0.145205 0.459508 0.144394 0.700018
C2    C     C_R   0.854716 0.540528 0.855721 0.703137
C3    C     C_R   0.354812 0.959430 0.355594 0.689090
C4    C     C_R   0.645275 0.040603 0.644290 0.702723
O9    O     O_R   0.310670 0.290220 0.180540 -0.543308
O10   O     O_R   0.689330 0.709780 0.819460 -0.534641
O11   O     O_R   0.189330 0.790220 0.319460 -0.539359
O12   O     O_R   0.810670 0.209780 0.680540 -0.534490
O13   O     O_R   0.327870 0.124170 0.326080 -0.526328
O14   O     O_R   0.672130 0.875830 0.673920 -0.538122
O15   O     O_R   0.172130 0.624170 0.173920 -0.523652
O16   O     O_R   0.827870 0.375830 0.826080 -0.538106
C5    C     C_R   0.329393 0.458959 0.162127 0.825734
C6    C     C_R   0.668565 0.541019 0.835329 0.802557
C7    C     C_R   0.170589 0.959341 0.337885 0.799589
C8    C     C_R   0.831379 0.040653 0.664615 0.802651
O17   O     O_3   0.255480 0.455050 0.297740 -0.369379
O18   O     O_3   0.744520 0.544950 0.702260 -0.366848
O19   O     O_3   0.244520 0.955050 0.202260 -0.366255
O20   O     O_3   0.755480 0.044950 0.797740 -0.366788
V1    V     V_3+5 0.248980 0.178550 0.241140 1.401660
V2    V     V_3+5 0.751020 0.821450 0.758860 1.426270
V3    V     V_3+5 0.251020 0.678550 0.258860 1.407500
V4    V     V_3+5 0.748980 0.321450 0.741140 1.425934
C9    C     C_R   0.948411 0.965655 0.650548 0.208993
C10   C     C_R   0.052163 0.993345 0.353785 0.217854
C11   C     C_R   0.551231 0.469219 0.848896 0.207284
C12   C     C_R   0.447477 0.493437 0.145694 0.202486
C13   C     C_R   0.881555 0.029091 0.616749 -0.158191
C14   C     C_R   0.121749 0.966396 0.387974 -0.182876
C15   C     C_R   0.618198 0.530693 0.882978 -0.157675
C16   C     C_R   0.378011 0.465180 0.111806 -0.159745
C17   C     C_R   0.862521 0.073701 0.537998 0.194731
C18   C     C_R   0.143841 0.932248 0.467941 0.184117
C19   C     C_R   0.637035 0.575668 0.961691 0.195411
C20   C     C_R   0.355379 0.434524 0.031750 0.195031
C21   C     C_R   0.908541 0.032618 0.491526 -0.009447
C22   C     C_R   0.095362 0.924972 0.514359 0.016781
C23   C     C_R   0.590751 0.536010 0.007903 -0.011169
C24   C     C_R   0.403449 0.432313 0.984477 -0.006856
C25   C     C_R   0.977869 0.989399 0.526284 -0.083319
C26   C     C_R   0.026205 0.974918 0.480355 -0.095164
C27   C     C_R   0.521290 0.494900 0.972888 -0.083077
C28   C     C_R   0.472798 0.480744 0.018668 -0.084552
C29   C     C_R   0.998427 0.959396 0.606503 -0.010039
C30   C     C_R   0.004733 0.010197 0.400158 -0.008251
C31   C     C_R   0.500913 0.465272 0.892642 -0.010040
C32   C     C_R   0.494504 0.513295 0.099079 -0.006198
C33   C     C_R   0.886851 0.029573 0.410623 0.036615
C34   C     C_R   0.113374 0.874386 0.594055 0.052559
C35   C     C_R   0.612351 0.532232 0.088786 0.035480
C36   C     C_R   0.385532 0.383394 0.904506 0.033548
C37   C     C_R   0.935439 0.054390 0.367557 0.259575
C38   C     C_R   0.067805 0.918683 0.640298 0.254643
C39   C     C_R   0.563730 0.557355 0.131758 0.260350
C40   C     C_R   0.431478 0.426632 0.858557 0.266713
C41   C     C_1   0.582857 0.027607 0.581930 -0.208397
C42   C     C_1   0.417202 0.972380 0.418003 -0.206305
C43   C     C_1   0.917112 0.527452 0.918099 -0.208434
C44   C     C_1   0.082768 0.472570 0.082049 -0.208248
C45   C     C_1   0.530756 0.010893 0.530320 -0.002028
C46   C     C_1   0.469304 0.988968 0.469622 -0.000309
C47   C     C_1   0.969203 0.510832 0.969731 -0.001723
C48   C     C_1   0.030652 0.489076 0.030443 0.000183
N1    N     N_2   0.962656 0.895779 0.727536 -0.511864
H1    H     H_    0.989069 0.766878 0.740197 0.256267
C49   C     C_3   0.969978 0.037770 0.788629 -0.457360
H2    H     H_    0.021755 0.027780 0.827477 0.196831
H3    H     H_    0.932066 0.006834 0.822368 0.189954
H4    H     H_    0.961906 0.188658 0.765982 0.176475
N2    N     N_2   0.029663 0.972460 0.272505 -0.526299
H5    H     H_    0.988196 0.883722 0.251678 0.252905
C50   C     C_3   0.037045 0.137326 0.225171 -0.437033
H6    H     H_    0.986364 0.185217 0.190713 0.189527
H7    H     H_    0.067727 0.092131 0.184873 0.193880
H8    H     H_    0.062119 0.262475 0.260068 0.189376
N3    N     N_2   0.537199 0.398882 0.771945 -0.512261
H9    H     H_    0.511218 0.269487 0.759239 0.255813
C51   C     C_3   0.530339 0.540173 0.710780 -0.456147
H10   H     H_    0.478767 0.530183 0.671507 0.196400
H11   H     H_    0.568598 0.508439 0.677519 0.189819
H12   H     H_    0.538236 0.691242 0.733328 0.176806
N4    N     N_2   0.470388 0.470493 0.226853 -0.528965
H13   H     H_    0.512119 0.381993 0.247020 0.253597
C52   C     C_3   0.462873 0.633761 0.275078 -0.438297
H14   H     H_    0.513502 0.680540 0.309970 0.189779
H15   H     H_    0.432012 0.587281 0.314955 0.193208
H16   H     H_    0.437926 0.760063 0.240832 0.190476
N5    N     N_2   0.802532 0.186979 0.508257 -0.521539
H17   H     H_    0.804341 0.287440 0.466345 0.253553
C53   C     C_3   0.736005 0.106647 0.506897 -0.532205
H18   H     H_    0.704304 0.097458 0.447317 0.174057
H19   H     H_    0.709534 0.206049 0.538432 0.208180
H20   H     H_    0.739547 0.959092 0.532572 0.177331
N6    N     N_2   0.215146 0.935917 0.502779 -0.547283
H21   H     H_    0.238001 0.067508 0.497541 0.245526
C54   C     C_3   0.255203 0.769631 0.490003 -0.520223
H22   H     H_    0.290101 0.724207 0.544762 0.181894
H23   H     H_    0.287625 0.810772 0.451709 0.186371
H24   H     H_    0.222784 0.644571 0.464556 0.203032
N7    N     N_2   0.697127 0.687987 0.991652 -0.521477
H25   H     H_    0.695321 0.788653 0.033580 0.253595
C55   C     C_3   0.763617 0.606620 0.993126 -0.532513
H26   H     H_    0.795261 0.597573 0.052735 0.173991
H27   H     H_    0.790192 0.705260 0.961579 0.208002
H28   H     H_    0.759999 0.458851 0.967528 0.177525
N8    N     N_2   0.283609 0.433847 0.999369 -0.550033
H29   H     H_    0.263195 0.527249 0.955068 0.249905
C56   C     C_3   0.243879 0.265708 0.010239 -0.506745
H30   H     H_    0.215918 0.205449 0.954350 0.172694
H31   H     H_    0.205100 0.311308 0.040209 0.195094
H32   H     H_    0.276232 0.149489 0.043530 0.203585
C57   C     C_3   0.816557 0.954600 0.369532 -0.340336
C58   C     C_3   0.803703 0.752366 0.399839 -0.283098
C59   C     C_3   0.736098 0.667990 0.355359 -0.825643
H33   H     H_    0.693367 0.760780 0.363182 0.240662
H34   H     H_    0.735375 0.658552 0.293671 0.230419
H35   H     H_    0.729405 0.519626 0.376596 0.214952
H36   H     H_    0.845438 0.652099 0.394458 0.183191
H37   H     H_    0.803170 0.759015 0.461201 0.209635
H38   H     H_    0.776009 0.059124 0.372592 0.182491
H39   H     H_    0.812474 0.936293 0.307519 0.162178
C60   C     C_3   0.172736 0.738134 0.628131 -0.324611
C61   C     C_3   0.157252 0.532943 0.594248 -0.287968
C62   C     C_3   0.215739 0.391729 0.624839 -0.812574
H40   H     H_    0.261538 0.433947 0.605211 0.230594
H41   H     H_    0.228398 0.388637 0.688334 0.224105
H42   H     H_    0.200290 0.243323 0.603366 0.238881
H43   H     H_    0.110772 0.476727 0.609541 0.184692
H44   H     H_    0.146394 0.536349 0.530833 0.203026
H45   H     H_    0.222097 0.795677 0.623213 0.212866
H46   H     H_    0.181463 0.722468 0.690797 0.155497
C63   C     C_3   0.682536 0.456073 0.129914 -0.340028
C64   C     C_3   0.695258 0.253587 0.099477 -0.283079
C65   C     C_3   0.762814 0.168447 0.143941 -0.825171
H47   H     H_    0.805599 0.260804 0.136276 0.240601
H48   H     H_    0.763491 0.158862 0.205611 0.230357
H49   H     H_    0.769490 0.020066 0.122549 0.214890
H50   H     H_    0.653452 0.153898 0.104780 0.183123
H51   H     H_    0.695810 0.260043 0.038125 0.209612
H52   H     H_    0.723227 0.559944 0.127097 0.182668
H53   H     H_    0.686493 0.437656 0.191877 0.161957
C66   C     C_3   0.326672 0.246511 0.869844 -0.339802
C67   C     C_3   0.342818 0.041277 0.902945 -0.270725
C68   C     C_3   0.287131 0.896543 0.867220 -0.824283
H54   H     H_    0.239914 0.926287 0.886151 0.231701
H55   H     H_    0.275938 0.902853 0.803806 0.226255
H56   H     H_    0.305071 0.748003 0.885424 0.224227
H57   H     H_    0.391549 0.990850 0.891156 0.184953
H58   H     H_    0.349626 0.041880 0.965988 0.206184
H59   H     H_    0.276942 0.300960 0.874568 0.186667
H60   H     H_    0.318093 0.232805 0.807134 0.164687
N9    N     N_2   0.915810 0.145311 0.294474 -0.511145
H61   H     H_    0.885227 0.063666 0.251659 0.247886
C69   C     C_3   0.895485 0.346892 0.295835 -0.568188
H62   H     H_    0.890975 0.412784 0.238592 0.192754
H63   H     H_    0.934474 0.430113 0.338162 0.205029
H64   H     H_    0.845423 0.357825 0.310655 0.193782
N10   N     N_2   0.092748 0.937010 0.721167 -0.510988
H65   H     H_    0.108967 0.811241 0.751196 0.242635
C70   C     C_3   0.134428 0.106385 0.746420 -0.563167
H66   H     H_    0.144381 0.119948 0.809595 0.189537
H67   H     H_    0.107510 0.239984 0.720379 0.210590
H68   H     H_    0.183765 0.092898 0.730370 0.195408
N11   N     N_2   0.583247 0.648084 0.204941 -0.510119
H69   H     H_    0.613823 0.566259 0.247701 0.248008
C71   C     C_3   0.603514 0.849579 0.203833 -0.568016
H70   H     H_    0.607985 0.915267 0.261157 0.192861
H71   H     H_    0.564513 0.933082 0.161591 0.205068
H72   H     H_    0.653586 0.860347 0.189053 0.193715
N12   N     N_2   0.407264 0.441157 0.777469 -0.510961
H73   H     H_    0.392375 0.313645 0.748056 0.244191
C72   C     C_3   0.364843 0.608101 0.750246 -0.567826
H74   H     H_    0.356655 0.620070 0.687212 0.191347
H75   H     H_    0.390218 0.743393 0.776571 0.213780
H76   H     H_    0.314682 0.592261 0.764135 0.193251

loop_
_geom_bond_atom_site_label_1
_geom_bond_atom_site_label_2
_ccdc_geom_bond_type
C34   C38   A    
C65   H49   S    
C51   H10   S    
O1    C5    A    
C52   H14   S    
O19   V1    S    
O13   V1    S    
C70   H66   S    
O3    C7    A    
C69   H62   S    
C57   H39   S    
O15   V3    S    
C18   N6    S    
C50   H6    S    
C63   H52   S    
C59   H33   S    
N10   C70   S    
N11   H69   S    
O7    C3    A    
C54   H23   S    
C21   C33   A    
C26   C30   A    
C13   C17   A    
C37   N9    S    
O9    V1    S    
C69   H63   S    
C14   C18   A    
C56   H31   S    
C18   C22   A    
O4    C8    A    
C25   C29   A    
C59   H34   S    
C61   H44   S    
N8    H29   S    
N5    H17   S    
O1    V3    S    
O2    V4    S    
N1    H1    S    
C58   H36   S    
O3    V1    S    
C60   H46   S    
C50   H7    S    
C28   C32   A    
C1    O15   A    
C55   H27   S    
C55   H26   S    
C20   N8    S    
C2    O16   A    
C61   C62   S    
N8    C56   S    
O2    C6    A    
C62   H42   S    
C66   C67   S    
C39   N11   S    
O14   V2    S    
C21   C25   A    
C68   H55   S    
N7    H25   S    
C16   C20   A    
C27   C31   A    
C3    C42   S    
C44   C48   T    
O11   C7    A    
C38   N10   S    
O12   C8    A    
C22   C34   A    
O17   V1    S    
C70   H67   S    
O10   V2    S    
N9    C69   S    
C63   H53   S    
C24   C36   A    
C71   H72   S    
O5    V1    S    
N3    C51   S    
C9    C29   A    
C54   H24   S    
C67   H58   S    
C23   C35   A    
O7    V3    S    
C11   C31   A    
C27   C28   A    
O8    V4    S    
C64   H51   S    
O20   V4    S    
C69   H64   S    
C71   H71   S    
N5    C53   S    
C72   H75   S    
N4    H13   S    
N2    C50   S    
C40   N12   S    
O18   V4    S    
C59   H35   S    
C15   C19   A    
C61   H43   S    
C72   H74   S    
O19   V3    S    
C9    C13   A    
N12   H73   S    
C36   C66   S    
C66   H59   S    
C11   C15   A    
C49   H2    S    
O5    C1    A    
C12   C32   A    
C10   N2    S    
N4    C52   S    
C29   C38   A    
C4    C41   S    
C71   H70   S    
C12   C16   A    
C34   C60   S    
O8    C4    A    
C31   C40   A    
C8    C13   S    
C32   C39   A    
O9    C5    A    
N6    C54   S    
C68   H56   S    
C33   C37   A    
C49   H3    S    
C57   C58   S    
N11   C71   S    
C12   N4    S    
C9    N1    S    
C53   H19   S    
C10   C30   A    
C52   H16   S    
C51   H11   S    
C62   H40   S    
C70   H68   S    
C17   N5    S    
C56   H32   S    
N1    C49   S    
C60   C61   S    
N10   H65   S    
C50   H8    S    
O17   V3    S    
O16   V4    S    
C72   H76   S    
C65   H48   S    
C67   H57   S    
C3    O13   A    
O6    V2    S    
C10   C14   A    
C64   H50   S    
C57   H38   S    
N3    H9    S    
O6    C2    A    
C23   C27   A    
O11   V3    S    
C30   C37   A    
O12   V4    S    
C7    C14   S    
C54   H22   S    
C22   C26   A    
C35   C39   A    
C53   H18   S    
C36   C40   A    
C66   H60   S    
O10   C6    A    
N7    C55   S    
C68   H54   S    
C1    C44   S    
C47   C48   S    
C2    C43   S    
C63   C64   S    
C11   N3    S    
C42   C46   T    
C5    C16   S    
N9    H61   S    
C41   C45   T    
C6    C15   S    
O20   V2    S    
C55   H28   S    
C43   C47   T    
C58   H37   S    
C45   C46   S    
C49   H4    S    
C60   H45   S    
C33   C57   S    
N2    H5    S    
C20   C24   A    
C24   C28   A    
C53   H20   S    
C67   C68   S    
C35   C63   S    
C52   H15   S    
C25   C26   A    
C51   H12   S    
C4    O14   A    
N6    H21   S    
C62   H41   S    
C17   C21   A    
C64   C65   S    
C19   N7    S    
C58   C59   S    
C56   H30   S    
C19   C23   A    
O4    V2    S    
C65   H47   S    
N12   C72   S    
O18   V2    S    
