data_mof_unit_17231.cif
_audit_creation_date              2012-12-10T18:14:41-0500
_audit_creation_method            fapswitch 2.2
_symmetry_space_group_name_H-M    P1
_symmetry_Int_Tables_number       1
_space_group_crystal_system       triclinic
_cell_length_a                    10.728402
_cell_length_b                    9.405863
_cell_length_c                    27.812306
_cell_angle_alpha                 89.874552
_cell_angle_beta                  90.129978
_cell_angle_gamma                 90.013994
_cell_volume                      2806.52241591

loop_
_atom_site_label
_atom_site_type_symbol
_atom_type_description
_atom_site_fract_x
_atom_site_fract_y
_atom_site_fract_z
_atom_type_partial_charge
C1    C     C_R   0.259665 0.499798 0.500322 0.812595
C2    C     C_R   0.472199 0.630031 0.279373 0.682344
C3    C     C_R   0.492959 0.504201 0.253622 0.225456
C4    C     C_R   0.492536 0.508651 0.101743 -0.049614
C5    C     C_R   0.400274 0.433312 0.127052 -0.102320
C6    C     C_R   0.306528 0.362959 0.101618 -0.197493
C7    C     C_R   0.583928 0.584183 0.127637 -0.014210
C8    C     C_R   0.497138 0.501191 0.354564 -0.126976
C9    C     C_R   0.502443 0.499265 0.645360 -0.033373
C10   C     C_R   0.418451 0.410975 0.974394 0.042503
C11   C     C_R   0.580337 0.597145 0.974754 0.042421
C12   C     C_R   0.499306 0.500206 0.407472 0.830398
C13   C     C_R   0.500881 0.502905 0.949336 0.063843
C14   C     C_R   0.355722 0.304766 0.947818 -0.175462
C15   C     C_R   0.359927 0.301993 0.897912 -0.179466
C16   C     C_R   0.431407 0.401226 0.872679 -0.011933
C17   C     C_R   0.504516 0.499678 0.898291 -0.049985
C18   C     C_R   0.581467 0.594546 0.872790 -0.021692
C19   C     C_R   0.582222 0.590893 0.822316 0.539740
C20   C     C_R   0.433236 0.402639 0.822222 0.539126
C21   C     C_R   0.471273 0.620981 0.721214 -0.087613
C22   C     C_R   0.469956 0.622054 0.671081 -0.216048
C23   C     C_R   0.740107 0.499758 0.500511 0.863236
C24   C     C_R   0.537481 0.375943 0.670553 -0.177365
C25   C     C_R   0.540547 0.375717 0.720671 -0.087430
C26   C     C_R   0.506847 0.497962 0.746317 0.338141
C27   C     C_R   0.405199 0.424931 0.025088 -0.077648
C28   C     C_R   0.493682 0.508329 0.050681 0.020891
C29   C     C_R   0.583169 0.591947 0.025762 0.073343
C30   C     C_R   0.305193 0.362213 0.051479 0.409735
C31   C     C_R   0.674149 0.661899 0.102791 -0.138983
C32   C     C_R   0.655026 0.692783 0.948052 -0.216271
C33   C     C_R   0.655433 0.691247 0.898089 -0.144095
C34   C     C_R   0.500411 0.499832 0.592520 0.848587
C35   C     C_R   0.673318 0.666900 0.052904 -0.222861
C36   C     C_3   0.072622 0.582540 0.544819 -0.415795
C37   C     C_3   0.071707 0.344252 0.503614 -0.406290
C38   C     C_3   0.928622 0.586346 0.544262 0.526009
C39   C     C_3   0.928979 0.343726 0.504335 0.509961
C40   C     C_3   0.071241 0.569063 0.454094 -0.404722
C41   C     C_3   0.121786 0.499035 0.500708 0.003230
C42   C     C_3   0.878100 0.498774 0.501043 -0.045892
C43   C     C_3   0.927417 0.566771 0.453907 -0.611104
C44   C     C_3   0.615549 0.083670 0.523069 -0.151428
C45   C     C_3   0.615488 0.916063 0.523138 -0.192497
C46   C     C_3   0.393668 0.083627 0.528720 -0.193952
C47   C     C_3   0.393603 0.915948 0.528692 -0.187340
C48   C     C_3   0.491483 0.083885 0.451677 -0.193259
C49   C     C_3   0.491526 0.916654 0.451677 -0.183999
C50   C     C_R   0.401640 0.433732 0.177565 0.591233
C51   C     C_R   0.583292 0.579795 0.178078 0.610446
C52   C     C_R   0.514889 0.376857 0.278496 -0.180207
C53   C     C_R   0.516512 0.375111 0.328640 -0.220815
C54   C     C_R   0.474918 0.628603 0.329488 -0.303516
Cu1   Cu    Cu3+1 0.499860 0.642410 0.500020 0.909537
Cu2   Cu    Cu3+1 0.499860 0.357590 0.500020 0.924483
H1    H     H_    0.458656 0.727051 0.348601 0.170671
H2    H     H_    0.531272 0.279320 0.258888 0.184402
H3    H     H_    0.746029 0.720041 0.121848 0.188293
H4    H     H_    0.712480 0.772759 0.964705 0.144688
H5    H     H_    0.563802 0.280192 0.651538 0.159042
H6    H     H_    0.714273 0.766707 0.879342 0.188002
H7    H     H_    0.569080 0.280412 0.739627 0.154822
H8    H     H_    0.747544 0.727102 0.036619 0.138143
H9    H     H_    0.108974 0.693394 0.544351 0.131060
H10   H     H_    0.104573 0.281871 0.472095 0.128225
H11   H     H_    0.106607 0.531720 0.578570 0.206059
H12   H     H_    0.108169 0.290863 0.536545 0.207248
H13   H     H_    0.897487 0.698838 0.540867 0.066220
H14   H     H_    0.894725 0.280762 0.473113 0.049904
H15   H     H_    0.104346 0.680984 0.451452 0.189840
H16   H     H_    0.106827 0.511353 0.422034 0.185813
H17   H     H_    0.891799 0.677373 0.450019 0.200888
H18   H     H_    0.893451 0.505375 0.422307 0.193999
H19   H     H_    0.626355 0.123608 0.560465 0.175986
H20   H     H_    0.625879 0.876010 0.560595 0.161778
H21   H     H_    0.698654 0.120483 0.502808 0.173792
H22   H     H_    0.698835 0.879081 0.503081 0.144237
H23   H     H_    0.396474 0.122904 0.566391 0.148323
H24   H     H_    0.396272 0.876128 0.566355 0.143335
H25   H     H_    0.405132 0.123046 0.433803 0.151073
H26   H     H_    0.405184 0.877623 0.433810 0.144660
H27   H     H_    0.571232 0.122304 0.429689 0.140213
H28   H     H_    0.571262 0.878476 0.429696 0.148139
H29   H     H_    0.304096 0.121119 0.513112 0.146933
H30   H     H_    0.304019 0.878646 0.513054 0.145023
H31   H     H_    0.231188 0.310309 0.120483 0.207229
H32   H     H_    0.442111 0.718283 0.652487 0.148057
H33   H     H_    0.444140 0.715704 0.740615 0.152382
H34   H     H_    0.307822 0.220313 0.879200 0.190078
H35   H     H_    0.306565 0.218389 0.964770 0.206289
H36   H     H_    0.533910 0.275472 0.347048 0.165658
N1    N     N_R   0.492696 0.505729 0.201982 -0.448530
N2    N     N_R   0.507660 0.496951 0.798031 -0.466676
N3    N     N_3   0.500250 0.143650 0.501060 -0.134912
N4    N     N_3   0.500250 0.856350 0.501060 -0.124168
O1    O     O_R   0.317570 0.620260 0.500030 -0.598659
O2    O     O_R   0.317570 0.379740 0.500030 -0.599326
O3    O     O_R   0.499900 0.620250 0.430280 -0.596688
O4    O     O_R   0.499900 0.379750 0.430280 -0.600519
O5    O     O_R   0.682190 0.620260 0.500010 -0.608132
O6    O     O_R   0.682190 0.379740 0.500010 -0.565189
O7    O     O_R   0.499860 0.620280 0.569750 -0.589146
O8    O     O_R   0.499860 0.379720 0.569750 -0.587125
O9    O     O_2   0.312175 0.363684 0.202100 -0.525735
O10   O     O_2   0.359800 0.311798 0.797540 -0.539207
O11   O     O_2   0.673002 0.648205 0.203069 -0.515741
O12   O     O_2   0.657636 0.679792 0.797712 -0.531196
F1    F     F_    0.882429 0.533968 0.587337 -0.614486
F2    F     F_    0.887749 0.277175 0.545960 -0.632836
F3    F     F_    0.448582 0.753670 0.255825 -0.643456
O13   O     O_3   0.202224 0.302862 0.029372 -0.626764
C55   C     C_3   0.115950 0.411807 0.018614 0.045867
H37   H     H_    0.159600 0.496909 0.996293 0.151340
H38   H     H_    0.079381 0.459223 0.052459 0.155233
C56   C     C_3   0.007403 0.347950 0.990270 -0.316208
H39   H     H_    0.043054 0.301230 0.956289 0.225907
H40   H     H_    0.963495 0.261790 0.011792 0.230829
C57   C     C_3   0.909162 0.459856 0.978305 -0.895632
H41   H     H_    0.871394 0.506151 0.011897 0.258437
H42   H     H_    0.831386 0.410002 0.958015 0.267317
H43   H     H_    0.950100 0.545874 0.955923 0.259296

loop_
_geom_bond_atom_site_label_1
_geom_bond_atom_site_label_2
_ccdc_geom_bond_type
C10   C27   A    
C43   H17   S    
Cu2   N3    S    
C21   C26   A    
C26   N2    S    
C24   H5    S    
C46   H23   S    
C48   N3    S    
Cu2   O2    S    
Cu1   Cu2   S    
C36   H11   S    
C21   H33   S    
C56   H39   S    
C23   C42   S    
C45   H20   S    
C49   H28   S    
C28   C29   A    
C40   H15   S    
Cu1   O5    S    
C38   C42   S    
C5    C6    A    
C3    C52   A    
C9    C22   A    
C23   O6    A    
C15   C16   A    
C37   H12   S    
Cu1   O7    S    
C48   H25   S    
C18   C19   A    
C25   H7    S    
C31   H3    S    
C12   O3    A    
C39   F2    S    
C46   N3    S    
C33   H6    S    
C50   O9    S    
C47   N4    S    
C35   H8    S    
C22   H32   S    
C8    C12   S    
C46   H29   S    
C19   O12   S    
C43   H18   S    
C38   H13   S    
C21   C22   A    
C27   C30   A    
C36   C41   S    
C47   H24   S    
C4    C7    A    
O13   C55   S    
C4    C28   A    
C39   C42   S    
C20   O10   S    
C57   H42   S    
C2    F3    S    
C7    C31   A    
C47   H30   S    
C24   C25   A    
Cu2   O8    S    
C10   C14   A    
C1    O1    A    
C36   H9    S    
C16   C17   A    
C25   C26   A    
C9    C24   A    
C34   O8    A    
C6    H31   S    
C30   O13   S    
C49   H26   S    
C8    C53   A    
C44   H19   S    
C16   C20   A    
C37   H10   S    
Cu1   O1    S    
C53   H36   S    
C17   C18   A    
C3    N1    S    
C38   F1    S    
C45   H22   S    
C19   N2    A    
C52   H2    S    
C51   N1    A    
C1    C41   S    
C40   C41   S    
C6    C30   A    
C11   C32   A    
C2    C54   A    
C9    C34   S    
C31   C35   A    
C5    C50   A    
C42   C43   S    
Cu2   O4    S    
C8    C54   A    
C52   C53   A    
C55   H37   S    
C57   H43   S    
C20   N2    A    
C46   C47   S    
C48   C49   S    
C40   H16   S    
C44   C45   S    
Cu1   N4    S    
C10   C13   A    
C1    O2    A    
C57   H41   S    
C56   C57   S    
C50   N1    A    
C44   H21   S    
C29   C35   A    
C34   O7    A    
C48   H27   S    
C13   C17   A    
C40   C43   S    
C55   C56   S    
C36   C38   S    
C2    C3    A    
C7    C51   A    
C37   C39   S    
C44   N3    S    
C32   C33   A    
C15   H34   S    
C11   C13   A    
C23   O5    A    
C39   H14   S    
C56   H40   S    
C49   N4    S    
C37   C41   S    
C18   C33   A    
C14   H35   S    
C12   O4    A    
Cu2   O6    S    
C4    C5    A    
C11   C29   A    
C51   O11   S    
Cu1   O3    S    
C27   C28   A    
C32   H4    S    
C14   C15   A    
C45   N4    S    
C55   H38   S    
C54   H1    S    
