data_mof_unit_20987.cif
_audit_creation_date              2012-10-26T19:59:14-0400
_audit_creation_method            fapswitch 2.2
_symmetry_space_group_name_H-M    P1
_symmetry_Int_Tables_number       1
_space_group_crystal_system       triclinic
_cell_length_a                    7.472239
_cell_length_b                    8.61695
_cell_length_c                    15.815777
_cell_angle_alpha                 94.224058
_cell_angle_beta                  75.209505
_cell_angle_gamma                 103.117008
_cell_volume                      958.779439112

loop_
_atom_site_label
_atom_site_type_symbol
_atom_type_description
_atom_site_fract_x
_atom_site_fract_y
_atom_site_fract_z
_atom_type_partial_charge
C1    C     C_R   0.551213 0.800593 0.494215 0.545467
C2    C     C_R   0.615370 0.510232 0.333832 0.588132
C3    C     C_R   0.314763 0.464573 0.760802 -0.004060
C4    C     C_R   0.684834 0.521424 0.238410 0.024295
C5    C     C_R   0.080380 0.336779 0.885088 -0.132330
C6    C     C_R   0.930882 0.613791 0.109539 -0.126668
C7    C     C_R   0.131352 0.379413 0.797513 -0.141361
C8    C     C_R   0.875160 0.584926 0.198941 -0.123277
C9    C     C_R   0.443470 0.512682 0.813163 -0.130501
C10   C     C_R   0.553743 0.477300 0.186881 -0.094758
C11   C     C_R   0.398556 0.466058 0.900774 0.028076
C12   C     C_R   0.461679 0.199897 0.488268 0.549636
C13   C     C_R   0.607153 0.500697 0.096102 0.031898
C14   C     C_R   0.212575 0.377881 0.936581 0.040059
C15   C     C_R   0.797981 0.575388 0.058365 0.044870
C16   C     C_R   0.533317 0.502170 0.953107 0.031365
C17   C     C_R   0.475220 0.457442 0.042615 0.028107
C18   C     C_R   0.288466 0.368351 0.075195 -0.133933
C19   C     C_R   0.725176 0.578026 0.918531 -0.137789
C20   C     C_R   0.160657 0.329309 0.022975 -0.129509
C21   C     C_R   0.854308 0.612735 0.970188 -0.127468
C22   C     C_2   0.594305 0.967797 0.471013 0.152287
C23   C     C_2   0.454208 0.032821 0.462700 0.176167
C24   C     C_R   0.384415 0.487589 0.666073 0.523331
Cu1   Cu    Cu3+1 0.322120 0.483240 0.490330 1.074218
Cu2   Cu    Cu3+1 0.677880 0.516760 0.509670 1.049188
H1    H     H_    0.019389 0.260471 0.050689 0.135907
H2    H     H_    0.783110 0.609301 0.850915 0.106161
H3    H     H_    0.998089 0.606585 0.573230 0.246585
H4    H     H_    0.005194 0.399169 0.424800 0.294054
H5    H     H_    0.833094 0.894467 0.288135 0.357717
H6    H     H_    0.112525 0.741830 0.384197 0.373924
H7    H     H_    0.999994 0.669826 0.940676 0.122336
H8    H     H_    0.408554 0.430740 0.220019 0.143468
H9    H     H_    0.579264 0.584927 0.782869 0.118622
H10   H     H_    0.978979 0.618565 0.237575 0.158214
H11   H     H_    0.029955 0.341012 0.757941 0.137634
H12   H     H_    0.938264 0.269157 0.912292 0.124486
H13   H     H_    0.077636 0.668384 0.080509 0.132470
H14   H     H_    0.236931 0.322241 0.140426 0.142183
N1    N     N_2   0.945180 0.542040 0.524240 -0.253069
N2    N     N_2   0.054820 0.457960 0.475760 -0.235302
O1    O     O_R   0.384450 0.714270 0.493720 -0.495825
O2    O     O_2   0.955298 0.097123 0.463670 -0.203816
O3    O     O_3   0.894743 0.897368 0.336867 -0.473822
O4    O     O_2   0.295734 0.083707 0.334271 -0.200038
O5    O     O_2   0.454279 0.859992 0.313852 -0.335225
O6    O     O_3   0.129838 0.830006 0.427218 -0.437419
O7    O     O_R   0.615550 0.285730 0.506280 -0.489982
O8    O     O_R   0.684880 0.742590 0.510050 -0.447564
O9    O     O_R   0.315120 0.257410 0.489950 -0.431014
O10   O     O_R   0.265540 0.477900 0.617090 -0.522568
O11   O     O_R   0.734460 0.522100 0.382910 -0.495677
O12   O     O_R   0.565970 0.506210 0.633420 -0.517892
O13   O     O_R   0.434030 0.493790 0.366580 -0.489311
O14   O     O_2   0.825170 0.179490 0.350616 -0.325885
S1    S     S_3+6 0.823346 0.042710 0.404905 0.074558
S2    S     S_3+6 0.334577 0.952877 0.380188 0.080645

loop_
_geom_bond_atom_site_label_1
_geom_bond_atom_site_label_2
_ccdc_geom_bond_type
Cu1   N2    S    
C24   O10   A    
C23   S2    S    
C2    C4    S    
Cu1   O9    S    
O6    S2    S    
C3    C9    A    
C20   H1    S    
C9    C11   A    
N1    N2    D    
C18   C20   A    
C13   C17   A    
O2    S1    D    
C4    C8    A    
Cu1   O1    S    
C22   S1    S    
Cu2   O8    S    
C17   C18   A    
C7    H11   S    
Cu1   O10   S    
C1    C22   S    
C10   H8    S    
Cu1   Cu2   S    
C10   C13   A    
C5    H12   S    
O4    S2    D    
O5    S2    D    
C19   H2    S    
H6    O6    S    
C12   C23   S    
O3    S1    S    
C5    C14   A    
C16   C19   A    
Cu2   O12   S    
H5    O3    S    
C19   C21   A    
C12   O7    A    
C3    C7    A    
C2    O13   A    
C13   C15   A    
C8    H10   S    
C11   C14   A    
C11   C16   A    
C21   H7    S    
C4    C10   A    
Cu2   O11   S    
C14   C20   A    
C15   C21   A    
C12   O9    A    
O14   S1    D    
C5    C7    A    
C1    O8    A    
Cu2   O7    S    
C9    H9    S    
C18   H14   S    
C22   C23   D    
H4    N2    S    
C6    C8    A    
H3    N1    S    
C6    C15   A    
C6    H13   S    
C24   O12   A    
C1    O1    A    
Cu1   O13   S    
Cu2   N1    S    
C3    C24   S    
C16   C17   A    
C2    O11   A    
