data_mof_unit_63295.cif
_audit_creation_date              2012-12-10T19:02:39-0500
_audit_creation_method            fapswitch 2.2
_symmetry_space_group_name_H-M    P1
_symmetry_Int_Tables_number       1
_space_group_crystal_system       triclinic
_cell_length_a                    19.338184
_cell_length_b                    14.259098
_cell_length_c                    13.367732
_cell_angle_alpha                 90.000091
_cell_angle_beta                  90.000045
_cell_angle_gamma                 90.000097
_cell_volume                      3686.08607306

loop_
_atom_site_label
_atom_site_type_symbol
_atom_type_description
_atom_site_fract_x
_atom_site_fract_y
_atom_site_fract_z
_atom_type_partial_charge
C1    C     C_1   0.500000 0.500000 0.049524 -0.019484
C2    C     C_R   0.500000 0.673458 0.500000 0.931559
C3    C     C_R   0.363687 0.499999 0.500000 0.980130
C4    C     C_R   0.636313 0.499999 0.500000 0.980130
C5    C     C_1   0.500000 0.225897 0.500000 -0.202909
C6    C     C_1   0.500000 0.774103 0.500000 -0.202907
C7    C     C_1   0.500000 0.141333 0.500000 0.014675
C8    C     C_1   0.500000 0.858666 0.500000 0.014679
C9    C     C_1   0.500000 0.042279 0.500000 0.031760
C10   C     C_1   0.500000 0.957721 0.500000 0.031761
C11   C     C_R   0.252821 0.500144 0.590812 -0.267029
C12   C     C_1   0.500000 0.500000 0.950475 -0.019483
C13   C     C_R   0.747186 0.499978 0.409203 -0.267029
C14   C     C_R   0.747179 0.500145 0.590812 -0.267027
C15   C     C_R   0.252814 0.499979 0.409203 -0.267028
C16   C     C_R   0.181154 0.500159 0.591105 0.627174
C17   C     C_R   0.818854 0.500063 0.408923 0.627184
C18   C     C_R   0.818846 0.500160 0.591105 0.627174
C19   C     C_R   0.181146 0.500065 0.408923 0.627185
C20   C     C_R   0.144855 0.500135 0.500018 -0.219312
C21   C     C_R   0.855145 0.500135 0.500018 -0.219312
C22   C     C_R   0.288759 0.500035 0.500004 -0.249677
C23   C     C_R   0.711241 0.500035 0.500004 -0.249677
C24   C     C_R   0.930355 0.500158 0.500028 0.361790
C25   C     C_R   0.069645 0.500158 0.500028 0.361789
C26   C     C_1   0.500000 0.500000 0.169418 0.099286
C27   C     C_1   0.500000 0.500000 0.830581 0.099286
C28   C     C_R   0.500000 0.326542 0.500000 0.931540
F1    F     F_    0.147588 0.502435 0.680300 -0.609812
F2    F     F_    0.852429 0.497830 0.319736 -0.609808
F3    F     F_    0.852412 0.502437 0.680300 -0.609812
F4    F     F_    0.147571 0.497832 0.319735 -0.609808
H1    H     H_    0.280165 0.500574 0.661555 0.203342
H2    H     H_    0.719847 0.499514 0.338455 0.203339
H3    H     H_    0.719834 0.500575 0.661555 0.203342
H4    H     H_    0.280153 0.499515 0.338455 0.203338
N1    N     N_1   0.500000 0.500000 0.261870 -0.063480
N2    N     N_1   0.500000 0.500000 0.738130 -0.063481
N3    N     N_R   0.034286 0.542214 0.424951 -0.071608
N4    N     N_R   0.965715 0.458105 0.575105 -0.071621
N5    N     N_R   0.965714 0.542214 0.424952 -0.071608
N6    N     N_R   0.034285 0.458105 0.575105 -0.071620
O1    O     O_R   0.500000 0.373710 0.576470 -0.596016
O2    O     O_R   0.500000 0.626290 0.423530 -0.596012
O3    O     O_R   0.500000 0.626290 0.576470 -0.595986
O4    O     O_R   0.500000 0.373710 0.423530 -0.595991
O5    O     O_R   0.398140 0.500000 0.576480 -0.613615
O6    O     O_R   0.601860 0.500000 0.423520 -0.613611
O7    O     O_R   0.601860 0.500000 0.576480 -0.613615
O8    O     O_R   0.398140 0.500000 0.423520 -0.613611
Zn1   Zn    Zn3+2 0.500000 0.500000 0.602090 0.990761
Zn2   Zn    Zn3+2 0.500000 0.500000 0.397910 0.990763

loop_
_geom_bond_atom_site_label_1
_geom_bond_atom_site_label_2
_ccdc_geom_bond_type
C25   N6    A    
C14   C23   A    
O8    Zn2   S    
C26   N1    T    
C17   F2    S    
C11   H1    S    
C5    C28   S    
C9    C10   T    
C14   C18   A    
C11   C22   A    
C19   C20   A    
C13   C17   A    
C4    O7    A    
C16   C20   A    
O1    Zn1   S    
N1    Zn2   S    
O2    Zn2   S    
N4    N6    A    
C13   H2    S    
N3    N5    A    
C25   N3    A    
C15   C19   A    
C24   N5    A    
C28   O4    A    
C2    C6    S    
C1    C12   T    
C28   O1    A    
C19   F4    S    
C3    O5    A    
C24   N4    A    
C3    O8    A    
C5    C7    T    
N2    Zn1   S    
C2    O3    A    
C1    C26   S    
C17   C21   A    
C11   C16   A    
C20   C25   S    
O3    Zn1   S    
C27   N2    T    
C18   C21   A    
O4    Zn2   S    
C15   H4    S    
O6    Zn2   S    
C13   C23   A    
C8    C10   S    
C4    O6    A    
C21   C24   S    
C14   H3    S    
C7    C9    S    
C4    C23   S    
C3    C22   S    
C6    C8    T    
C18   F3    S    
C12   C27   S    
C16   F1    S    
C15   C22   A    
O5    Zn1   S    
C2    O2    A    
O7    Zn1   S    
