data_mof_unit_25044.cif
_audit_creation_date              2012-12-10T16:47:51-0500
_audit_creation_method            fapswitch 2.2
_symmetry_space_group_name_H-M    P1
_symmetry_Int_Tables_number       1
_space_group_crystal_system       triclinic
_cell_length_a                    7.841748
_cell_length_b                    8.573532
_cell_length_c                    10.625698
_cell_angle_alpha                 91.992202
_cell_angle_beta                  84.347731
_cell_angle_gamma                 93.716781
_cell_volume                      709.123015878

loop_
_atom_site_label
_atom_site_type_symbol
_atom_type_description
_atom_site_fract_x
_atom_site_fract_y
_atom_site_fract_z
_atom_type_partial_charge
C1    C     C_R   0.545571 0.794502 0.496839 0.949198
C2    C     C_2   0.569403 0.958115 0.494600 -0.379955
C3    C     C_3   0.962631 0.307351 0.291693 0.178909
C4    C     C_3   0.080037 0.198892 0.211525 -0.371397
C5    C     C_3   0.025196 0.172731 0.078156 -1.002446
C6    C     C_3   0.050025 0.726207 0.691929 0.151856
C7    C     C_3   0.981913 0.634437 0.809026 -0.359273
C8    C     C_3   0.061380 0.699599 0.926912 -0.984119
C9    C     C_2   0.430566 0.041853 0.504459 -0.389010
C10   C     C_R   0.497038 0.488096 0.736811 0.902872
C11   C     C_R   0.454421 0.205475 0.502764 0.938744
C12   C     C_R   0.500152 0.498655 0.262432 0.893091
C13   C     C_2   0.608958 0.405645 0.058413 -0.164212
C14   C     C_2   0.501434 0.495545 0.129214 -0.320058
C15   C     C_2   0.616405 0.405946 0.921862 -0.165544
C16   C     C_2   0.483680 0.452328 0.867161 -0.343452
H1    H     H_    0.698738 0.337351 0.100953 0.156590
H2    H     H_    0.077566 0.084343 0.257834 0.228033
H3    H     H_    0.894512 0.113770 0.081738 0.263806
H4    H     H_    0.116322 0.097409 0.022031 0.275801
H5    H     H_    0.026198 0.285976 0.030188 0.265138
H6    H     H_    0.015957 0.849489 0.708774 0.127784
H7    H     H_    0.190355 0.730961 0.679256 0.186916
H8    H     H_    0.840996 0.643489 0.824800 0.239991
H9    H     H_    0.010662 0.509609 0.793797 0.223315
H10   H     H_    0.203555 0.700243 0.912541 0.262462
H11   H     H_    0.015171 0.625751 0.008702 0.270164
H12   H     H_    0.413492 0.569831 0.091175 0.145847
H13   H     H_    0.023226 0.820758 0.948894 0.270841
H14   H     H_    0.734666 0.376113 0.867179 0.167278
H15   H     H_    0.357994 0.461263 0.918626 0.165213
H16   H     H_    0.700567 0.009111 0.484904 0.192635
H17   H     H_    0.299401 0.990870 0.514042 0.186294
H18   H     H_    0.961202 0.418823 0.240759 0.138006
H19   H     H_    0.831655 0.249408 0.304145 0.158444
H20   H     H_    0.214000 0.250894 0.204774 0.240353
N1    N     N_2   0.950320 0.457950 0.466680 0.168819
N2    N     N_2   0.049680 0.542050 0.533320 0.174122
O1    O     O_R   0.389250 0.738570 0.508180 -0.645689
O2    O     O_3   0.971679 0.668666 0.584443 -0.555265
O3    O     O_R   0.678390 0.711630 0.486820 -0.569366
O4    O     O_R   0.355470 0.513470 0.691600 -0.656630
O5    O     O_R   0.644610 0.486520 0.670240 -0.598897
O6    O     O_R   0.321610 0.288370 0.513180 -0.578586
O7    O     O_R   0.610750 0.261430 0.491820 -0.634430
O8    O     O_R   0.355390 0.513480 0.329760 -0.598631
O9    O     O_R   0.644530 0.486530 0.308400 -0.656050
O10   O     O_3   0.026942 0.334624 0.409786 -0.557522
Zn1   Zn    Zn3+2 0.306940 0.517990 0.514260 1.002530
Zn2   Zn    Zn3+2 0.693060 0.482010 0.485740 1.005480

loop_
_geom_bond_atom_site_label_1
_geom_bond_atom_site_label_2
_ccdc_geom_bond_type
O6    Zn1   S    
N2    O2    S    
C4    H20   S    
O5    Zn2   S    
C6    C7    S    
C5    H3    S    
C13   H1    S    
C10   O4    A    
C8    H10   S    
C3    O10   S    
C7    H9    S    
C3    H19   S    
C4    H2    S    
C7    H8    S    
C11   O6    A    
N2    Zn1   S    
C10   C16   S    
C13   C14   D    
C16   H15   S    
C9    H17   S    
N1    Zn2   S    
C9    C11   S    
O8    Zn1   S    
N1    N2    D    
O7    Zn2   S    
C12   O9    A    
C8    H13   S    
C1    O3    A    
O1    Zn1   S    
C12   C14   S    
O9    Zn2   S    
C13   C15   S    
C6    O2    S    
C11   O7    A    
C6    H7    S    
O4    Zn1   S    
C15   C16   D    
C6    H6    S    
O3    Zn2   S    
C7    C8    S    
C5    H5    S    
C15   H14   S    
C2    H16   S    
C1    C2    S    
C5    H4    S    
C8    H11   S    
C1    O1    A    
C3    H18   S    
C14   H12   S    
C10   O5    A    
C2    C9    D    
C3    C4    S    
C4    C5    S    
N1    O10   S    
C12   O8    A    
