data_mof_unit_11212.cif
_audit_creation_date              2012-10-26T21:24:47-0400
_audit_creation_method            fapswitch 2.2
_symmetry_space_group_name_H-M    P1
_symmetry_Int_Tables_number       1
_space_group_crystal_system       triclinic
_cell_length_a                    9.548159
_cell_length_b                    10.824036
_cell_length_c                    15.442828
_cell_angle_alpha                 89.800562
_cell_angle_beta                  74.440021
_cell_angle_gamma                 89.874235
_cell_volume                      1537.50621774

loop_
_atom_site_label
_atom_site_type_symbol
_atom_type_description
_atom_site_fract_x
_atom_site_fract_y
_atom_site_fract_z
_atom_type_partial_charge
C1    C     C_R   0.000783 0.262391 0.498507 0.547202
C2    C     C_R   0.233574 0.577980 0.048302 0.037182
C3    C     C_R   0.328790 0.521814 0.093285 0.048515
C4    C     C_R   0.918259 0.500069 0.672313 0.545855
C5    C     C_R   0.089281 0.603432 0.094636 -0.153618
C6    C     C_R   0.038936 0.575571 0.185526 -0.154423
C7    C     C_R   0.267950 0.473024 0.180768 -0.017763
C8    C     C_R   0.127973 0.063544 0.495688 0.022784
C9    C     C_R   0.004863 0.129386 0.490178 0.006677
C10   C     C_R   0.887463 0.064974 0.473169 -0.161650
C11   C     C_R   0.887183 0.936245 0.473641 -0.160786
C12   C     C_R   0.676762 0.520242 0.909323 0.033032
C13   C     C_R   0.004322 0.871008 0.490881 0.007681
C14   C     C_R   0.127761 0.936290 0.496079 0.016275
C15   C     C_3   0.210655 0.930050 0.565510 -0.268032
C16   C     C_R   0.000465 0.737724 0.498783 0.550146
C17   C     C_3   0.211176 0.070255 0.564770 -0.268359
C18   C     C_R   0.605577 0.538151 0.425824 0.156306
C19   C     C_R   0.544264 0.449862 0.569316 -0.015765
C20   C     C_R   0.395453 0.450108 0.569400 -0.019767
C21   C     C_R   0.458358 0.537602 0.425738 0.153995
C22   C     C_3   0.469629 0.660819 0.381398 -0.274000
C23   C     C_R   0.778887 0.497247 0.959309 0.050620
C24   C     C_3   0.628028 0.662655 0.382595 -0.280496
C25   C     C_R   0.081904 0.499762 0.327798 0.546155
C26   C     C_R   0.873288 0.501435 0.771071 -0.003575
C27   C     C_R   0.127991 0.512278 0.229517 0.014847
C28   C     C_R   0.926510 0.480384 0.915074 -0.141701
C29   C     C_R   0.973726 0.483643 0.821507 -0.142317
C30   C     C_R   0.726258 0.519147 0.815143 -0.136039
C31   C     C_3   0.334668 0.362026 0.215276 -0.390515
C32   C     C_R   0.527976 0.539932 0.955002 0.029788
C33   C     C_R   0.480178 0.517549 0.048996 0.033339
C34   C     C_R   0.585836 0.502691 0.097021 -0.145268
C35   C     C_R   0.732590 0.492229 0.052842 -0.144112
C36   C     C_R   0.426921 0.586556 0.910804 -0.144103
C37   C     C_R   0.283553 0.609148 0.957653 -0.142194
Cu1   Cu    Cu3+1 0.140670 0.499980 0.500000 0.928079
Cu2   Cu    Cu3+1 0.859330 0.500020 0.500000 0.930007
H1    H     H_    0.809884 0.478804 0.092160 0.112149
H2    H     H_    0.315264 0.411449 0.626200 0.109142
H3    H     H_    0.454933 0.654936 0.312510 0.128111
H4    H     H_    0.402686 0.732481 0.424851 0.151904
H5    H     H_    0.703920 0.660277 0.314231 0.114682
H6    H     H_    0.651540 0.734487 0.427740 0.140951
H7    H     H_    0.930650 0.604448 0.221563 0.118148
H8    H     H_    0.210967 0.650494 0.922423 0.110024
H9    H     H_    0.005206 0.463226 0.952836 0.115839
H10   H     H_    0.088001 0.469654 0.788737 0.119942
H11   H     H_    0.650937 0.527697 0.774556 0.116491
H12   H     H_    0.017143 0.649766 0.061439 0.112676
H13   H     H_    0.557181 0.504173 0.169474 0.111995
H14   H     H_    0.457549 0.614470 0.841185 0.102772
H15   H     H_    0.412376 0.312403 0.159883 0.131119
H16   H     H_    0.390267 0.389583 0.266699 0.147903
H17   H     H_    0.248554 0.294061 0.246189 0.132788
H18   H     H_    0.793312 0.113396 0.463603 0.136040
H19   H     H_    0.792830 0.888683 0.464552 0.123415
H20   H     H_    0.145876 0.889708 0.630174 0.140293
H21   H     H_    0.320805 0.889633 0.538856 0.130651
H22   H     H_    0.146921 0.111606 0.629050 0.134642
H23   H     H_    0.321319 0.110306 0.537107 0.138280
H24   H     H_    0.574774 0.410526 0.626066 0.116794
N1    N     N_R   0.648210 0.500930 0.499430 -0.228990
N2    N     N_R   0.352300 0.500890 0.499430 -0.230581
O1    O     O_R   0.118810 0.319640 0.500000 -0.499122
O2    O     O_R   0.881230 0.319680 0.499990 -0.505124
O3    O     O_R   0.055580 0.499970 0.629840 -0.508574
O4    O     O_R   0.818000 0.500010 0.629830 -0.511895
O5    O     O_R   0.118770 0.680320 0.500010 -0.498922
O6    O     O_R   0.881190 0.680360 0.500000 -0.505161
O7    O     O_R   0.182000 0.499990 0.370170 -0.499971
O8    O     O_R   0.944420 0.500030 0.370160 -0.502419

loop_
_geom_bond_atom_site_label_1
_geom_bond_atom_site_label_2
_ccdc_geom_bond_type
Cu1   O5    S    
C18   C21   A    
C15   H21   S    
C19   C20   A    
C20   H2    S    
C29   H10   S    
Cu2   N1    S    
C12   C23   A    
C18   C24   S    
C24   H6    S    
C32   C36   A    
C36   C37   A    
C3    C7    A    
Cu1   Cu2   S    
C3    C33   A    
C7    C27   A    
C34   C35   A    
C36   H14   S    
C17   H22   S    
C28   H9    S    
Cu1   O1    S    
C19   H24   S    
C8    C9    A    
C31   H17   S    
C37   H8    S    
C11   H19   S    
C9    C10   A    
C6    C27   A    
C12   C30   A    
C30   H11   S    
C13   C14   A    
C12   C32   A    
C16   O6    A    
Cu2   O2    S    
C4    O4    A    
C1    O1    A    
Cu1   O7    S    
C7    C31   S    
C20   N2    A    
C10   H18   S    
C16   O5    A    
C4    O3    A    
C17   H23   S    
C22   H4    S    
Cu1   N2    S    
C19   N1    A    
C33   C34   A    
Cu2   O4    S    
C1    C9    S    
C25   O7    A    
C23   C28   A    
Cu1   O3    S    
C26   C30   A    
C23   C35   A    
C24   H5    S    
C22   C24   S    
C2    C5    A    
C15   C17   S    
C28   C29   A    
C8    C14   A    
C6    H7    S    
C21   N2    A    
C15   H20   S    
C4    C26   S    
C25   C27   S    
C34   H13   S    
C8    C17   S    
C32   C33   A    
C2    C3    A    
C11   C13   A    
C2    C37   A    
C18   N1    A    
C22   H3    S    
C1    O2    A    
C35   H1    S    
C25   O8    A    
Cu2   O8    S    
C31   H15   S    
C10   C11   A    
C26   C29   A    
C13   C16   S    
C5    C6    A    
Cu2   O6    S    
C14   C15   S    
C5    H12   S    
C31   H16   S    
C21   C22   S    
