data_mof_unit_20152.cif
_audit_creation_date              2012-12-10T17:18:34-0500
_audit_creation_method            fapswitch 2.2
_symmetry_space_group_name_H-M    P1
_symmetry_Int_Tables_number       1
_space_group_crystal_system       triclinic
_cell_length_a                    25.95769
_cell_length_b                    25.943988
_cell_length_c                    25.880165
_cell_angle_alpha                 90.00899
_cell_angle_beta                  89.924368
_cell_angle_gamma                 89.98348
_cell_volume                      17428.8774187

loop_
_atom_site_label
_atom_site_type_symbol
_atom_type_description
_atom_site_fract_x
_atom_site_fract_y
_atom_site_fract_z
_atom_type_partial_charge
C1    C     C_R   0.749831 0.610125 0.750022 0.797406
C2    C     C_R   0.389903 0.749958 0.750009 0.796298
C3    C     C_R   0.282473 0.051158 0.661407 -0.419560
C4    C     C_R   0.697401 0.329344 0.053937 -0.293448
C5    C     C_R   0.301079 0.669389 0.946081 -0.428541
C6    C     C_R   0.776586 0.053852 0.648299 -0.375175
C7    C     C_R   0.237929 0.950390 0.347249 -0.361464
C8    C     C_R   0.231320 0.053692 0.845508 -0.406551
C9    C     C_R   0.756108 0.946866 0.153693 -0.403084
C10   C     C_R   0.053179 0.653560 0.745616 -0.399014
C11   C     C_R   0.946411 0.222026 0.158607 -0.392026
C12   C     C_R   0.650215 0.946469 0.781782 -0.363107
C13   C     C_R   0.610124 0.750127 0.250004 0.797443
C14   C     C_R   0.243701 0.052732 0.153437 -0.407210
C15   C     C_R   0.945991 0.221819 0.841241 -0.388465
C16   C     C_R   0.053208 0.653658 0.255030 -0.396437
C17   C     C_R   0.756302 0.053520 0.154148 -0.391515
C18   C     C_R   0.228399 0.946545 0.845337 -0.416497
C19   C     C_R   0.946636 0.653791 0.255632 -0.401527
C20   C     C_R   0.053050 0.224385 0.842340 -0.397367
C21   C     C_R   0.241137 0.946002 0.154707 -0.404690
C22   C     C_R   0.650354 0.053245 0.782648 -0.365453
C23   C     C_R   0.053502 0.223432 0.158053 -0.394496
C24   C     C_R   0.389963 0.249876 0.749672 0.787558
C25   C     C_R   0.946629 0.653772 0.744790 -0.405501
C26   C     C_R   0.553624 0.279925 0.159187 -0.397683
C27   C     C_R   0.446395 0.703559 0.833382 -0.424752
C28   C     C_R   0.310305 0.176781 0.445502 -0.258621
C29   C     C_R   0.842737 0.729093 0.553531 -0.386104
C30   C     C_R   0.446462 0.278948 0.841000 -0.347428
C31   C     C_R   0.553942 0.702007 0.167643 -0.425588
C32   C     C_R   0.697831 0.170179 0.554029 -0.457725
C33   C     C_R   0.289328 0.834448 0.445130 -0.430086
C34   C     C_R   0.553682 0.703039 0.833019 -0.426274
C35   C     C_R   0.610135 0.750128 0.750086 0.794262
C36   C     C_R   0.446474 0.279674 0.159242 -0.408393
C37   C     C_R   0.265477 0.844514 0.549377 -0.447893
C38   C     C_R   0.694227 0.172521 0.446507 -0.481422
C39   C     C_R   0.446657 0.702475 0.167194 -0.427360
C40   C     C_R   0.553535 0.279843 0.840719 -0.273454
C41   C     C_R   0.842741 0.728958 0.446245 -0.379103
C42   C     C_R   0.317955 0.182732 0.552597 -0.430579
C43   C     C_R   0.170587 0.553636 0.697922 -0.486451
C44   C     C_R   0.832065 0.446725 0.298370 -0.284042
C45   C     C_R   0.167114 0.446546 0.297061 -0.416379
C46   C     C_R   0.389920 0.249902 0.250188 0.795227
C47   C     C_R   0.828717 0.553612 0.696620 -0.445577
C48   C     C_R   0.832467 0.446482 0.702255 -0.424695
C49   C     C_R   0.170879 0.553663 0.302772 -0.482605
C50   C     C_R   0.828045 0.553777 0.304001 -0.380736
C51   C     C_R   0.166938 0.446519 0.703540 -0.420830
C52   C     C_R   0.527009 0.831389 0.633199 0.542646
C53   C     C_R   0.473778 0.216421 0.388928 0.527665
C54   C     C_R   0.607219 0.755653 0.473096 0.533321
C55   C     C_R   0.170973 0.367978 0.527501 0.536854
C56   C     C_R   0.472773 0.832193 0.366343 0.537143
C57   C     C_R   0.610166 0.250061 0.750095 0.779567
C58   C     C_R   0.528457 0.217390 0.611074 0.526646
C59   C     C_R   0.205662 0.613842 0.528006 0.515467
C60   C     C_R   0.822974 0.371660 0.472944 0.528001
C61   C     C_R   0.527353 0.214054 0.388137 0.512694
C62   C     C_R   0.473553 0.826651 0.629975 0.539930
C63   C     C_R   0.822873 0.371767 0.526822 0.526508
C64   C     C_R   0.205193 0.613445 0.474122 0.520189
C65   C     C_R   0.475048 0.221959 0.609653 0.510931
C66   C     C_R   0.526478 0.834614 0.364650 0.538404
C67   C     C_R   0.171006 0.368240 0.473616 0.537311
C68   C     C_R   0.389887 0.749951 0.249878 0.797540
C69   C     C_R   0.607122 0.754892 0.526718 0.533070
C70   C     C_R   0.625989 0.526235 0.179897 0.505191
C71   C     C_R   0.376177 0.472881 0.815978 0.527179
C72   C     C_R   0.624132 0.472934 0.816849 0.525776
C73   C     C_R   0.375925 0.526594 0.183158 0.526475
C74   C     C_R   0.376029 0.472803 0.183498 0.526403
C75   C     C_R   0.624328 0.526723 0.817333 0.526218
C76   C     C_R   0.376041 0.526675 0.816350 0.527161
C77   C     C_R   0.626689 0.472447 0.179097 0.551515
C78   C     C_R   0.026817 0.297199 0.615300 0.527748
C79   C     C_R   0.249253 0.748816 0.389718 0.798890
C80   C     C_R   0.973207 0.889209 0.221034 0.512841
C81   C     C_R   0.832435 0.134177 0.972893 0.558574
C82   C     C_R   0.153729 0.854506 0.027378 0.552566
C83   C     C_R   0.972774 0.297867 0.384464 0.540200
C84   C     C_R   0.026963 0.889262 0.778475 0.512126
C85   C     C_R   0.160236 0.139813 0.027358 0.576865
C86   C     C_R   0.832169 0.865944 0.973043 0.537883
C87   C     C_R   0.026864 0.889193 0.221045 0.512459
C88   C     C_R   0.973117 0.297833 0.615546 0.528467
C89   C     C_R   0.833842 0.864680 0.026942 0.535823
C90   C     C_R   0.749942 0.249898 0.610175 0.791277
C91   C     C_R   0.158372 0.141245 0.973514 0.581231
C92   C     C_R   0.973316 0.889423 0.778054 0.512239
C93   C     C_R   0.026477 0.297401 0.384667 0.517315
C94   C     C_R   0.152324 0.853301 0.973465 0.541223
C95   C     C_R   0.833993 0.135302 0.026774 0.562259
C96   C     C_R   0.329611 0.367850 0.972843 0.533826
C97   C     C_R   0.679967 0.625932 0.026860 0.526732
C98   C     C_R   0.246375 0.031864 0.391793 0.534629
C99   C     C_R   0.800323 0.973816 0.607081 0.513464
C100  C     C_R   0.324228 0.628326 0.026783 0.528533
C101  C     C_R   0.749651 0.750190 0.389860 0.787722
C102  C     C_R   0.670694 0.368345 0.973245 0.448956
C103  C     C_R   0.324056 0.973236 0.631499 0.525666
C104  C     C_R   0.742532 0.024352 0.393070 0.525442
C105  C     C_R   0.679801 0.626086 0.972952 0.526774
C106  C     C_R   0.329603 0.367915 0.026761 0.532052
C107  C     C_R   0.736718 0.971120 0.391951 0.527998
C108  C     C_R   0.308962 0.023968 0.622664 0.521278
C109  C     C_R   0.671331 0.368410 0.027662 0.489496
C110  C     C_R   0.324227 0.628360 0.972871 0.528107
C111  C     C_R   0.799117 0.027429 0.606733 0.520936
C112  C     C_R   0.249969 0.389861 0.250015 0.795241
C113  C     C_R   0.250489 0.249757 0.610127 0.789752
C114  C     C_R   0.233045 0.979603 0.392757 0.433117
C115  C     C_R   0.228110 0.026864 0.892504 0.531802
C116  C     C_R   0.753216 0.973636 0.106742 0.532975
C117  C     C_R   0.026489 0.606885 0.750914 0.534789
C118  C     C_R   0.973090 0.210718 0.112764 0.522866
C119  C     C_R   0.610455 0.972929 0.807178 0.498511
C120  C     C_R   0.243644 0.025536 0.106595 0.525011
C121  C     C_R   0.972401 0.210944 0.887252 0.525145
C122  C     C_R   0.026569 0.606923 0.250036 0.530711
C123  C     C_R   0.753256 0.027122 0.106975 0.527266
C124  C     C_R   0.749735 0.249853 0.389852 0.792240
C125  C     C_R   0.225985 0.973305 0.892393 0.543054
C126  C     C_R   0.973122 0.606975 0.250478 0.535879
C127  C     C_R   0.025998 0.212872 0.887955 0.519011
C128  C     C_R   0.242113 0.972032 0.107228 0.529072
C129  C     C_R   0.610570 0.026497 0.807691 0.498916
C130  C     C_R   0.026715 0.211821 0.112393 0.522532
C131  C     C_R   0.973048 0.606979 0.750382 0.538549
C132  C     C_R   0.526900 0.294073 0.114218 0.528332
C133  C     C_R   0.473197 0.681408 0.874988 0.528923
C134  C     C_R   0.345075 0.144808 0.471163 0.552283
C135  C     C_R   0.250199 0.750526 0.609992 0.793541
C136  C     C_R   0.888708 0.718969 0.526750 0.512992
C137  C     C_R   0.473093 0.293411 0.886033 0.419342
C138  C     C_R   0.527327 0.679751 0.126011 0.528269
C139  C     C_R   0.669713 0.132356 0.527355 0.559912
C140  C     C_R   0.297498 0.881635 0.469927 0.538432
C141  C     C_R   0.526923 0.681011 0.874736 0.529086
C142  C     C_R   0.473214 0.293913 0.114230 0.522092
C143  C     C_R   0.279317 0.888025 0.520121 0.555259
C144  C     C_R   0.667253 0.133991 0.473504 0.564624
C145  C     C_R   0.473602 0.680075 0.125742 0.528806
C146  C     C_R   0.249800 0.250177 0.389806 0.783144
C147  C     C_R   0.527282 0.294125 0.885531 0.508454
C148  C     C_R   0.888707 0.718889 0.472926 0.513139
C149  C     C_R   0.350921 0.149509 0.525011 0.437217
C150  C     C_R   0.129972 0.526934 0.674027 0.563722
C151  C     C_R   0.871070 0.473215 0.324326 0.517380
C152  C     C_R   0.127618 0.473425 0.322709 0.549779
C153  C     C_R   0.869107 0.526897 0.672226 0.555441
C154  C     C_R   0.871745 0.473318 0.676251 0.538284
C155  C     C_R   0.130329 0.526976 0.326896 0.558353
C156  C     C_R   0.868417 0.527264 0.328596 0.446861
C157  C     C_R   0.749590 0.750255 0.610127 0.792589
C158  C     C_R   0.127320 0.473380 0.678180 0.551601
C159  C     C_R   0.472975 0.775101 0.709655 0.039478
C160  C     C_R   0.527301 0.237647 0.296045 0.035254
C161  C     C_R   0.701929 0.754077 0.527196 0.034859
C162  C     C_R   0.222946 0.289086 0.472907 0.053340
C163  C     C_R   0.527062 0.777777 0.288645 0.037269
C164  C     C_R   0.473346 0.239899 0.703082 0.042614
C165  C     C_R   0.235088 0.703350 0.472923 0.030369
C166  C     C_R   0.774360 0.290457 0.527199 0.043543
C167  C     C_R   0.472998 0.238404 0.296404 0.028255
C168  C     C_R   0.249611 0.110015 0.750466 0.797919
C169  C     C_R   0.527258 0.776934 0.710874 0.036173
C170  C     C_R   0.774326 0.290429 0.472769 0.039259
C171  C     C_R   0.235290 0.703936 0.527420 0.038897
C172  C     C_R   0.527621 0.238285 0.703775 0.041366
C173  C     C_R   0.472736 0.776760 0.289286 0.035247
C174  C     C_R   0.223074 0.288913 0.527355 0.047339
C175  C     C_R   0.702002 0.754327 0.472809 0.030089
C176  C     C_R   0.708847 0.472618 0.226276 0.034858
C177  C     C_R   0.292146 0.527098 0.772288 0.041647
C178  C     C_R   0.708014 0.527115 0.772670 0.042361
C179  C     C_R   0.750266 0.889836 0.249528 0.788111
C180  C     C_R   0.292065 0.472711 0.227651 0.041116
C181  C     C_R   0.292083 0.527074 0.227533 0.041657
C182  C     C_R   0.707993 0.472752 0.772499 0.040720
C183  C     C_R   0.292143 0.472738 0.772170 0.040923
C184  C     C_R   0.708491 0.526978 0.226509 0.045268
C185  C     C_R   0.972808 0.265451 0.704909 0.042006
C186  C     C_R   0.027144 0.796362 0.241328 0.035433
C187  C     C_R   0.777698 0.211507 0.027167 0.060031
C188  C     C_R   0.217910 0.784936 0.972905 0.042592
C189  C     C_R   0.027026 0.265317 0.295150 0.041198
C190  C     C_R   0.745270 0.109975 0.745384 0.807385
C191  C     C_R   0.972898 0.796448 0.758366 0.036193
C192  C     C_R   0.219812 0.213321 0.972921 0.052942
C193  C     C_R   0.777423 0.788584 0.027220 0.038427
C194  C     C_R   0.972859 0.796374 0.241303 0.037417
C195  C     C_R   0.027129 0.265276 0.704872 0.042924
C196  C     C_R   0.776681 0.789152 0.972792 0.032639
C197  C     C_R   0.220569 0.212808 0.027344 0.051352
C198  C     C_R   0.027180 0.796347 0.758574 0.036246
C199  C     C_R   0.972704 0.265492 0.295077 0.034445
C200  C     C_R   0.218504 0.785382 0.027343 0.039225
C201  C     C_R   0.250091 0.890065 0.250729 0.787754
C202  C     C_R   0.776991 0.211022 0.972742 0.048253
C203  C     C_R   0.276761 0.289314 0.027172 0.042532
C204  C     C_R   0.726110 0.708745 0.972754 0.043350
C205  C     C_R   0.245545 0.974179 0.298227 0.032296
C206  C     C_R   0.757554 0.027591 0.692384 0.044770
C207  C     C_R   0.275759 0.709764 0.972725 0.044577
C208  C     C_R   0.723782 0.289697 0.027288 -0.015699
C209  C     C_R   0.266935 0.026201 0.707381 0.037830
C210  C     C_R   0.744873 0.972326 0.297138 0.035169
C211  C     C_R   0.726192 0.708637 0.027200 0.042739
C212  C     C_R   0.749888 0.110034 0.250244 0.795510
C213  C     C_R   0.276698 0.289294 0.972728 0.042351
C214  C     C_R   0.746976 0.026559 0.297830 0.037312
C215  C     C_R   0.272079 0.972273 0.710306 0.048752
C216  C     C_R   0.723494 0.289551 0.972872 0.025572
C217  C     C_R   0.275811 0.709762 0.027182 0.044296
C218  C     C_R   0.758079 0.972781 0.692488 0.044606
C219  C     C_R   0.250833 0.028089 0.297168 -0.032613
C220  C     C_R   0.238407 0.972786 0.798450 0.028133
C221  C     C_R   0.752817 0.027179 0.202198 0.037514
C222  C     C_R   0.972828 0.701787 0.747444 0.030477
C223  C     C_R   0.749723 0.610103 0.249878 0.792862
C224  C     C_R   0.249194 0.889784 0.751359 0.787947
C225  C     C_R   0.027128 0.236980 0.204088 0.036980
C226  C     C_R   0.693120 0.027358 0.760360 0.046029
C227  C     C_R   0.246113 0.972675 0.202421 0.039494
C228  C     C_R   0.026911 0.237331 0.796065 0.037551
C229  C     C_R   0.972826 0.701797 0.252766 0.029111
C230  C     C_R   0.752731 0.972890 0.201909 0.030130
C231  C     C_R   0.239227 0.027234 0.798283 0.040928
C232  C     C_R   0.027108 0.701755 0.252622 0.035982
C233  C     C_R   0.972605 0.236633 0.795746 0.035464
C234  C     C_R   0.247065 0.026965 0.201770 0.049014
C235  C     C_R   0.249679 0.110177 0.249395 0.791598
C236  C     C_R   0.693135 0.972563 0.760103 0.047334
C237  C     C_R   0.972816 0.236629 0.204227 0.036674
C238  C     C_R   0.027108 0.701695 0.747700 0.036340
C239  C     C_R   0.472889 0.264203 0.204567 0.039879
C240  C     C_R   0.527202 0.726779 0.791597 0.044589
C241  C     C_R   0.282565 0.215081 0.526748 0.046987
C242  C     C_R   0.796267 0.740609 0.472742 0.037597
C243  C     C_R   0.527184 0.264032 0.795518 -0.018077
C244  C     C_R   0.472976 0.726248 0.208684 0.044655
C245  C     C_R   0.722857 0.210662 0.472919 0.051573
C246  C     C_R   0.745362 0.890067 0.745385 0.801212
C247  C     C_R   0.260409 0.795608 0.525681 0.035563
C248  C     C_R   0.472858 0.726866 0.791655 0.045123
C249  C     C_R   0.527206 0.264300 0.204511 0.034695
C250  C     C_R   0.266591 0.792634 0.471816 0.045835
C251  C     C_R   0.723884 0.210036 0.527350 0.042976
C252  C     C_R   0.527318 0.726137 0.208826 0.044892
C253  C     C_R   0.472896 0.263843 0.795492 0.037982
C254  C     C_R   0.796255 0.740660 0.527132 0.032888
C255  C     C_R   0.280433 0.213653 0.472401 -0.017577
C256  C     C_R   0.208809 0.472873 0.726552 0.046941
C257  C     C_R   0.110072 0.249999 0.750129 0.792273
C258  C     C_R   0.789547 0.527251 0.275957 0.035984
C259  C     C_R   0.209909 0.527198 0.275292 0.048060
C260  C     C_R   0.790894 0.472857 0.725898 0.045002
C261  C     C_R   0.789890 0.527172 0.724401 0.039696
C262  C     C_R   0.208902 0.472883 0.273783 0.045360
C263  C     C_R   0.790657 0.472968 0.274506 -0.011421
C264  C     C_R   0.209781 0.527183 0.725064 0.048506
C265  C     C_R   0.446080 0.750009 0.750063 -0.046985
C266  C     C_R   0.554022 0.250257 0.250021 -0.052314
C267  C     C_R   0.749416 0.749480 0.553972 -0.060912
C268  C     C_R   0.889910 0.749605 0.250189 0.788388
C269  C     C_R   0.249998 0.250192 0.445909 -0.043214
C270  C     C_R   0.553985 0.750655 0.249630 -0.044263
C271  C     C_R   0.446203 0.250678 0.749543 -0.054103
C272  C     C_R   0.250522 0.748038 0.445675 -0.045680
C273  C     C_R   0.749857 0.249826 0.554052 -0.046379
C274  C     C_R   0.446099 0.250411 0.250267 -0.053491
C275  C     C_R   0.554018 0.750793 0.750540 -0.047116
C276  C     C_R   0.749321 0.250057 0.446024 -0.043855
C277  C     C_R   0.248436 0.750094 0.553665 -0.051395
C278  C     C_R   0.554112 0.250096 0.750020 -0.057260
C279  C     C_R   0.110088 0.250002 0.249948 0.791186
C280  C     C_R   0.446045 0.750275 0.249729 -0.047504
C281  C     C_R   0.251169 0.250495 0.553917 -0.039429
C282  C     C_R   0.749471 0.749512 0.445993 -0.061067
C283  C     C_R   0.750131 0.446000 0.249930 -0.046873
C284  C     C_R   0.250487 0.553952 0.749499 -0.044950
C285  C     C_R   0.749502 0.553959 0.749476 -0.045733
C286  C     C_R   0.250041 0.445997 0.250002 -0.048211
C287  C     C_R   0.250490 0.553955 0.250536 -0.044417
C288  C     C_R   0.749921 0.446002 0.749969 -0.047147
C289  C     C_R   0.250058 0.446009 0.750045 -0.048686
C290  C     C_R   0.889916 0.749643 0.749789 0.792418
C291  C     C_R   0.749424 0.553939 0.250474 -0.043009
C292  C     C_R   0.945954 0.250219 0.750037 -0.050620
C293  C     C_R   0.053933 0.749378 0.249337 -0.059324
C294  C     C_R   0.750320 0.250293 0.054022 -0.039744
C295  C     C_R   0.249070 0.749120 0.946025 -0.043358
C296  C     C_R   0.053913 0.250345 0.249873 -0.047399
C297  C     C_R   0.946061 0.749451 0.750560 -0.065291
C298  C     C_R   0.249350 0.250438 0.946014 -0.042354
C299  C     C_R   0.750544 0.749419 0.054005 -0.043381
C300  C     C_R   0.946043 0.749408 0.249328 -0.063097
C301  C     C_R   0.110080 0.749572 0.250248 0.797168
C302  C     C_R   0.053879 0.250479 0.750232 -0.050033
C303  C     C_R   0.750180 0.749751 0.945989 -0.048551
C304  C     C_R   0.249789 0.250256 0.054035 -0.042832
C305  C     C_R   0.053951 0.749311 0.750789 -0.058814
C306  C     C_R   0.945985 0.250314 0.249896 -0.047709
C307  C     C_R   0.249415 0.749283 0.054018 -0.044824
C308  C     C_R   0.749856 0.250029 0.946001 -0.045717
C309  C     C_R   0.247478 0.946345 0.250565 -0.067664
C310  C     C_R   0.733059 0.054358 0.733749 -0.116678
C311  C     C_R   0.249522 0.053710 0.751341 -0.051735
C312  C     C_R   0.889860 0.250026 0.749977 0.797801
C313  C     C_R   0.749499 0.945885 0.249486 -0.062650
C314  C     C_R   0.750322 0.053805 0.250169 -0.060415
C315  C     C_R   0.250931 0.945810 0.752634 -0.047462
C316  C     C_R   0.733326 0.945744 0.733657 -0.113511
C317  C     C_R   0.250224 0.054182 0.249253 -0.059528
C318  C     C_R   0.110089 0.749515 0.749763 0.795878
C319  C     C_R   0.249992 0.389880 0.750015 0.796932
C320  C     C_R   0.889871 0.250032 0.249966 0.797695
C321  C     C_R   0.249849 0.250015 0.889850 0.793680
C322  C     C_R   0.749968 0.749795 0.110156 0.797428
C323  C     C_R   0.249912 0.749836 0.889853 0.796516
C324  C     C_R   0.750029 0.250075 0.110167 0.782887
C325  C     C_R   0.749961 0.749939 0.889842 0.801645
C326  C     C_R   0.250063 0.250093 0.110169 0.793973
C327  C     C_R   0.749908 0.250050 0.889842 0.793978
C328  C     C_R   0.250074 0.749785 0.110164 0.797988
C329  C     C_R   0.553685 0.806084 0.673028 -0.452562
C330  C     C_R   0.250164 0.610123 0.249989 0.793404
C331  C     C_R   0.446805 0.226689 0.343050 -0.383563
C332  C     C_R   0.654204 0.758804 0.446511 -0.403346
C333  C     C_R   0.196292 0.328184 0.554145 -0.441485
C334  C     C_R   0.446151 0.803557 0.328803 -0.392261
C335  C     C_R   0.554417 0.224551 0.658016 -0.397220
C336  C     C_R   0.219967 0.658960 0.554398 -0.385505
C337  C     C_R   0.799211 0.331036 0.446149 -0.424216
C338  C     C_R   0.553823 0.223648 0.341808 -0.395821
C339  C     C_R   0.446689 0.799405 0.668441 -0.399211
C340  C     C_R   0.799121 0.331180 0.553719 -0.426091
C341  C     C_R   0.750012 0.389863 0.749991 0.794356
C342  C     C_R   0.219272 0.658085 0.446837 -0.390145
C343  C     C_R   0.447583 0.230619 0.655686 -0.412196
C344  C     C_R   0.553377 0.807225 0.326278 -0.443791
C345  C     C_R   0.196268 0.328651 0.446544 -0.440592
C346  C     C_R   0.653973 0.757800 0.553465 -0.399073
C347  C     C_R   0.666956 0.553257 0.202861 -0.426982
C348  C     C_R   0.334194 0.446178 0.794629 -0.414406
C349  C     C_R   0.666026 0.446209 0.795214 -0.414385
C350  C     C_R   0.333962 0.553467 0.204524 -0.420746
C351  C     C_R   0.334059 0.446126 0.204998 -0.414132
C352  C     C_R   0.250166 0.610108 0.750014 0.794894
C353  C     C_R   0.666253 0.553550 0.795875 -0.423334
C354  C     C_R   0.334046 0.553518 0.795133 -0.420977
C355  C     C_R   0.668020 0.445912 0.201853 -0.374843
C356  C     C_R   0.053567 0.281602 0.659817 -0.413677
C357  C     C_R   0.946537 0.843069 0.230373 -0.381760
C358  C     C_R   0.804166 0.171858 0.946122 -0.435720
C359  C     C_R   0.186658 0.820764 0.054057 -0.443660
C360  C     C_R   0.946164 0.282389 0.339873 -0.370812
C361  C     C_R   0.053556 0.843002 0.769516 -0.385576
C362  C     C_R   0.191074 0.175468 0.054037 -0.499817
C363  C     C_R   0.750183 0.389875 0.250136 0.787653
C364  C     C_R   0.803749 0.828415 0.946225 -0.389459
C365  C     C_R   0.053501 0.843042 0.230405 -0.385571
C366  C     C_R   0.946390 0.282394 0.660135 -0.413342
C367  C     C_R   0.806357 0.826429 0.053780 -0.443254
C368  C     C_R   0.188434 0.177426 0.946511 -0.501150
C369  C     C_R   0.946608 0.843281 0.768858 -0.382957
C370  C     C_R   0.053342 0.281762 0.340167 -0.412241
C371  C     C_R   0.184614 0.819069 0.946470 -0.446838
C372  C     C_R   0.806595 0.173608 0.053664 -0.491712
C373  C     C_R   0.303613 0.328577 0.946073 -0.435461
C374  C     C_R   0.610129 0.250099 0.249944 0.793081
C375  C     C_R   0.702347 0.667318 0.053744 -0.421427
C376  C     C_R   0.256796 0.055061 0.344544 -0.219479
C377  C     C_R   0.778481 0.946897 0.648741 -0.374589
C378  C     C_R   0.301123 0.669346 0.053698 -0.427359
C379  C     C_R   0.696513 0.328878 0.946397 -0.296869
C380  C     C_R   0.302399 0.946389 0.673104 -0.434660
C381  C     C_R   0.744420 0.052008 0.346440 -0.406909
C382  C     C_R   0.702123 0.667569 0.946149 -0.421686
C383  C     C_R   0.303653 0.328671 0.053678 -0.435426
C384  C     C_R   0.736501 0.945554 0.344278 -0.382619
H1    H     H_    0.595222 0.809550 0.674044 0.136643
H2    H     H_    0.405116 0.797855 0.665878 0.142216
H3    H     H_    0.388218 0.129785 0.587237 0.345631
H4    H     H_    0.410772 0.663478 0.088802 0.317452
H5    H     H_    0.533186 0.318398 0.956722 0.430175
H6    H     H_    0.250425 0.935762 0.569534 0.317400
H7    H     H_    0.640559 0.103374 0.410354 0.317347
H8    H     H_    0.589968 0.305374 0.075311 0.330761
H9    H     H_    0.410239 0.664946 0.911911 0.317443
H10   H     H_    0.649318 0.097559 0.590751 0.316325
H11   H     H_    0.330589 0.912173 0.409859 0.313902
H12   H     H_    0.409529 0.303189 0.924763 0.337713
H13   H     H_    0.800204 0.331994 0.595509 0.137971
H14   H     H_    0.590522 0.661806 0.089952 0.317424
H15   H     H_    0.395707 0.089569 0.464699 0.419561
H16   H     H_    0.927945 0.709495 0.590115 0.323159
H17   H     H_    0.898421 0.590864 0.355048 0.336253
H18   H     H_    0.088365 0.410806 0.664364 0.316980
H19   H     H_    0.910034 0.410594 0.661054 0.319031
H20   H     H_    0.099494 0.589968 0.353569 0.320465
H21   H     H_    0.088702 0.410864 0.336778 0.318449
H22   H     H_    0.900108 0.589923 0.645856 0.318708
H23   H     H_    0.099039 0.589910 0.647531 0.320158
H24   H     H_    0.217637 0.656826 0.405104 0.151251
H25   H     H_    0.936166 0.467900 0.361693 0.427570
H26   H     H_    0.088070 0.211527 0.929463 0.320479
H27   H     H_    0.910829 0.567919 0.237476 0.325458
H28   H     H_    0.648877 0.401515 0.909487 0.343091
H29   H     H_    0.342035 0.592034 0.089999 0.316595
H30   H     H_    0.910094 0.202329 0.073295 0.321452
H31   H     H_    0.088443 0.567818 0.765531 0.323818
H32   H     H_    0.351225 0.401912 0.090010 0.320461
H33   H     H_    0.661600 0.590186 0.909616 0.317261
H34   H     H_    0.088592 0.567810 0.235707 0.324796
H35   H     H_    0.406069 0.230483 0.653341 0.164432
H36   H     H_    0.909134 0.201156 0.926202 0.318799
H37   H     H_    0.662550 0.589486 0.090090 0.318296
H38   H     H_    0.351305 0.401658 0.909467 0.320618
H39   H     H_    0.910673 0.568089 0.763626 0.322649
H40   H     H_    0.089254 0.208497 0.071487 0.319950
H41   H     H_    0.342156 0.592217 0.909545 0.316611
H42   H     H_    0.629843 0.430918 0.033760 0.428393
H43   H     H_    0.129961 0.112281 0.910334 0.321242
H44   H     H_    0.859321 0.895952 0.090300 0.320672
H45   H     H_    0.251466 0.087526 0.065336 0.323539
H46   H     H_    0.595009 0.809492 0.326101 0.137527
H47   H     H_    0.574927 0.909628 0.826289 0.333943
H48   H     H_    0.128236 0.885723 0.090827 0.320750
H49   H     H_    0.854893 0.100647 0.909503 0.327083
H50   H     H_    0.232367 0.911193 0.933227 0.321632
H51   H     H_    0.742779 0.089652 0.067348 0.325499
H52   H     H_    0.854148 0.899890 0.909709 0.326163
H53   H     H_    0.136686 0.107128 0.090781 0.320486
H54   H     H_    0.742922 0.911401 0.066556 0.324243
H55   H     H_    0.241324 0.087740 0.933499 0.322107
H56   H     H_    0.859643 0.104088 0.090071 0.321252
H57   H     H_    0.195285 0.329583 0.404746 0.135856
H58   H     H_    0.123248 0.881459 0.910208 0.321119
H59   H     H_    0.575367 0.089589 0.828149 0.334225
H60   H     H_    0.245315 0.908681 0.067434 0.322370
H61   H     H_    0.297202 0.076185 0.571326 0.324367
H62   H     H_    0.728170 0.907527 0.430986 0.323084
H63   H     H_    0.090210 0.928500 0.787854 0.323117
H64   H     H_    0.909558 0.311614 0.422455 0.324661
H65   H     H_    0.818956 0.910807 0.570659 0.332651
H66   H     H_    0.243283 0.040076 0.466687 0.404281
H67   H     H_    0.910000 0.311933 0.577673 0.320645
H68   H     H_    0.651640 0.761644 0.594876 0.167301
H69   H     H_    0.090093 0.928582 0.212082 0.323429
H70   H     H_    0.756588 0.084761 0.434868 0.327316
H71   H     H_    0.363913 0.914152 0.608779 0.321419
H72   H     H_    0.910009 0.928637 0.212051 0.323597
H73   H     H_    0.089822 0.308335 0.576347 0.319740
H74   H     H_    0.203502 0.922303 0.431215 0.337238
H75   H     H_    0.814099 0.090741 0.569187 0.332198
H76   H     H_    0.089409 0.309065 0.423460 0.320542
H77   H     H_    0.910157 0.929126 0.786112 0.325978
H78   H     H_    0.590559 0.204516 0.427124 0.322823
H79   H     H_    0.665715 0.594943 0.202226 0.139777
H80   H     H_    0.411691 0.838801 0.589611 0.314194
H81   H     H_    0.151107 0.403414 0.410597 0.320180
H82   H     H_    0.567480 0.741616 0.588792 0.323075
H83   H     H_    0.414239 0.228901 0.566858 0.323733
H84   H     H_    0.589496 0.861021 0.395497 0.320415
H85   H     H_    0.841512 0.407398 0.589989 0.318917
H86   H     H_    0.193454 0.574219 0.411246 0.322631
H87   H     H_    0.589942 0.859105 0.603209 0.321270
H88   H     H_    0.411781 0.217433 0.430735 0.320051
H89   H     H_    0.195166 0.575473 0.591627 0.321596
H90   H     H_    0.335022 0.404498 0.795669 0.139708
H91   H     H_    0.842142 0.406841 0.409677 0.336135
H92   H     H_    0.409641 0.852488 0.401446 0.318007
H93   H     H_    0.591953 0.205889 0.572792 0.321297
H94   H     H_    0.567686 0.744745 0.410594 0.323580
H95   H     H_    0.150941 0.402505 0.590900 0.319163
H96   H     H_    0.412256 0.589793 0.834197 0.317797
H97   H     H_    0.592218 0.409037 0.158625 0.336188
H98   H     H_    0.412760 0.409537 0.166720 0.317166
H99   H     H_    0.588233 0.589847 0.835475 0.318050
H100  H     H_    0.587252 0.409723 0.833393 0.321325
H101  H     H_    0.665160 0.404528 0.796170 0.140874
H102  H     H_    0.412226 0.589674 0.165373 0.317699
H103  H     H_    0.589154 0.589127 0.162716 0.319802
H104  H     H_    0.412952 0.409635 0.832614 0.317649
H105  H     H_    0.405245 0.225526 0.344764 0.165489
H106  H     H_    0.334751 0.595146 0.203241 0.138201
H107  H     H_    0.334869 0.404445 0.203949 0.139485
H108  H     H_    0.665516 0.595229 0.797221 0.137683
H109  H     H_    0.334812 0.595197 0.796434 0.138422
H110  H     H_    0.667699 0.404235 0.200297 0.144895
H111  H     H_    0.095172 0.283193 0.658797 0.149587
H112  H     H_    0.905090 0.844278 0.227302 0.161998
H113  H     H_    0.804222 0.170461 0.904334 0.144698
H114  H     H_    0.186560 0.822138 0.095855 0.135056
H115  H     H_    0.904568 0.284430 0.340639 0.150738
H116  H     H_    0.652166 0.763425 0.405155 0.164585
H117  H     H_    0.094980 0.844088 0.772923 0.159203
H118  H     H_    0.191189 0.173957 0.095826 0.136116
H119  H     H_    0.803721 0.829909 0.904441 0.145536
H120  H     H_    0.094955 0.844229 0.227336 0.161093
H121  H     H_    0.904799 0.284496 0.659385 0.147423
H122  H     H_    0.808241 0.826455 0.095552 0.138076
H123  H     H_    0.186512 0.177442 0.904736 0.134047
H124  H     H_    0.905150 0.844631 0.771702 0.166970
H125  H     H_    0.094945 0.283374 0.341178 0.149696
H126  H     H_    0.182934 0.819124 0.904683 0.136139
H127  H     H_    0.195460 0.328871 0.595950 0.137511
H128  H     H_    0.808427 0.173497 0.095439 0.135140
H129  H     H_    0.304499 0.329352 0.904270 0.136561
H130  H     H_    0.701410 0.666398 0.095538 0.136226
H131  H     H_    0.268517 0.095008 0.345799 0.182981
H132  H     H_    0.773843 0.906032 0.643510 0.192748
H133  H     H_    0.302084 0.668511 0.095494 0.134083
H134  H     H_    0.695229 0.329356 0.904603 0.130362
H135  H     H_    0.311231 0.905805 0.677212 0.142854
H136  H     H_    0.743441 0.093375 0.349610 0.175104
H137  H     H_    0.700934 0.666886 0.904360 0.135329
H138  H     H_    0.404496 0.803132 0.330512 0.140567
H139  H     H_    0.304620 0.329481 0.095477 0.135965
H140  H     H_    0.729386 0.904569 0.344953 0.161528
H141  H     H_    0.275770 0.091848 0.655496 0.168675
H142  H     H_    0.696597 0.330606 0.095747 0.159651
H143  H     H_    0.301963 0.668561 0.904280 0.134601
H144  H     H_    0.770382 0.094552 0.643008 0.184221
H145  H     H_    0.234337 0.909530 0.352169 0.193396
H146  H     H_    0.229847 0.095252 0.847134 0.161981
H147  H     H_    0.760481 0.905623 0.151243 0.167033
H148  H     H_    0.094387 0.650935 0.741351 0.169780
H149  H     H_    0.595782 0.219783 0.657897 0.153834
H150  H     H_    0.904866 0.219401 0.157804 0.153495
H151  H     H_    0.644003 0.905933 0.775656 0.190781
H152  H     H_    0.240591 0.094070 0.150835 0.170070
H153  H     H_    0.904471 0.218734 0.841816 0.154747
H154  H     H_    0.094411 0.651115 0.259339 0.169060
H155  H     H_    0.761240 0.094701 0.151945 0.168389
H156  H     H_    0.225340 0.905014 0.846565 0.154166
H157  H     H_    0.905453 0.651425 0.260415 0.166811
H158  H     H_    0.094623 0.223214 0.843912 0.157822
H159  H     H_    0.235268 0.904885 0.153199 0.165042
H160  H     H_    0.218063 0.658466 0.596118 0.154654
H161  H     H_    0.644185 0.093877 0.777271 0.191485
H162  H     H_    0.095079 0.221823 0.156736 0.157286
H163  H     H_    0.905484 0.651378 0.739825 0.166584
H164  H     H_    0.595206 0.281978 0.158236 0.152820
H165  H     H_    0.404730 0.702568 0.834298 0.137109
H166  H     H_    0.308321 0.173370 0.403861 0.155342
H167  H     H_    0.843878 0.726211 0.595125 0.162247
H168  H     H_    0.404875 0.280709 0.841949 0.148215
H169  H     H_    0.595608 0.700793 0.166983 0.136523
H170  H     H_    0.698327 0.168478 0.595803 0.133919
H171  H     H_    0.800283 0.331790 0.404355 0.141847
H172  H     H_    0.300034 0.831072 0.404823 0.135236
H173  H     H_    0.595344 0.701813 0.833717 0.138089
H174  H     H_    0.404892 0.281638 0.158339 0.150277
H175  H     H_    0.257138 0.850323 0.589795 0.182636
H176  H     H_    0.691981 0.172626 0.404751 0.133144
H177  H     H_    0.404992 0.701541 0.166222 0.136396
H178  H     H_    0.595116 0.282168 0.841894 0.172263
H179  H     H_    0.843878 0.726007 0.404649 0.160600
H180  H     H_    0.321816 0.184502 0.594204 0.132562
H181  H     H_    0.171253 0.595220 0.694716 0.135209
H182  H     H_    0.595311 0.220207 0.342357 0.155375
H183  H     H_    0.834752 0.405102 0.297305 0.161996
H184  H     H_    0.164851 0.404923 0.295912 0.140047
H185  H     H_    0.828034 0.595201 0.693485 0.138233
H186  H     H_    0.834691 0.404853 0.703344 0.141077
H187  H     H_    0.171600 0.595245 0.306016 0.134908
H188  H     H_    0.827140 0.595364 0.307125 0.134246
H189  H     H_    0.164708 0.404894 0.704655 0.140480
H190  H     H_    0.590004 0.662879 0.910742 0.317506
H191  H     H_    0.410179 0.304737 0.075312 0.322547
H192  H     H_    0.927935 0.709207 0.409479 0.323125
O1    O     O_3   0.750000 0.750000 0.750000 -0.490283
O2    O     O_R   0.280360 0.365810 0.280360 -0.631323
O3    O     O_R   0.780360 0.780360 0.634190 -0.651695
O4    O     O_R   0.219640 0.780360 0.365810 -0.638217
O5    O     O_R   0.780360 0.219640 0.634190 -0.650978
O6    O     O_R   0.780360 0.780360 0.365810 -0.639922
O7    O     O_R   0.219640 0.219640 0.634190 -0.633928
O8    O     O_3   0.552383 0.659063 0.916040 -0.626110
O9    O     O_3   0.447774 0.308223 0.069674 -0.653528
O10   O     O_3   0.934067 0.707794 0.447272 -0.679946
O11   O     O_3   0.389072 0.121786 0.549766 -0.670621
O12   O     O_3   0.448319 0.658422 0.084205 -0.623750
O13   O     O_R   0.719640 0.634190 0.280360 -0.626718
O14   O     O_3   0.556260 0.308819 0.927792 -0.724210
O15   O     O_3   0.273093 0.937306 0.538691 -0.646074
O16   O     O_3   0.638416 0.097163 0.448107 -0.648186
O17   O     O_3   0.552358 0.308566 0.069671 -0.675578
O18   O     O_3   0.447768 0.659954 0.916596 -0.625331
O19   O     O_3   0.643742 0.093613 0.553052 -0.659253
O20   O     O_3   0.320105 0.922939 0.445105 -0.659840
O21   O     O_3   0.447026 0.307407 0.930442 -0.702623
O22   O     O_3   0.552928 0.657724 0.084764 -0.625599
O23   O     O_3   0.373755 0.110795 0.441803 -0.711896
O24   O     O_R   0.280360 0.365810 0.719640 -0.630775
O25   O     O_3   0.934071 0.707953 0.552310 -0.679442
O26   O     O_3   0.905798 0.553371 0.356132 -0.705787
O27   O     O_3   0.085587 0.448192 0.656845 -0.626603
O28   O     O_3   0.913064 0.448061 0.654054 -0.627061
O29   O     O_3   0.092252 0.552441 0.354107 -0.636711
O30   O     O_3   0.085946 0.448257 0.344289 -0.644080
O31   O     O_3   0.907119 0.552353 0.644940 -0.633484
O32   O     O_3   0.091791 0.552384 0.647058 -0.624809
O33   O     O_3   0.910898 0.444629 0.345109 -0.718442
O34   O     O_3   0.051053 0.203486 0.933968 -0.636163
O35   O     O_R   0.280360 0.634190 0.280360 -0.633811
O36   O     O_3   0.947634 0.560719 0.244583 -0.682926
O37   O     O_3   0.644828 0.406915 0.947182 -0.694326
O38   O     O_3   0.346638 0.587313 0.052264 -0.628493
O39   O     O_3   0.947652 0.198796 0.067521 -0.634773
O40   O     O_3   0.051754 0.560636 0.757837 -0.679220
O41   O     O_3   0.355376 0.406860 0.052262 -0.625055
O42   O     O_3   0.657732 0.584961 0.947363 -0.642894
O43   O     O_3   0.051896 0.560646 0.243479 -0.682199
O44   O     O_3   0.946714 0.198736 0.932353 -0.636098
O45   O     O_3   0.658170 0.584598 0.052371 -0.646176
O46   O     O_R   0.719640 0.365810 0.719640 -0.632296
O47   O     O_3   0.355405 0.406723 0.947196 -0.625098
O48   O     O_3   0.947494 0.560795 0.756603 -0.678480
O49   O     O_3   0.052065 0.201561 0.066651 -0.635456
O50   O     O_3   0.346669 0.587398 0.947265 -0.628458
O51   O     O_3   0.646913 0.405752 0.056829 -0.721705
O52   O     O_3   0.127031 0.106528 0.948109 -0.619143
O53   O     O_3   0.862372 0.901630 0.052521 -0.644554
O54   O     O_3   0.244817 0.050387 0.059478 -0.639301
O55   O     O_3   0.569329 0.947326 0.829315 -0.685499
O56   O     O_3   0.122423 0.889092 0.053106 -0.646053
O57   O     O_R   0.280360 0.634190 0.719640 -0.633332
O58   O     O_3   0.859414 0.096061 0.947267 -0.633875
O59   O     O_3   0.224071 0.947964 0.939156 -0.628255
O60   O     O_3   0.749801 0.052754 0.060420 -0.678282
O61   O     O_3   0.859028 0.904162 0.947469 -0.646992
O62   O     O_3   0.131132 0.103365 0.053062 -0.623378
O63   O     O_3   0.749755 0.948389 0.059964 -0.676483
O64   O     O_3   0.229252 0.052005 0.939380 -0.635026
O65   O     O_3   0.862505 0.098296 0.052296 -0.628919
O66   O     O_3   0.119393 0.886484 0.948010 -0.646137
O67   O     O_3   0.569585 0.051869 0.830387 -0.685001
O68   O     O_R   0.719640 0.365810 0.280360 -0.633521
O69   O     O_3   0.241267 0.946044 0.060713 -0.640670
O70   O     O_3   0.320002 0.045862 0.575602 -0.644258
O71   O     O_3   0.731488 0.944939 0.438131 -0.663808
O72   O     O_3   0.052529 0.934780 0.788858 -0.680581
O73   O     O_3   0.947195 0.313970 0.428412 -0.629131
O74   O     O_3   0.820500 0.948530 0.564659 -0.664250
O75   O     O_3   0.248623 0.061944 0.435783 -0.735657
O76   O     O_3   0.947657 0.314029 0.571633 -0.631311
O77   O     O_3   0.052408 0.934734 0.210670 -0.679921
O78   O     O_3   0.745768 0.048552 0.440412 -0.657523
O79   O     O_R   0.634190 0.280360 0.280360 -0.636182
O80   O     O_3   0.357821 0.950091 0.597414 -0.626159
O81   O     O_3   0.947698 0.934767 0.210656 -0.679370
O82   O     O_3   0.052269 0.312470 0.571022 -0.631340
O83   O     O_3   0.215644 0.957859 0.438233 -0.728981
O84   O     O_3   0.817842 0.053065 0.563868 -0.666045
O85   O     O_3   0.051814 0.312852 0.428891 -0.632023
O86   O     O_3   0.947842 0.935129 0.787912 -0.678784
O87   O     O_3   0.552957 0.202728 0.433455 -0.638173
O88   O     O_3   0.448453 0.849135 0.588753 -0.646748
O89   O     O_3   0.146164 0.407869 0.448290 -0.619486
O90   O     O_R   0.365810 0.719640 0.719640 -0.632506
O91   O     O_3   0.560636 0.750052 0.552098 -0.678620
O92   O     O_3   0.450598 0.218104 0.562543 -0.640623
O93   O     O_3   0.551830 0.863593 0.401450 -0.647724
O94   O     O_3   0.846261 0.412166 0.552310 -0.648177
O95   O     O_3   0.190672 0.568792 0.449046 -0.655334
O96   O     O_3   0.552430 0.859908 0.596032 -0.646500
O97   O     O_3   0.448640 0.208670 0.435262 -0.638220
O98   O     O_3   0.191511 0.569577 0.553985 -0.657366
O99   O     O_3   0.846507 0.411928 0.447346 -0.652936
O100  O     O_3   0.447187 0.858532 0.404997 -0.648145
O101  O     O_R   0.634190 0.719640 0.280360 -0.641717
O102  O     O_3   0.554442 0.206658 0.565738 -0.640706
O103  O     O_3   0.560782 0.752021 0.447535 -0.677917
O104  O     O_3   0.146104 0.407363 0.553257 -0.618582
O105  O     O_3   0.417652 0.552119 0.837587 -0.627979
O106  O     O_3   0.586278 0.446711 0.155931 -0.627225
O107  O     O_3   0.417824 0.447210 0.162626 -0.637230
O108  O     O_3   0.582825 0.552184 0.838888 -0.628518
O109  O     O_3   0.582318 0.447392 0.837707 -0.636244
O110  O     O_3   0.417550 0.552007 0.161821 -0.629472
O111  O     O_3   0.584665 0.551500 0.157905 -0.629301
O112  O     O_3   0.250000 0.250000 0.250000 -0.498380
O113  O     O_R   0.365810 0.280360 0.719640 -0.640929
O114  O     O_3   0.418003 0.447310 0.836697 -0.635521
O115  O     O_R   0.634190 0.719640 0.719640 -0.638514
O116  O     O_R   0.365810 0.280360 0.280360 -0.640500
O117  O     O_R   0.634190 0.280360 0.719640 -0.631909
O118  O     O_R   0.365810 0.719640 0.280360 -0.629996
O119  O     O_R   0.280360 0.719640 0.365810 -0.633979
O120  O     O_R   0.719640 0.280360 0.634190 -0.631286
O121  O     O_R   0.719640 0.719640 0.365810 -0.636900
O122  O     O_R   0.280360 0.280360 0.634190 -0.636811
O123  O     O_R   0.719640 0.280360 0.365810 -0.633312
O124  O     O_3   0.750000 0.750000 0.250000 -0.493788
O125  O     O_R   0.280360 0.719640 0.634190 -0.632604
O126  O     O_R   0.280360 0.280360 0.365810 -0.636792
O127  O     O_R   0.719640 0.719640 0.634190 -0.637139
O128  O     O_R   0.219640 0.134190 0.719640 -0.633123
O129  O     O_R   0.780360 0.865810 0.280360 -0.639452
O130  O     O_R   0.719640 0.134190 0.780360 -0.642712
O131  O     O_R   0.280360 0.865810 0.219640 -0.631975
O132  O     O_R   0.780360 0.134190 0.280360 -0.637626
O133  O     O_R   0.219640 0.865810 0.719640 -0.641581
O134  O     O_R   0.280360 0.134190 0.219640 -0.638343
O135  O     O_3   0.250000 0.250000 0.750000 -0.497794
O136  O     O_R   0.719640 0.865810 0.780360 -0.641295
O137  O     O_R   0.219640 0.865810 0.280360 -0.658597
O138  O     O_R   0.780360 0.134190 0.719640 -0.638167
O139  O     O_R   0.719640 0.865810 0.219640 -0.638593
O140  O     O_R   0.280360 0.134190 0.780360 -0.634461
O141  O     O_R   0.780360 0.865810 0.719640 -0.648611
O142  O     O_R   0.219640 0.134190 0.280360 -0.635233
O143  O     O_R   0.280360 0.865810 0.780360 -0.632361
O144  O     O_R   0.719640 0.134190 0.219640 -0.639898
O145  O     O_R   0.134190 0.280360 0.780360 -0.637757
O146  O     O_3   0.250000 0.750000 0.250000 -0.494586
O147  O     O_R   0.865810 0.719640 0.219640 -0.638834
O148  O     O_R   0.134190 0.219640 0.280360 -0.628648
O149  O     O_R   0.865810 0.780360 0.719640 -0.640089
O150  O     O_R   0.134190 0.719640 0.219640 -0.642223
O151  O     O_R   0.865810 0.280360 0.780360 -0.635467
O152  O     O_R   0.134190 0.780360 0.719640 -0.631449
O153  O     O_R   0.865810 0.219640 0.280360 -0.631152
O154  O     O_R   0.865810 0.719640 0.780360 -0.637743
O155  O     O_R   0.134190 0.280360 0.219640 -0.636778
O156  O     O_R   0.865810 0.780360 0.280360 -0.638898
O157  O     O_3   0.750000 0.250000 0.750000 -0.495070
O158  O     O_R   0.134190 0.219640 0.719640 -0.628264
O159  O     O_R   0.865810 0.280360 0.219640 -0.632019
O160  O     O_R   0.134190 0.719640 0.780360 -0.643522
O161  O     O_R   0.865810 0.219640 0.719640 -0.626799
O162  O     O_R   0.134190 0.780360 0.280360 -0.632650
O163  O     O_R   0.280360 0.219640 0.865810 -0.639878
O164  O     O_R   0.719640 0.780360 0.134190 -0.641054
O165  O     O_R   0.219640 0.719640 0.865810 -0.628591
O166  O     O_R   0.780360 0.280360 0.134190 -0.631451
O167  O     O_R   0.719640 0.780360 0.865810 -0.628877
O168  O     O_3   0.250000 0.750000 0.750000 -0.496583
O169  O     O_R   0.280360 0.219640 0.134190 -0.643606
O170  O     O_R   0.780360 0.280360 0.865810 -0.636675
O171  O     O_R   0.219640 0.719640 0.134190 -0.627093
O172  O     O_R   0.719640 0.219640 0.134190 -0.641287
O173  O     O_R   0.280360 0.780360 0.865810 -0.637452
O174  O     O_R   0.780360 0.719640 0.134190 -0.627755
O175  O     O_R   0.219640 0.280360 0.865810 -0.632791
O176  O     O_R   0.280360 0.780360 0.134190 -0.640592
O177  O     O_R   0.719640 0.219640 0.865810 -0.622663
O178  O     O_R   0.219640 0.280360 0.134190 -0.631409
O179  O     O_3   0.750000 0.250000 0.250000 -0.497425
O180  O     O_R   0.780360 0.719640 0.865810 -0.629044
O181  O     O_R   0.219640 0.634190 0.219640 -0.640007
O182  O     O_R   0.780360 0.365810 0.780360 -0.630014
O183  O     O_R   0.219640 0.634190 0.780360 -0.639929
O184  O     O_R   0.780360 0.365810 0.219640 -0.625990
O185  O     O_R   0.780360 0.634190 0.780360 -0.642871
O186  O     O_R   0.219640 0.365810 0.219640 -0.630024
O187  O     O_R   0.780360 0.634190 0.219640 -0.642301
O188  O     O_R   0.219640 0.365810 0.780360 -0.630123
O189  O     O_R   0.634190 0.780360 0.780360 -0.647307
O190  O     O_R   0.719640 0.634190 0.719640 -0.626560
O191  O     O_R   0.365810 0.219640 0.219640 -0.628626
O192  O     O_R   0.634190 0.219640 0.780360 -0.651497
O193  O     O_R   0.365810 0.780360 0.219640 -0.629366
O194  O     O_R   0.634190 0.219640 0.219640 -0.631531
O195  O     O_R   0.365810 0.780360 0.780360 -0.626443
O196  O     O_R   0.634190 0.780360 0.219640 -0.626767
O197  O     O_R   0.365810 0.219640 0.780360 -0.628028
O198  O     O_R   0.780360 0.219640 0.365810 -0.640718
O199  O     O_R   0.219640 0.780360 0.634190 -0.638480
O200  O     O_R   0.219640 0.219640 0.365810 -0.628282
Zn1   Zn    Zn3+2 0.706630 0.793370 0.793370 0.961034
Zn2   Zn    Zn3+2 0.293370 0.793370 0.793370 0.970943
Zn3   Zn    Zn3+2 0.793370 0.206630 0.706630 0.960676
Zn4   Zn    Zn3+2 0.206630 0.793370 0.293370 0.955845
Zn5   Zn    Zn3+2 0.293370 0.206630 0.793370 0.968847
Zn6   Zn    Zn3+2 0.706630 0.793370 0.206630 0.964915
Zn7   Zn    Zn3+2 0.206630 0.206630 0.293370 0.980900
Zn8   Zn    Zn3+2 0.793370 0.793370 0.706630 0.948699
Zn9   Zn    Zn3+2 0.793370 0.706630 0.206630 0.963759
Zn10  Zn    Zn3+2 0.206630 0.293370 0.793370 0.968975
Zn11  Zn    Zn3+2 0.793370 0.293370 0.793370 0.974945
Zn12  Zn    Zn3+2 0.293370 0.206630 0.206630 0.966099
Zn13  Zn    Zn3+2 0.206630 0.706630 0.206630 0.963288
Zn14  Zn    Zn3+2 0.206630 0.293370 0.206630 0.969611
Zn15  Zn    Zn3+2 0.793370 0.706630 0.793370 0.968191
Zn16  Zn    Zn3+2 0.206630 0.706630 0.793370 0.961687
Zn17  Zn    Zn3+2 0.793370 0.293370 0.206630 0.980697
Zn18  Zn    Zn3+2 0.706630 0.293370 0.293370 0.968977
Zn19  Zn    Zn3+2 0.293370 0.706630 0.706630 0.971236
Zn20  Zn    Zn3+2 0.293370 0.293370 0.293370 0.966502
Zn21  Zn    Zn3+2 0.706630 0.706630 0.706630 0.964602
Zn22  Zn    Zn3+2 0.293370 0.293370 0.706630 0.964133
Zn23  Zn    Zn3+2 0.793370 0.793370 0.293370 0.959026
Zn24  Zn    Zn3+2 0.706630 0.706630 0.293370 0.965451
Zn25  Zn    Zn3+2 0.706630 0.293370 0.706630 0.965313
Zn26  Zn    Zn3+2 0.293370 0.706630 0.293370 0.972315
Zn27  Zn    Zn3+2 0.206630 0.206630 0.706630 0.973268
Zn28  Zn    Zn3+2 0.293370 0.793370 0.206630 0.967350
Zn29  Zn    Zn3+2 0.706630 0.206630 0.793370 0.963194
Zn30  Zn    Zn3+2 0.206630 0.793370 0.706630 0.963721
Zn31  Zn    Zn3+2 0.793370 0.206630 0.293370 0.967796
Zn32  Zn    Zn3+2 0.706630 0.206630 0.206630 0.962850

loop_
_geom_bond_atom_site_label_1
_geom_bond_atom_site_label_2
_ccdc_geom_bond_type
C91   C368  A    
C258  C291  A    
C174  C333  A    
C343  H35   S    
C135  O199  A    
C82   C94   A    
C200  C359  A    
C239  C249  A    
C11   H150  S    
C225  C237  A    
C333  H127  S    
H52   O61   S    
H31   O40   S    
C122  O43   S    
C123  O60   S    
C161  C346  A    
C47   C261  A    
C367  H122  S    
C100  C110  A    
C21   H159  S    
C364  H119  S    
C46   C274  S    
O151  Zn11  S    
H44   O53   S    
C55   O104  S    
C176  C283  A    
C114  O83   S    
C337  H171  S    
C18   C125  A    
C78   C356  A    
C341  O182  A    
C81   C95   A    
H70   O78   S    
H53   O62   S    
C138  C145  A    
C191  C369  A    
C283  C363  S    
C359  H114  S    
C201  C309  S    
C91   O52   S    
O1    Zn21  S    
C73   C74   A    
C14   H152  S    
O135  Zn22  S    
C16   C122  A    
C219  C376  A    
C135  O125  A    
H83   O92   S    
C196  C364  A    
C318  O152  A    
C190  C310  S    
C236  C316  A    
C134  O23   S    
O124  Zn24  S    
C210  C214  A    
O154  Zn15  S    
C7    H145  S    
C51   H189  S    
C298  C321  S    
C191  C198  A    
C198  C305  A    
C77   C355  A    
C374  O194  A    
C152  O30   S    
C37   H175  S    
C150  C158  A    
C171  C277  A    
C97   C105  A    
C2    O195  A    
O157  Zn29  S    
C97   C375  A    
H48   O56   S    
C35   C275  S    
O142  Zn7   S    
C103  O80   S    
C16   H154  S    
O117  Zn25  S    
O90   Zn19  S    
C215  C380  A    
C290  C297  S    
O146  Zn28  S    
C185  C195  A    
C51   C256  A    
C208  C294  A    
C23   C225  A    
C203  C213  A    
C175  C332  A    
C4    C208  A    
C261  C285  A    
C178  C285  A    
C21   C227  A    
C96   O47   S    
C207  C217  A    
C336  H160  S    
C217  C378  A    
C163  C270  A    
C18   H156  S    
C32   C139  A    
H21   O30   S    
C211  C375  A    
C246  C316  S    
C190  O138  A    
C235  O142  A    
C47   C153  A    
O148  Zn7   S    
C38   C245  A    
C168  O140  A    
C23   C130  A    
C158  O27   S    
C292  C312  S    
O139  Zn6   S    
C319  O24   A    
H102  O110  S    
H37   O45   S    
C124  O198  A    
O129  Zn23  S    
C23   H162  S    
C16   C232  A    
C29   H167  S    
C255  C269  A    
C233  C292  A    
C159  C339  A    
H16   O25   S    
C69   O91   S    
C362  H118  S    
C348  H90   S    
H51   O60   S    
C61   O87   S    
C183  C289  A    
C178  C182  A    
C187  C294  A    
C312  O161  A    
C20   C127  A    
O3    Zn8   S    
C101  C282  S    
C138  O22   S    
C39   H177  S    
C179  O139  A    
O200  Zn7   S    
C256  C264  A    
C244  C252  A    
C28   C134  A    
H27   O36   S    
C307  C328  S    
C165  C342  A    
C67   C345  A    
C199  C306  A    
C247  C250  A    
C176  C184  A    
C22   H161  S    
O133  Zn30  S    
C48   C260  A    
C224  O143  A    
C345  H57   S    
C19   C126  A    
C40   C147  A    
C9    C116  A    
C295  C323  S    
C49   C155  A    
C104  C381  A    
C79   C272  S    
H71   O80   S    
C37   C247  A    
O5    Zn3   S    
C124  O123  A    
C68   C280  S    
C83   O73   S    
O191  Zn12  S    
C243  C253  A    
C284  C352  S    
C98   O75   S    
C168  C311  S    
C50   H188  S    
H95   O104  S    
O168  Zn16  S    
C177  C354  A    
C88   C366  A    
O179  Zn18  S    
C308  C327  S    
O164  Zn6   S    
C128  O69   S    
C2    C265  S    
C53   O97   S    
C71   C76   A    
C195  C356  A    
C56   C66   A    
C113  O122  A    
H22   O31   S    
C64   C342  A    
O199  Zn30  S    
O126  Zn20  S    
O157  Zn11  S    
H78   O87   S    
C279  O155  A    
O4    Zn4   S    
C230  C313  A    
C17   C221  A    
C154  O28   S    
H72   O81   S    
O132  Zn31  S    
O194  Zn32  S    
H81   O89   S    
H87   O96   S    
C140  O20   S    
C52   C329  A    
C75   O108  S    
H192  O10   S    
C146  O126  A    
C102  C109  A    
C241  C281  A    
O146  Zn26  S    
C63   O94   S    
C166  C340  A    
C181  C350  A    
C157  O3    A    
C242  C282  A    
C104  C107  A    
H17   O26   S    
C320  O159  A    
C83   C93   A    
C223  O13   A    
C145  O12   S    
C4    C109  A    
C34   C141  A    
C160  C266  A    
C165  C272  A    
C240  C248  A    
C306  C320  S    
C6    C111  A    
C93   O85   S    
H56   O65   S    
C140  C143  A    
C54   O103  S    
C18   C220  A    
C44   C263  A    
C151  C156  A    
C301  O150  A    
C220  C315  A    
H55   O64   S    
C187  C202  A    
H91   O99   S    
H6    O15   S    
C209  C215  A    
C369  H124  S    
C383  H139  S    
C229  C300  A    
O157  Zn3   S    
C72   C349  A    
C73   C350  A    
C71   O114  S    
C332  H116  S    
C13   O196  A    
C27   H165  S    
C214  C314  A    
C65   O92   S    
C167  C331  A    
H64   O73   S    
C68   O193  A    
O113  Zn22  S    
C5    C110  A    
C188  C200  A    
O179  Zn31  S    
C69   C346  A    
H74   O83   S    
C125  O59   S    
C60   O99   S    
C226  C236  A    
O149  Zn8   S    
C139  C144  A    
C73   O110  S    
C42   C149  A    
C186  C293  A    
C101  O6    A    
C36   C142  A    
O130  Zn29  S    
C139  O19   S    
C232  C293  A    
C53   C61   A    
C43   H181  S    
C303  C325  S    
C79   O4    A    
C10   H148  S    
C77   O106  S    
C116  O63   S    
C221  C230  A    
H20   O29   S    
C290  O154  A    
C325  O180  A    
C330  O35   A    
C87   C365  A    
C379  H134  S    
O138  Zn3   S    
O197  Zn5   S    
C213  C298  A    
C3    H141  S    
C328  O171  A    
C289  C319  S    
C118  O39   S    
C173  C280  A    
C246  O136  A    
C57   C278  S    
C189  C199  A    
C36   C239  A    
H103  O111  S    
C148  O10   S    
C70   C77   A    
O168  Zn2   S    
C224  C315  S    
C112  O2    A    
C33   C250  A    
C351  H107  S    
C72   C75   A    
C74   C351  A    
C256  C289  A    
O123  Zn18  S    
C100  C378  A    
C301  O162  A    
C192  C298  A    
C86   C364  A    
C227  C309  A    
O146  Zn13  S    
O171  Zn13  S    
C46   O116  A    
C323  O165  A    
C180  C351  A    
H80   O88   S    
C119  O55   S    
C234  C317  A    
C182  C349  A    
C215  C315  A    
H19   O28   S    
C50   C258  A    
C134  C149  A    
C150  O32   S    
O158  Zn27  S    
C268  O156  A    
O180  Zn15  S    
C126  O36   S    
O170  Zn11  S    
C9    C230  A    
H77   O86   S    
H45   O54   S    
C102  O37   S    
H84   O93   S    
C157  O127  A    
H54   O63   S    
C266  C374  S    
O112  Zn14  S    
C327  O170  A    
C12   C119  A    
H3    O11   S    
C338  H182  S    
C58   C65   A    
O157  Zn25  S    
C193  C196  A    
C99   C111  A    
H63   O72   S    
C29   C136  A    
H47   O55   S    
C384  H140  S    
H190  O8    S    
C25   C222  A    
C358  H113  S    
C136  C148  A    
C72   O109  S    
C21   C128  A    
O2    Zn20  S    
C133  O18   S    
C43   C150  A    
C194  C357  A    
C228  C233  A    
C260  C288  A    
C170  C337  A    
C320  O153  A    
C25   H163  S    
C352  O57   A    
C80   O81   S    
C262  C286  A    
C164  C271  A    
C107  C384  A    
C166  C170  A    
C61   C338  A    
C222  C297  A    
C224  O133  A    
C55   C333  A    
C164  C172  A    
C279  O148  A    
O127  Zn21  S    
O13   Zn24  S    
C293  C301  S    
C163  C173  A    
C34   C240  A    
C1    O190  A    
H14   O22   S    
C35   O189  A    
C372  H128  S    
C349  H101  S    
H100  O109  S    
C330  O181  A    
C48   C154  A    
C205  C219  A    
O79   Zn18  S    
C305  C318  S    
C324  O172  A    
C220  C231  A    
C171  C336  A    
O147  Zn9   S    
C201  O137  A    
H60   O69   S    
O46   Zn25  S    
C204  C303  A    
O119  Zn26  S    
C304  C326  S    
C260  C261  A    
C82   C359  A    
C328  O176  A    
C48   H186  S    
C22   C226  A    
C106  O41   S    
C318  O160  A    
H43   O52   S    
C225  C296  A    
C105  O42   S    
C56   O100  S    
O165  Zn16  S    
C20   C228  A    
C240  C275  A    
C207  C295  A    
O112  Zn20  S    
C19   C229  A    
C268  C300  S    
O195  Zn2   S    
C52   C62   A    
C322  O174  A    
C66   C344  A    
C49   C259  A    
C44   H183  S    
H59   O67   S    
C53   C331  A    
C41   C148  A    
H26   O34   S    
O128  Zn27  S    
C381  H136  S    
H25   O33   S    
C119  C129  A    
C323  O173  A    
C331  H105  S    
H32   O41   S    
C66   O93   S    
O168  Zn19  S    
C4    H142  S    
C117  C131  A    
C130  O49   S    
H104  O114  S    
C6    C206  A    
C83   C360  A    
C78   O82   S    
C257  O145  A    
C363  O184  A    
O135  Zn10  S    
H15   O23   S    
O145  Zn10  S    
C218  C316  A    
O150  Zn13  S    
C113  C281  S    
C90   O5    A    
C32   H170  S    
O198  Zn31  S    
C84   C92   A    
C129  O67   S    
C11   C118  A    
C76   C354  A    
O161  Zn3   S    
C143  O15   S    
H66   O75   S    
O112  Zn7   S    
C42   H180  S    
C86   O61   S    
C19   H157  S    
C3    C209  A    
C235  O134  A    
O68   Zn18  S    
C197  C362  A    
C162  C269  A    
C165  C171  A    
C160  C338  A    
H86   O95   S    
C28   C255  A    
C14   C234  A    
C7    C205  A    
O1    Zn1   S    
C235  C317  S    
C1    C285  S    
C84   C361  A    
C162  C345  A    
C26   C132  A    
C52   O96   S    
C193  C299  A    
C354  H109  S    
C20   H158  S    
C32   C251  A    
C94   O66   S    
O135  Zn27  S    
C58   C335  A    
C212  O132  A    
C245  C276  A    
C54   C332  A    
H49   O58   S    
O186  Zn14  S    
O101  Zn24  S    
O182  Zn11  S    
C116  C123  A    
O121  Zn24  S    
C121  C127  A    
C203  C383  A    
O177  Zn29  S    
O192  Zn29  S    
C113  O7    A    
C8    C231  A    
C1    O185  A    
C257  C302  S    
C15   H153  S    
H18   O27   S    
C195  C302  A    
C169  C329  A    
C102  C379  A    
C142  O9    S    
C344  H46   S    
C356  H111  S    
O183  Zn16  S    
O1    Zn8   S    
O153  Zn31  S    
H99   O108  S    
C226  C310  A    
H38   O47   S    
O179  Zn17  S    
C355  H110  S    
C237  C306  A    
O163  Zn5   S    
C84   O72   S    
C365  H120  S    
C363  O68   A    
C24   O197  A    
C147  O14   S    
O146  Zn4   S    
C94   C371  A    
C241  C255  A    
C175  C282  A    
C82   O56   S    
O116  Zn20  S    
O35   Zn26  S    
C204  C382  A    
C70   O111  S    
C89   C367  A    
C38   H176  S    
C80   C357  A    
C221  C314  A    
O174  Zn9   S    
C245  C251  A    
O141  Zn8   S    
C170  C276  A    
C30   C137  A    
C326  O178  A    
C357  H112  S    
C85   O62   S    
C101  O121  A    
H34   O43   S    
C167  C274  A    
O184  Zn17  S    
C151  O33   S    
C186  C194  A    
C216  C308  A    
C93   C370  A    
C174  C281  A    
C366  H121  S    
C35   O115  A    
O176  Zn28  S    
C254  C267  A    
O190  Zn21  S    
C42   C241  A    
C192  C368  A    
C17   H155  S    
C251  C273  A    
H89   O98   S    
C373  H129  S    
C90   O120  A    
C322  O164  A    
C321  O175  A    
C287  C330  S    
H191  O9    S    
C380  H135  S    
C177  C183  A    
H28   O37   S    
C184  C347  A    
C115  O64   S    
H98   O107  S    
O173  Zn2   S    
C27   C133  A    
H30   O39   S    
C247  C277  A    
C62   C339  A    
C118  C130  A    
C342  H24   S    
H75   O84   S    
C47   H185  S    
C97   O45   S    
H10   O19   S    
C177  C284  A    
C70   C347  A    
C12   H151  S    
O124  Zn23  S    
H73   O82   S    
C202  C358  A    
C100  O38   S    
C30   H168  S    
C34   H173  S    
C29   C254  A    
C31   C138  A    
C112  O186  A    
H4    O12   S    
C361  H117  S    
C74   O107  S    
H58   O66   S    
C216  C379  A    
C231  C311  A    
C194  C300  A    
C197  C304  A    
C352  O183  A    
C14   C120  A    
C325  O167  A    
C22   C129  A    
C228  C302  A    
C3    C108  A    
O122  Zn22  S    
O118  Zn26  S    
C11   C237  A    
O178  Zn14  S    
H8    O17   S    
C246  O141  A    
C180  C181  A    
C368  H123  S    
C78   C88   A    
C227  C234  A    
C212  O144  A    
C312  O151  A    
C136  O25   S    
C31   H169  S    
O124  Zn6   S    
C135  C277  S    
C33   H172  S    
C38   C144  A    
C137  C147  A    
C146  C269  S    
C350  H106  S    
C86   C89   A    
C168  O128  A    
H61   O70   S    
C347  H79   S    
C120  C128  A    
C378  H133  S    
C30   C253  A    
C229  C232  A    
C360  H115  S    
C163  C344  A    
C81   O58   S    
C51   C158  A    
C133  C141  A    
C185  C366  A    
C49   H187  S    
C326  O169  A    
C99   C377  A    
C45   C152  A    
H82   O91   S    
C319  O188  A    
O172  Zn32  S    
C27   C248  A    
C252  C270  A    
C59   C336  A    
C54   C69   A    
C253  C271  A    
C299  C322  S    
O125  Zn19  S    
C204  C211  A    
H39   O48   S    
C79   O119  A    
C31   C252  A    
C65   C343  A    
C248  C265  A    
C180  C286  A    
C58   O102  S    
C181  C287  A    
C40   C243  A    
C190  O130  A    
C377  H132  S    
O168  Zn30  S    
H88   O97   S    
O143  Zn2   S    
C346  H68   S    
O6    Zn23  S    
C10   C117  A    
C176  C355  A    
C187  C372  A    
C340  H13   S    
C111  O84   S    
O188  Zn10  S    
C106  C383  A    
O144  Zn32  S    
C172  C278  A    
H33   O42   S    
C279  C296  S    
O162  Zn4   S    
C257  O158  A    
O159  Zn17  S    
O160  Zn16  S    
H94   O103  S    
C268  O147  A    
C189  C370  A    
C198  C361  A    
C223  C291  S    
H11   O20   S    
C60   C337  A    
H42   O51   S    
C212  C314  S    
C258  C263  A    
C169  C275  A    
C250  C272  A    
C95   C372  A    
C259  C262  A    
C210  C384  A    
H92   O100  S    
C203  C304  A    
C85   C91   A    
C206  C218  A    
O166  Zn17  S    
C68   O118  A    
C59   C64   A    
C62   O88   S    
C60   C63   A    
C179  C313  S    
C334  H138  S    
O134  Zn12  S    
C26   C249  A    
C161  C267  A    
H29   O38   S    
C80   C87   A    
C161  C175  A    
C40   H178  S    
C191  C297  A    
C5    C207  A    
O124  Zn9   S    
C103  C380  A    
C33   C140  A    
C85   C362  A    
O7    Zn27  S    
C26   H164  S    
C244  C280  A    
C263  C283  A    
C160  C167  A    
C149  O11   S    
C188  C371  A    
C117  O40   S    
C8    C115  A    
H5    O14   S    
C109  O51   S    
C222  C238  A    
O131  Zn28  S    
C17   C123  A    
C105  C382  A    
C205  C309  A    
C45   H184  S    
C50   C156  A    
H7    O16   S    
C144  O16   S    
C290  O149  A    
H62   O71   S    
O1    Zn15  S    
C107  O71   S    
C199  C360  A    
C152  C155  A    
C382  H137  S    
C98   C376  A    
C103  C108  A    
O137  Zn4   S    
C28   H166  S    
H36   O44   S    
C186  C365  A    
H9    O18   S    
C63   C340  A    
C81   C358  A    
C189  C296  A    
C98   C114  A    
C217  C307  A    
C208  C216  A    
H67   O76   S    
C159  C169  A    
C39   C145  A    
C185  C292  A    
C112  C286  S    
H12   O21   S    
H65   O74   S    
O112  Zn12  S    
C243  C278  A    
C218  C377  A    
C196  C303  A    
C9    H147  S    
H93   O102  S    
C153  O31   S    
H96   O105  S    
C88   O76   S    
C132  C142  A    
C57   O117  A    
C157  C267  S    
C329  H1    S    
C155  O29   S    
C44   C151  A    
H85   O94   S    
H97   O106  S    
C24   C271  S    
C202  C308  A    
H23   O32   S    
C43   C264  A    
C132  O17   S    
O155  Zn14  S    
C193  C367  A    
C238  C305  A    
O189  Zn1   S    
O179  Zn32  S    
C192  C197  A    
O169  Zn12  S    
C6    H144  S    
O115  Zn21  S    
C8    H146  S    
O185  Zn15  S    
C214  C381  A    
C249  C266  A    
C122  C126  A    
C127  O34   S    
C259  C287  A    
C166  C273  A    
C108  O70   S    
C173  C334  A    
C141  O8    S    
O24   Zn22  S    
H69   O77   S    
C219  C317  A    
C339  H2    S    
C13   O101  A    
C184  C291  A    
C335  H149  S    
C15   C233  A    
C99   O74   S    
C110  O50   S    
C87   O77   S    
C146  O200  A    
C120  O54   S    
H76   O85   S    
C37   C143  A    
O156  Zn23  S    
O136  Zn1   S    
C294  C324  S    
C10   C238  A    
O152  Zn30  S    
C92   O86   S    
C242  C254  A    
C104  O78   S    
C239  C274  A    
C209  C311  A    
C25   C131  A    
C46   O191  A    
C75   C353  A    
C56   C334  A    
C321  O163  A    
C95   O65   S    
C39   C244  A    
C179  O129  A    
C223  O187  A    
C12   C236  A    
C370  H125  S    
C96   C106  A    
C156  O26   S    
C15   C121  A    
C131  O48   S    
C71   C348  A    
O187  Zn9   S    
C89   O53   S    
C211  C299  A    
C55   C67   A    
C183  C348  A    
C162  C174  A    
C159  C265  A    
C376  H131  S    
C92   C369  A    
H41   O50   S    
H40   O49   S    
C115  C125  A    
O135  Zn5   S    
C41   C242  A    
C67   O89   S    
C121  O44   S    
C57   O192  A    
O167  Zn1   S    
C164  C343  A    
C59   O98   S    
C13   C270  S    
O140  Zn5   S    
C213  C373  A    
C124  C276  S    
C182  C288  A    
C45   C262  A    
C371  H126  S    
C264  C284  A    
C288  C341  S    
C64   O95   S    
C324  O166  A    
C90   C273  S    
C201  O131  A    
O196  Zn6   S    
C76   O105  S    
C5    H143  S    
C188  C295  A    
C210  C313  A    
C341  O46   A    
C96   C373  A    
C375  H130  S    
C36   H174  S    
C327  O177  A    
C7    C114  A    
C374  O79   A    
C2    O90   A    
O175  Zn10  S    
C24   O113  A    
C178  C353  A    
O181  Zn13  S    
O57   Zn19  S    
C200  C307  A    
C137  O21   S    
C153  C154  A    
O120  Zn25  S    
C41   H179  S    
C172  C335  A    
H50   O59   S    
O193  Zn28  S    
C206  C310  A    
C353  H108  S    
