data_mof_unit_7247.cif
_audit_creation_date              2012-12-10T20:28:47-0500
_audit_creation_method            fapswitch 2.2
_symmetry_space_group_name_H-M    P1
_symmetry_Int_Tables_number       1
_space_group_crystal_system       triclinic
_cell_length_a                    10.629096
_cell_length_b                    10.652525
_cell_length_c                    9.868656
_cell_angle_alpha                 90.021012
_cell_angle_beta                  89.920541
_cell_angle_gamma                 89.880848
_cell_volume                      1117.3918925

loop_
_atom_site_label
_atom_site_type_symbol
_atom_type_description
_atom_site_fract_x
_atom_site_fract_y
_atom_site_fract_z
_atom_type_partial_charge
C1    C     C_R   0.505203 0.259919 0.500059 0.886311
C2    C     C_R   0.065460 0.612803 0.563055 0.096011
C3    C     C_R   0.128203 0.511569 0.500030 -0.101409
C4    C     C_R   0.064535 0.415562 0.434014 -0.226097
C5    C     C_R   0.936012 0.415705 0.433578 -0.213324
C6    C     C_R   0.871649 0.511727 0.499484 -0.090459
C7    C     C_R   0.532796 0.064011 0.623189 0.142045
C8    C     C_R   0.529044 0.128734 0.500735 -0.103970
C9    C     C_R   0.552889 0.064789 0.379124 -0.230174
C10   C     C_R   0.552070 0.934944 0.378969 -0.226744
C11   C     C_R   0.528529 0.871216 0.500761 -0.100077
C12   C     C_R   0.260477 0.503273 0.500114 0.877358
C13   C     C_R   0.532960 0.935990 0.623314 0.118751
C14   C     C_3   0.449131 0.929353 0.744952 -0.484238
C15   C     C_3   0.448661 0.071677 0.744387 -0.493748
C16   C     C_R   0.435116 0.410304 0.071360 0.203583
C17   C     C_R   0.573005 0.581234 0.071868 -0.139368
C18   C     C_R   0.573163 0.581122 0.927911 -0.125679
C19   C     C_R   0.434306 0.410979 0.928600 0.167743
C20   C     C_3   0.295825 0.388919 0.921639 -0.537523
C21   C     C_3   0.296222 0.388187 0.076117 -0.008480
C22   C     C_R   0.504856 0.740105 0.500057 0.850947
C23   C     C_R   0.739486 0.503247 0.499894 0.859583
C24   C     C_R   0.130277 0.714775 0.622423 -0.194320
C25   C     C_R   0.064244 0.813968 0.681655 -0.141714
C26   C     C_R   0.933321 0.814001 0.681469 -0.135588
C27   C     C_R   0.868010 0.714883 0.622065 -0.190655
C28   C     C_R   0.933601 0.612872 0.562820 0.097090
H1    H     H_    0.114702 0.339062 0.385411 0.154009
H2    H     H_    0.498002 0.888610 0.834282 0.201663
H3    H     H_    0.354951 0.112768 0.720745 0.198510
H4    H     H_    0.497148 0.113277 0.833403 0.205566
H5    H     H_    0.629987 0.648560 0.126111 0.148312
H6    H     H_    0.630324 0.648307 0.873524 0.144531
H7    H     H_    0.244291 0.470675 0.878789 0.204627
H8    H     H_    0.272651 0.298135 0.872714 0.206316
H9    H     H_    0.243912 0.468497 0.121444 0.148918
H10   H     H_    0.231772 0.719753 0.621791 0.142973
H11   H     H_    0.114720 0.891625 0.726658 0.129691
H12   H     H_    0.882158 0.891609 0.726297 0.134038
H13   H     H_    0.766464 0.720130 0.621427 0.141546
H14   H     H_    0.886389 0.339375 0.384411 0.149664
H15   H     H_    0.562529 0.113909 0.283717 0.170433
H16   H     H_    0.560238 0.885859 0.283177 0.167598
H17   H     H_    0.355660 0.888110 0.722293 0.198151
N1    N     N_R   0.499160 0.499140 0.142800 -0.125803
N2    N     N_R   0.499160 0.499180 0.857150 -0.102188
O1    O     O_R   0.500020 0.316790 0.614690 -0.612801
O2    O     O_R   0.500000 0.316760 0.385350 -0.608513
O3    O     O_R   0.316770 0.500020 0.614690 -0.621837
O4    O     O_R   0.316760 0.499980 0.385350 -0.612199
O5    O     O_R   0.500000 0.683240 0.614650 -0.631574
O6    O     O_R   0.499980 0.683210 0.385310 -0.623105
O7    O     O_R   0.683240 0.500020 0.614650 -0.620194
O8    O     O_R   0.683230 0.499980 0.385310 -0.617810
Zn1   Zn    Zn3+2 0.500010 0.500020 0.653130 0.937392
Zn2   Zn    Zn3+2 0.499990 0.499980 0.346870 0.948120
N3    N     N_2   0.261086 0.268688 0.137683 -0.273033
H18   H     H_    0.165127 0.257452 0.146715 0.223017
C29   C     C_3   0.325694 0.153855 0.099105 -0.757885
H19   H     H_    0.307125 0.080683 0.176606 0.238423
H20   H     H_    0.428887 0.167694 0.093256 0.231347
H21   H     H_    0.290161 0.119100 0.000352 0.226242

loop_
_geom_bond_atom_site_label_1
_geom_bond_atom_site_label_2
_ccdc_geom_bond_type
C12   O3    A    
C5    H14   S    
C1    O1    A    
C23   O8    A    
C16   C21   S    
O4    Zn2   S    
C22   O6    A    
C1    C8    S    
C11   C13   A    
C9    C10   A    
C27   H13   S    
C11   C22   S    
C24   H10   S    
C4    H1    S    
C7    C13   A    
C26   H12   S    
C18   N2    A    
C7    C15   S    
C17   C18   A    
N3    H18   S    
C24   C25   A    
C21   H9    S    
C21   N3    S    
C13   C14   S    
C17   N1    A    
C15   H3    S    
C4    C5    A    
C18   H6    S    
C25   H11   S    
C26   C27   A    
C17   H5    S    
C14   H2    S    
C29   H21   S    
C6    C23   S    
C22   O5    A    
C2    C3    A    
C14   H17   S    
O7    Zn1   S    
O8    Zn2   S    
N1    Zn2   S    
C2    C24   A    
C5    C6    A    
C19   N2    A    
C9    H15   S    
C10   C11   A    
C16   C19   A    
C10   H16   S    
C3    C4    A    
C20   H8    S    
O3    Zn1   S    
C7    C8    A    
C12   O4    A    
O2    Zn2   S    
C20   C21   S    
O5    Zn1   S    
C23   O7    A    
C29   H20   S    
C1    O2    A    
C16   N1    A    
C27   C28   A    
O1    Zn1   S    
O6    Zn2   S    
C14   C15   S    
N2    Zn1   S    
C2    C28   A    
C3    C12   S    
C25   C26   A    
C20   H7    S    
N3    C29   S    
C29   H19   S    
C6    C28   A    
C19   C20   S    
C8    C9    A    
C15   H4    S    
