data_mof_unit_14746.cif
_audit_creation_date              2012-12-10T17:48:43-0500
_audit_creation_method            fapswitch 2.2
_symmetry_space_group_name_H-M    P1
_symmetry_Int_Tables_number       1
_space_group_crystal_system       triclinic
_cell_length_a                    15.73067
_cell_length_b                    10.629795
_cell_length_c                    9.932947
_cell_angle_alpha                 89.926527
_cell_angle_beta                  89.937691
_cell_angle_gamma                 91.643277
_cell_volume                      1660.24029877

loop_
_atom_site_label
_atom_site_type_symbol
_atom_type_description
_atom_site_fract_x
_atom_site_fract_y
_atom_site_fract_z
_atom_type_partial_charge
C1    C     C_R   0.502123 0.260763 0.500099 0.846863
C2    C     C_3   0.948431 0.440279 0.637361 -0.430308
C3    C     C_3   0.917160 0.495240 0.502298 0.341119
C4    C     C_3   0.953869 0.630977 0.485566 -0.400311
C5    C     C_3   0.051887 0.630105 0.485562 -0.426368
C6    C     C_1   0.825739 0.496701 0.500987 -0.114356
C7    C     C_1   0.174139 0.495730 0.501699 -0.113696
C8    C     C_1   0.249505 0.497626 0.500601 -0.177243
C9    C     C_R   0.645196 0.137141 0.622389 -0.174899
C10   C     C_R   0.712257 0.074245 0.681455 -0.136962
C11   C     C_R   0.712335 0.943339 0.681273 -0.143176
C12   C     C_R   0.338444 0.499565 0.500146 0.892686
C13   C     C_R   0.645387 0.874868 0.621933 -0.191209
C14   C     C_R   0.576403 0.937214 0.562767 0.095547
C15   C     C_R   0.576285 0.069117 0.563023 0.098112
C16   C     C_R   0.507899 0.128681 0.499896 -0.084912
C17   C     C_R   0.443350 0.061924 0.433326 -0.214902
C18   C     C_R   0.443482 0.933378 0.433077 -0.200005
C19   C     C_R   0.508155 0.871982 0.499396 -0.097555
C20   C     C_R   0.388728 0.334799 0.140180 -0.147419
C21   C     C_R   0.333935 0.253381 0.070277 -0.202089
C22   C     C_R   0.333895 0.253418 0.930922 -0.182465
C23   C     C_R   0.502412 0.739401 0.499878 0.865394
C24   C     C_R   0.388718 0.334781 0.860589 -0.142256
C25   C     C_R   0.445233 0.418547 0.927947 0.163641
C26   C     C_R   0.445241 0.418584 0.072421 0.169409
C27   C     C_R   0.552386 0.577942 0.071215 -0.110160
C28   C     C_R   0.552368 0.577913 0.928238 -0.109793
C29   C     C_R   0.661560 0.500149 0.499917 0.879476
C30   C     C_3   0.047102 0.441145 0.639847 -0.116794
C31   C     C_3   0.047243 0.413059 0.384863 -0.395667
C32   C     C_3   0.949137 0.412954 0.385234 -0.394620
C33   C     C_1   0.750438 0.498389 0.500124 -0.189668
C34   C     C_3   0.082452 0.493778 0.503394 0.308821
H1    H     H_    0.920699 0.343384 0.651041 0.170234
H2    H     H_    0.069679 0.504129 0.722681 0.124098
H3    H     H_    0.925073 0.497709 0.722726 0.155850
H4    H     H_    0.931263 0.672419 0.389492 0.173182
H5    H     H_    0.391880 0.109617 0.383947 0.138053
H6    H     H_    0.648723 0.238799 0.621999 0.151990
H7    H     H_    0.764716 0.127288 0.726300 0.133607
H8    H     H_    0.764842 0.894680 0.726009 0.131026
H9    H     H_    0.649054 0.773463 0.621108 0.140624
H10   H     H_    0.392087 0.881366 0.383597 0.151920
H11   H     H_    0.595217 0.641734 0.124579 0.147487
H12   H     H_    0.384786 0.329346 0.246943 0.197661
H13   H     H_    0.291172 0.189941 0.124776 0.145703
H14   H     H_    0.291064 0.190052 0.876773 0.160151
H15   H     H_    0.384838 0.329294 0.753822 0.203364
H16   H     H_    0.595171 0.641706 0.874460 0.144948
H17   H     H_    0.071436 0.451727 0.287417 0.171799
H18   H     H_    0.069221 0.314751 0.392699 0.175698
H19   H     H_    0.923617 0.314681 0.396131 0.172103
H20   H     H_    0.926121 0.449694 0.287201 0.170523
H21   H     H_    0.076870 0.691027 0.568497 0.171060
H22   H     H_    0.076465 0.670690 0.389205 0.178841
H23   H     H_    0.931529 0.691528 0.569099 0.168062
N1    N     N_R   0.499210 0.498800 0.142780 -0.121167
N2    N     N_R   0.499180 0.498720 0.857170 -0.120767
O1    O     O_R   0.500000 0.316780 0.614690 -0.640459
O2    O     O_R   0.499990 0.316750 0.385360 -0.629603
O3    O     O_R   0.377150 0.500020 0.614720 -0.626905
O4    O     O_R   0.377140 0.499990 0.385380 -0.633162
O5    O     O_R   0.500010 0.683250 0.614640 -0.614290
O6    O     O_R   0.500000 0.683220 0.385310 -0.612121
O7    O     O_R   0.622860 0.500010 0.614620 -0.626628
O8    O     O_R   0.622850 0.499980 0.385280 -0.606226
Zn1   Zn    Zn3+2 0.500010 0.500020 0.653130 0.933200
Zn2   Zn    Zn3+2 0.499990 0.499980 0.346870 0.939743
C35   C     C_1   0.078040 0.314226 0.670484 0.147479
N3    N     N_1   0.102353 0.214950 0.694457 -0.231314

loop_
_geom_bond_atom_site_label_1
_geom_bond_atom_site_label_2
_ccdc_geom_bond_type
C4    H23   S    
C2    H1    S    
C19   C23   S    
C30   H2    S    
N1    Zn2   S    
C35   N3    T    
C18   H10   S    
N2    Zn1   S    
C29   O7    A    
C12   O3    A    
C9    C10   A    
C5    H22   S    
O7    Zn1   S    
C31   C32   S    
C6    C33   T    
O3    Zn1   S    
C31   H18   S    
C8    C12   S    
C3    C6    S    
C5    C34   S    
C27   H11   S    
C13   H9    S    
C17   C18   A    
C9    C15   A    
C31   C34   S    
C7    C8    T    
C1    C16   S    
C21   C22   A    
C20   C21   A    
C10   H7    S    
C26   N1    A    
C2    H3    S    
C23   O6    A    
C20   C26   A    
O6    Zn2   S    
O5    Zn1   S    
C32   H20   S    
C23   O5    A    
C30   C35   S    
C24   H15   S    
C4    H4    S    
C22   H14   S    
C2    C3    S    
C3    C32   S    
C7    C34   S    
C22   C24   A    
C28   N2    A    
C10   C11   A    
C30   C34   S    
C15   C16   A    
C29   C33   S    
C32   H19   S    
C11   C13   A    
C2    C30   S    
C24   C25   A    
O1    Zn1   S    
C11   H8    S    
C18   C19   A    
C17   H5    S    
C1    O1    A    
O2    Zn2   S    
C27   C28   A    
C12   O4    A    
C14   C15   A    
C16   C17   A    
C25   N2    A    
C13   C14   A    
C21   H13   S    
C25   C26   A    
C29   O8    A    
C28   H16   S    
C14   C19   A    
C5    H21   S    
C9    H6    S    
C20   H12   S    
C3    C4    S    
O4    Zn2   S    
C31   H17   S    
C4    C5    S    
O8    Zn2   S    
C27   N1    A    
C1    O2    A    
