data_mof_unit_55141.cif
_audit_creation_date              2012-12-11T14:29:26-0500
_audit_creation_method            fapswitch 2.2
_symmetry_space_group_name_H-M    P1
_symmetry_Int_Tables_number       1
_space_group_crystal_system       triclinic
_cell_length_a                    6.934237
_cell_length_b                    14.709214
_cell_length_c                    16.229841
_cell_angle_alpha                 90.44391
_cell_angle_beta                  90.043482
_cell_angle_gamma                 90.178265
_cell_volume                      1655.3397449

loop_
_atom_site_label
_atom_site_type_symbol
_atom_type_description
_atom_site_fract_x
_atom_site_fract_y
_atom_site_fract_z
_atom_type_partial_charge
O1    O     O_R   0.494400 0.416610 0.413880 -0.543531
O2    O     O_R   0.823920 0.406790 0.585520 -0.538712
O3    O     O_R   0.994250 0.583390 0.586120 -0.535867
C1    C     C_R   0.655054 0.387157 0.614950 0.725340
O4    O     O_R   0.824110 0.405730 0.414490 -0.541454
O5    O     O_R   0.994440 0.582310 0.413870 -0.539902
C2    C     C_R   0.654686 0.385108 0.385225 0.777649
O6    O     O_R   0.494210 0.417690 0.586130 -0.544350
O7    O     O_3   0.660810 0.557940 0.500000 -0.370464
V1    V     V_3+5 0.935650 0.489250 0.500000 1.408875
O8    O     O_R   0.324160 0.593210 0.414480 -0.547660
C3    C     C_R   0.156021 0.613669 0.385089 0.762259
O9    O     O_R   0.323970 0.594270 0.585510 -0.538612
C4    C     C_R   0.155323 0.615987 0.614088 0.698405
V2    V     V_3+5 0.435660 0.510750 0.500000 1.403727
O10   O     O_3   0.160630 0.442060 0.500000 -0.373442
C5    C     C_R   0.292469 0.574394 0.778365 -0.139280
C6    C     C_R   0.356369 0.551564 0.856945 -0.120493
C7    C     C_R   0.342940 0.614098 0.921274 -0.120647
C8    C     C_R   0.265842 0.700023 0.907519 -0.118903
C9    C     C_R   0.200746 0.725491 0.828282 0.068359
C10   C     C_R   0.214112 0.661274 0.762284 0.067003
C11   C     C_R   0.118996 0.812430 0.814704 -0.184776
C12   C     C_R   0.048599 0.834668 0.735295 0.073479
C13   C     C_R   0.061832 0.770478 0.669302 0.069595
C14   C     C_R   0.145314 0.683835 0.682611 -0.187434
C15   C     C_R   0.967418 0.921029 0.719632 -0.153338
C16   C     C_R   0.899334 0.943111 0.641637 -0.151963
C17   C     C_R   0.912164 0.880636 0.577292 -0.124046
C18   C     C_R   0.993438 0.795479 0.590462 -0.125677
H1    H     H_    0.303635 0.522772 0.730804 0.107414
H2    H     H_    0.415406 0.484708 0.868081 0.116355
H3    H     H_    0.255929 0.745620 0.959950 0.103691
H4    H     H_    0.956691 0.972806 0.767060 0.100956
H5    H     H_    0.839131 0.009649 0.630805 0.120545
H6    H     H_    0.003156 0.750011 0.537951 0.105224
C19   C     C_2   0.988891 0.695720 0.272504 -0.252242
C20   C     C_2   0.152413 0.676432 0.313870 -0.366876
H7    H     H_    0.858467 0.664009 0.295050 0.150726
H8    H     H_    0.290122 0.702154 0.292695 0.133307
C21   C     C_2   0.978530 0.753647 0.195648 0.456350
C22   C     C_2   0.118031 0.816186 0.179745 -0.379180
H9    H     H_    0.240641 0.824232 0.220606 0.087916
C23   C     C_2   0.773225 0.213987 0.785784 -0.228050
C24   C     C_2   0.610939 0.169365 0.808523 0.270664
H10   H     H_    0.906591 0.201334 0.818872 0.119962
C25   C     C_2   0.788080 0.276254 0.714183 -0.129848
C26   C     C_2   0.640270 0.326472 0.686314 -0.293340
H11   H     H_    0.928836 0.282672 0.685463 0.143331
H12   H     H_    0.502406 0.325870 0.717570 0.185947
C27   C     C_2   0.782487 0.226121 0.201124 0.454813
C28   C     C_2   0.618800 0.181472 0.178267 -0.396013
H13   H     H_    0.484931 0.192625 0.211067 0.106122
C29   C     C_2   0.791975 0.285428 0.276494 -0.233011
C30   C     C_2   0.637979 0.322211 0.314215 -0.372175
H14   H     H_    0.935093 0.301634 0.299723 0.153831
H15   H     H_    0.493833 0.310238 0.290647 0.134257
O11   O     O_R   0.770210 0.079270 0.910680 -0.565112
O12   O     O_R   0.440150 0.091160 0.082270 -0.543478
O13   O     O_R   0.269970 0.914530 0.082860 -0.551819
C31   C     C_R   0.609748 0.114249 0.109830 0.771481
O14   O     O_R   0.440480 0.090100 0.911240 -0.530230
O15   O     O_R   0.270310 0.913460 0.910610 -0.543804
C32   C     C_R   0.608725 0.109862 0.881767 0.617220
O16   O     O_R   0.769870 0.080340 0.082930 -0.507800
O17   O     O_3   0.603660 0.938980 0.996790 -0.367684
V3    V     V_3+5 0.328750 0.007610 0.996740 1.436542
O18   O     O_R   0.940600 0.902510 0.911180 -0.537940
C33   C     C_R   0.109301 0.880467 0.882976 0.684717
O19   O     O_R   0.940270 0.903570 0.082200 -0.509145
C34   C     C_R   0.108835 0.880729 0.109750 0.785447
V4    V     V_3+5 0.828770 0.986010 0.996670 1.473260
O20   O     O_3   0.103730 0.054750 0.996710 -0.369106
H16   H     H_    0.860581 0.898579 0.516600 0.117526
O21   O     O_3   0.834505 0.742880 0.135505 -0.565301
C35   C     C_3   0.664601 0.698437 0.161849 0.103973
H17   H     H_    0.544585 0.723790 0.122937 0.138354
H18   H     H_    0.622133 0.717254 0.225745 0.086487
C36   C     C_3   0.678789 0.595341 0.147315 -0.330114
H19   H     H_    0.691706 0.581633 0.080097 0.196238
H20   H     H_    0.809217 0.567393 0.177488 0.194492
C37   C     C_3   0.501511 0.545897 0.180324 -0.853461
H21   H     H_    0.491907 0.554845 0.248207 0.235465
H22   H     H_    0.512975 0.472105 0.166197 0.229811
H23   H     H_    0.368265 0.572495 0.151198 0.231553
O22   O     O_3   0.440117 0.180293 0.765104 -0.575519
C38   C     C_3   0.396025 0.100624 0.719085 0.113238
H24   H     H_    0.238219 0.088557 0.723936 0.130543
H25   H     H_    0.467833 0.037787 0.742001 0.088526
C39   C     C_3   0.446945 0.115114 0.628381 -0.319572
H26   H     H_    0.368299 0.175358 0.604880 0.199625
H27   H     H_    0.603935 0.128504 0.622620 0.193342
C40   C     C_3   0.394504 0.032239 0.575779 -0.838336
H28   H     H_    0.466057 0.970331 0.599690 0.240424
H29   H     H_    0.442511 0.043248 0.511368 0.229666
H30   H     H_    0.236076 0.021798 0.575717 0.243887
O23   O     O_3   0.953248 0.208724 0.159179 -0.558561
C41   C     C_3   0.020597 0.288444 0.119911 0.085256
H31   H     H_    0.178390 0.280642 0.110399 0.135270
H32   H     H_    0.001910 0.351289 0.157855 0.098381
C42   C     C_3   0.924215 0.299627 0.035478 -0.310383
H33   H     H_    0.948597 0.237491 0.997566 0.212161
H34   H     H_    0.766280 0.308640 0.043560 0.168460
C43   C     C_3   0.005021 0.381786 0.989943 -0.834641
H35   H     H_    0.978838 0.445077 0.025991 0.231949
H36   H     H_    0.932697 0.387839 0.929159 0.237497
H37   H     H_    0.162455 0.373785 0.979633 0.229072
H38   H     H_    0.391277 0.595747 0.982339 0.117326

loop_
_geom_bond_atom_site_label_1
_geom_bond_atom_site_label_2
_ccdc_geom_bond_type
C27   O23   S    
C38   H24   S    
C40   H28   S    
C21   C22   D    
C11   C33   S    
C7    C8    A    
C12   C15   A    
C2    C30   S    
C1    O6    A    
C43   H36   S    
O23   C41   S    
C25   H11   S    
C23   C24   D    
C17   C18   A    
O14   V3    S    
C37   H23   S    
C16   C17   A    
C35   H18   S    
C28   C31   S    
O5    C3    A    
V2    O10   S    
C6    C7    A    
O14   C32   A    
O12   V3    S    
O8    V2    S    
C9    C11   A    
O17   V4    S    
O15   C33   A    
O13   V3    S    
O18   C33   A    
C11   C12   A    
C35   C36   S    
O19   C34   A    
V3    O20   S    
O7    V1    S    
C23   C25   S    
C7    H38   S    
C26   H12   S    
O17   V3    S    
C42   H34   S    
O9    C4    A    
C3    C20   S    
C43   H35   S    
C23   H10   S    
O15   V3    S    
C35   H17   S    
C15   H4    S    
O11   C32   A    
C29   H14   S    
O12   C31   A    
C27   C28   D    
C42   H33   S    
C12   C13   A    
C16   H5    S    
O4    C2    A    
O22   C38   S    
C17   H16   S    
O13   C34   A    
C13   C14   A    
O2    C1    A    
O21   C35   S    
C19   C20   D    
C21   O21   S    
C39   H27   S    
C25   C26   D    
O18   V4    S    
C5    C6    A    
C4    C14   S    
O3    C4    A    
O1    V2    S    
C8    H3    S    
C41   H31   S    
O6    V2    S    
C41   H32   S    
C30   H15   S    
C5    H1    S    
C6    H2    S    
C22   H9    S    
O2    V1    S    
C28   H13   S    
C39   C40   S    
C36   H20   S    
C1    C26   S    
C13   C18   A    
C29   C30   D    
O1    C2    A    
V4    O20   S    
O5    V1    S    
C36   C37   S    
O8    C3    A    
C40   H30   S    
O16   V4    S    
C24   C32   S    
C37   H22   S    
C5    C10   A    
C41   C42   S    
C18   H6    S    
C27   C29   S    
O9    V2    S    
C24   O22   S    
O7    V2    S    
O4    V1    S    
C19   H7    S    
O3    V1    S    
V1    O10   S    
C20   H8    S    
O11   V4    S    
C39   H26   S    
C22   C34   S    
C19   C21   S    
C36   H19   S    
C31   O16   A    
C8    C9    A    
C40   H29   S    
C37   H21   S    
C10   C14   A    
C38   C39   S    
C15   C16   A    
C38   H25   S    
O19   V4    S    
C42   C43   S    
C9    C10   A    
C43   H37   S    
