data_mof_unit_45786.cif
_audit_creation_date              2012-12-10T16:57:52-0500
_audit_creation_method            fapswitch 2.2
_symmetry_space_group_name_H-M    P1
_symmetry_Int_Tables_number       1
_space_group_crystal_system       triclinic
_cell_length_a                    10.622389
_cell_length_b                    10.901869
_cell_length_c                    9.722026
_cell_angle_alpha                 90.578851
_cell_angle_beta                  90.221879
_cell_angle_gamma                 90.195654
_cell_volume                      1125.77584885

loop_
_atom_site_label
_atom_site_type_symbol
_atom_type_description
_atom_site_fract_x
_atom_site_fract_y
_atom_site_fract_z
_atom_type_partial_charge
C1    C     C_R   0.506702 0.265302 0.499565 0.726142
C2    C     C_3   0.958642 0.559544 0.388703 -0.193358
C3    C     C_3   0.040077 0.441987 0.384840 -0.121555
C4    C     C_3   0.122680 0.497775 0.499484 -0.038278
C5    C     C_2   0.469724 0.933532 0.391978 -0.116816
C6    C     C_2   0.481515 0.866365 0.505570 -0.269392
C7    C     C_2   0.458302 0.067044 0.403113 -0.242009
C8    C     C_2   0.523846 0.132397 0.497180 0.307216
C9    C     C_2   0.418707 0.439961 0.923222 -0.073652
C10   C     C_2   0.408485 0.454663 0.077282 -0.027908
C11   C     C_R   0.259467 0.498260 0.499736 0.795545
C12   C     C_R   0.495249 0.734547 0.500816 0.836298
C13   C     C_R   0.740569 0.501123 0.500282 0.804448
C14   C     C_3   0.041840 0.437711 0.611595 -0.226842
C15   C     C_3   0.956635 0.382874 0.496583 -0.246538
C16   C     C_3   0.877448 0.500370 0.500545 -0.027938
C17   C     C_3   0.961913 0.554737 0.612799 0.529211
C18   C     C_3   0.043747 0.615818 0.502770 -0.266910
Cu1   Cu    Cu3+1 0.500030 0.500020 0.638630 0.946218
Cu2   Cu    Cu3+1 0.499970 0.499980 0.361370 0.951572
H1    H     H_    0.917930 0.288179 0.492957 0.146511
H2    H     H_    0.355513 0.374641 0.873742 0.130291
H3    H     H_    0.322573 0.423914 0.126100 0.137215
H4    H     H_    0.586263 0.505355 0.109370 0.193616
H5    H     H_    0.078925 0.388056 0.702122 0.129309
H6    H     H_    0.082203 0.710630 0.506273 0.130252
H7    H     H_    0.921620 0.608567 0.297623 0.157187
H8    H     H_    0.075652 0.394960 0.291001 0.130780
H9    H     H_    0.462412 0.890636 0.290926 0.180559
H10   H     H_    0.476704 0.909093 0.606781 0.166378
H11   H     H_    0.393009 0.111811 0.333539 0.120550
N1    N     N_2   0.498620 0.498660 0.846910 -0.240298
N2    N     N_2   0.498590 0.498630 0.153040 -0.252221
O1    O     O_R   0.500020 0.321960 0.617040 -0.599514
O2    O     O_R   0.499980 0.321920 0.382900 -0.585035
O3    O     O_R   0.316870 0.499990 0.617050 -0.588238
O4    O     O_R   0.316830 0.499950 0.382910 -0.583786
O5    O     O_R   0.500020 0.678080 0.617100 -0.586235
O6    O     O_R   0.499980 0.678040 0.382960 -0.554311
O7    O     O_R   0.683170 0.500050 0.617090 -0.575927
O8    O     O_R   0.683130 0.500010 0.382950 -0.587852
O9    O     O_3   0.626370 0.078331 0.563169 -0.609038
C19   C     C_3   0.630043 0.104151 0.706130 0.051456
H12   H     H_    0.647499 0.016298 0.759806 0.161489
H13   H     H_    0.539515 0.138903 0.748744 0.140283
C20   C     C_3   0.740216 0.190719 0.739235 -0.314968
H14   H     H_    0.830281 0.143788 0.714892 0.204373
H15   H     H_    0.734426 0.273520 0.674537 0.236208
C21   C     C_3   0.740967 0.229913 0.890320 -0.894969
H16   H     H_    0.652804 0.279359 0.916124 0.259745
H17   H     H_    0.821969 0.292372 0.910312 0.247534
H18   H     H_    0.750050 0.148475 0.957329 0.251566
C22   C     C_2   0.552073 0.611791 0.894476 0.578926
H19   H     H_    0.647981 0.634716 0.866480 0.067441
O10   O     O_2   0.488775 0.687614 0.956463 -0.590060
O11   O     O_3   0.912394 0.613064 0.730979 -0.622539
C23   C     C_3   0.010373 0.659313 0.816132 0.050574
H20   H     H_    0.986905 0.755703 0.843608 0.163494
H21   H     H_    0.104851 0.661724 0.766278 0.139787
C24   C     C_3   0.018242 0.584623 0.948272 -0.371547
H22   H     H_    0.925601 0.586059 0.001089 0.219887
H23   H     H_    0.041556 0.487866 0.922653 0.206559
C25   C     C_3   0.118882 0.636419 0.045408 -0.885501
H24   H     H_    0.211876 0.638145 0.993645 0.286978
H25   H     H_    0.126336 0.577981 0.137755 0.254129
H26   H     H_    0.093841 0.730949 0.078745 0.253512

loop_
_geom_bond_atom_site_label_1
_geom_bond_atom_site_label_2
_ccdc_geom_bond_type
C19   H12   S    
C25   H25   S    
C2    H7    S    
Cu1   O5    S    
C10   H3    S    
C2    C18   S    
C1    C8    S    
C2    C16   S    
C9    C10   S    
C5    H9    S    
Cu1   Cu2   S    
C17   O11   S    
C21   H18   S    
C4    C18   S    
C12   O6    A    
C13   O8    A    
C17   C18   S    
C25   H26   S    
C5    C7    S    
C7    C8    D    
C22   H19   S    
C4    C11   S    
C12   O5    A    
Cu2   O4    S    
C19   H13   S    
C14   C17   S    
C23   H20   S    
C16   C17   S    
C24   C25   S    
Cu2   N2    S    
C6    C12   S    
C11   O3    A    
C6    H10   S    
C8    O9    S    
C1    O1    A    
Cu2   O8    S    
C10   N2    D    
C2    C3    S    
Cu1   O3    S    
C22   O10   D    
C14   H5    S    
C4    C14   S    
C5    C6    D    
C19   C20   S    
C20   H15   S    
C9    H2    S    
C23   H21   S    
C7    H11   S    
O9    C19   S    
Cu1   N1    S    
C25   H24   S    
N1    C22   S    
C15   H1    S    
C3    C15   S    
O11   C23   S    
C1    O2    A    
C24   H23   S    
C21   H16   S    
Cu1   O7    S    
C13   C16   S    
C11   O4    A    
Cu2   O6    S    
C20   H14   S    
C3    H8    S    
C13   O7    A    
C9    N1    D    
C21   H17   S    
C14   C15   S    
Cu2   O2    S    
C15   C16   S    
C20   C21   S    
C3    C4    S    
H4    N2    S    
C24   H22   S    
C23   C24   S    
Cu1   O1    S    
C18   H6    S    
