data_mof_unit_57124.cif
_audit_creation_date              2012-12-10T16:59:12-0500
_audit_creation_method            fapswitch 2.2
_symmetry_space_group_name_H-M    P1
_symmetry_Int_Tables_number       1
_space_group_crystal_system       triclinic
_cell_length_a                    7.7328
_cell_length_b                    8.611631
_cell_length_c                    27.732894
_cell_angle_alpha                 91.157004
_cell_angle_beta                  85.805712
_cell_angle_gamma                 93.653434
_cell_volume                      1837.87638586

loop_
_atom_site_label
_atom_site_type_symbol
_atom_type_description
_atom_site_fract_x
_atom_site_fract_y
_atom_site_fract_z
_atom_type_partial_charge
C1    C     C_R   0.545507 0.794460 0.498747 0.886926
C2    C     C_R   0.544706 0.637333 0.127506 -0.104555
C3    C     C_R   0.506575 0.498715 0.646476 -0.135774
C4    C     C_R   0.493449 0.501380 0.353523 -0.135915
C5    C     C_R   0.552189 0.639509 0.025449 -0.026728
C6    C     C_R   0.447401 0.360984 0.974573 -0.026707
C7    C     C_R   0.455994 0.359702 0.025506 0.004763
C8    C     C_R   0.543574 0.640794 0.974517 0.004769
C9    C     C_R   0.500669 0.500077 0.050765 0.016730
C10   C     C_R   0.498944 0.500410 0.949258 0.016733
C11   C     C_R   0.617640 0.770235 0.052278 0.581797
C12   C     C_R   0.454493 0.205540 0.501253 0.886911
C13   C     C_R   0.381984 0.230249 0.947740 0.581710
C14   C     C_R   0.607020 0.769989 0.102336 -0.093843
C15   C     C_R   0.392751 0.230458 0.897682 -0.093838
C16   C     C_R   0.502224 0.499817 0.593943 0.903164
C17   C     C_R   0.497782 0.500217 0.406056 0.903218
C18   C     C_R   0.569003 0.779721 0.947930 -0.172427
C19   C     C_R   0.430530 0.220777 0.052092 -0.172528
C20   C     C_2   0.569970 0.956815 0.498105 0.280724
C21   C     C_2   0.430030 0.043185 0.501895 0.280713
C22   C     C_R   0.554329 0.633674 0.821645 0.632252
C23   C     C_R   0.501397 0.500603 0.898064 -0.143393
C24   C     C_R   0.445393 0.366784 0.178369 0.631207
C25   C     C_R   0.463841 0.363592 0.822033 0.615830
C26   C     C_R   0.536202 0.636799 0.177984 0.616970
C27   C     C_R   0.354265 0.501468 0.725724 -0.151801
C28   C     C_R   0.645525 0.497038 0.274258 -0.152097
C29   C     C_R   0.350951 0.502524 0.675813 -0.158380
C30   C     C_R   0.648835 0.495851 0.324169 -0.158283
C31   C     C_R   0.665501 0.493841 0.667765 -0.281629
C32   C     C_R   0.334762 0.508064 0.332252 -0.281719
C33   C     C_R   0.668492 0.493155 0.717834 0.719619
C34   C     C_R   0.498300 0.499867 0.101958 -0.143384
C35   C     C_R   0.331776 0.508891 0.282186 0.719604
C36   C     C_R   0.512653 0.496877 0.746686 0.142550
C37   C     C_R   0.487378 0.503470 0.253319 0.142929
C38   C     C_R   0.547307 0.638722 0.872337 -0.161772
C39   C     C_R   0.452365 0.361749 0.127684 -0.161502
C40   C     C_R   0.576951 0.778488 0.897876 0.669711
C41   C     C_R   0.422619 0.221999 0.102146 0.669733
C42   C     C_R   0.455110 0.363108 0.872513 -0.104334
F1    F     F_    0.822118 0.488613 0.738335 -0.650421
F2    F     F_    0.178386 0.515224 0.261696 -0.650255
F3    F     F_    0.608636 0.916321 0.874911 -0.602692
F4    F     F_    0.390909 0.084168 0.125110 -0.602628
F5    F     F_    0.707537 0.894684 0.031451 -0.664076
F6    F     F_    0.292000 0.105829 0.968560 -0.664051
F7    F     F_    0.737857 0.017128 0.493648 -0.616523
F8    F     F_    0.262143 0.982872 0.506352 -0.616522
H1    H     H_    0.014495 0.383117 0.463484 0.217062
H2    H     H_    0.344821 0.127097 0.878695 0.240983
H3    H     H_    0.575978 0.893319 0.964710 0.246531
H4    H     H_    0.423505 0.107183 0.035312 0.246546
H5    H     H_    0.985505 0.616883 0.536516 0.217032
H6    H     H_    0.765621 0.492507 0.251722 0.211734
H7    H     H_    0.233972 0.504712 0.748247 0.212040
H8    H     H_    0.787015 0.491027 0.645809 0.187773
H9    H     H_    0.213445 0.512231 0.354216 0.188056
H10   H     H_    0.772878 0.490820 0.339666 0.198616
H11   H     H_    0.226700 0.506080 0.660303 0.198631
H12   H     H_    0.655021 0.873335 0.121316 0.240915
N1    N     N_R   0.513908 0.497286 0.797950 -0.351930
N2    N     N_R   0.486058 0.503121 0.202060 -0.351917
N3    N     N_2   0.950320 0.457960 0.486880 -0.147973
N4    N     N_2   0.049680 0.542040 0.513120 -0.147974
O1    O     O_R   0.389250 0.738570 0.503220 -0.572492
O2    O     O_2   0.400182 0.237048 0.203980 -0.427150
O3    O     O_2   0.578216 0.768387 0.202962 -0.486893
O4    O     O_2   0.422258 0.231907 0.797059 -0.487036
O5    O     O_R   0.610750 0.261430 0.496780 -0.572499
O6    O     O_R   0.678390 0.711630 0.494810 -0.583515
O7    O     O_R   0.321610 0.288370 0.505190 -0.583531
O8    O     O_R   0.355440 0.513440 0.575450 -0.623277
O9    O     O_R   0.644560 0.486560 0.424550 -0.623279
O10   O     O_R   0.644590 0.486500 0.567040 -0.633274
O11   O     O_R   0.355410 0.513500 0.432960 -0.633327
O12   O     O_2   0.599287 0.763454 0.796025 -0.426696
Zn1   Zn    Zn3+2 0.306940 0.517990 0.505620 1.033022
Zn2   Zn    Zn3+2 0.693060 0.482010 0.494380 1.033036

loop_
_geom_bond_atom_site_label_1
_geom_bond_atom_site_label_2
_ccdc_geom_bond_type
C27   C29   A    
C11   F5    S    
C37   N2    S    
C28   H6    S    
C39   C41   A    
N4    Zn1   S    
C23   C42   A    
C16   O8    A    
C31   H8    S    
C35   C37   A    
C5    C11   A    
C25   N1    A    
C11   C14   A    
C14   H12   S    
C33   C36   A    
H1    N3    S    
C3    C29   A    
C18   C40   A    
C21   F8    S    
C26   N2    A    
C18   H3    S    
C22   N1    A    
C30   H10   S    
C41   F4    S    
C31   C33   A    
C36   N1    S    
O9    Zn2   S    
C2    C34   A    
C24   N2    A    
N3    Zn2   S    
C12   O7    A    
O5    Zn2   S    
O11   Zn1   S    
C40   F3    S    
C29   H11   S    
C1    O6    A    
C34   C39   A    
C33   F1    S    
C32   C35   A    
O1    Zn1   S    
C22   O12   S    
C27   H7    S    
C12   C21   S    
C8    C18   A    
C5    C9    A    
C20   F7    S    
C5    C8    A    
C17   O11   A    
O7    Zn1   S    
C2    C26   A    
C15   H2    S    
C3    C31   A    
C35   F2    S    
C4    C32   A    
C4    C17   S    
C19   H4    S    
C12   O5    A    
C7    C19   A    
O8    Zn1   S    
C13   C15   A    
C9    C34   A    
C10   C23   A    
H5    N4    S    
C7    C9    A    
C1    C20   S    
C16   O10   A    
O10   Zn2   S    
C15   C42   A    
C25   C42   A    
C6    C10   A    
C13   F6    S    
C6    C7    A    
C27   C36   A    
C23   C38   A    
C28   C30   A    
O6    Zn2   S    
C6    C13   A    
C38   C40   A    
C28   C37   A    
C1    O1    A    
C2    C14   A    
C24   O2    S    
C20   C21   D    
C8    C10   A    
N3    N4    D    
C17   O9    A    
C26   O3    S    
C25   O4    S    
C32   H9    S    
C24   C39   A    
C4    C30   A    
C3    C16   S    
C19   C41   A    
C22   C38   A    
