data_mof_unit_34577.cif
_audit_creation_date              2012-10-26T19:40:06-0400
_audit_creation_method            fapswitch 2.2
_symmetry_space_group_name_H-M    P1
_symmetry_Int_Tables_number       1
_space_group_crystal_system       triclinic
_cell_length_a                    14.927602
_cell_length_b                    8.672737
_cell_length_c                    7.472187
_cell_angle_alpha                 103.477463
_cell_angle_beta                  94.156674
_cell_angle_gamma                 92.045888
_cell_volume                      936.878190294

loop_
_atom_site_label
_atom_site_type_symbol
_atom_type_description
_atom_site_fract_x
_atom_site_fract_y
_atom_site_fract_z
_atom_type_partial_charge
C1    C     C_R   0.497279 0.199609 0.452897 0.541698
C2    C     C_R   0.180799 0.363685 0.411816 -0.154200
C3    C     C_R   0.767215 0.501922 0.492086 -0.011384
C4    C     C_R   0.232780 0.498034 0.507901 -0.011393
C5    C     C_R   0.806997 0.368248 0.396367 -0.135038
C6    C     C_R   0.192992 0.631708 0.603606 -0.135070
C7    C     C_R   0.900270 0.363480 0.409357 0.005336
C8    C     C_R   0.099718 0.636488 0.590551 0.005306
C9    C     C_R   0.953238 0.502405 0.495779 0.039326
C10   C     C_R   0.046753 0.497571 0.504107 0.039323
C11   C     C_R   0.912262 0.645408 0.574531 0.001499
C12   C     C_R   0.502717 0.800391 0.547103 0.541710
C13   C     C_R   0.087729 0.354569 0.425364 0.001498
C14   C     C_R   0.940325 0.219652 0.345685 -0.119951
C15   C     C_R   0.059666 0.780323 0.654185 -0.119974
C16   C     C_R   0.073377 0.048493 0.309830 0.033147
C17   C     C_R   0.153802 0.016550 0.402879 -0.109676
C18   C     C_R   0.195496 0.874172 0.342317 -0.112357
C19   C     C_R   0.153311 0.754245 0.200550 -0.087424
C20   C     C_R   0.069170 0.776584 0.119931 -0.110481
C21   C     C_R   0.029413 0.921939 0.173782 -0.103721
C22   C     C_R   0.926620 0.951511 0.690026 0.033146
C23   C     C_R   0.034250 0.209967 0.358376 -0.008958
C24   C     C_R   0.970639 0.078115 0.825940 -0.103699
C25   C     C_R   0.930889 0.223466 0.879838 -0.110450
C26   C     C_R   0.846696 0.245754 0.799410 -0.087430
C27   C     C_R   0.804456 0.125800 0.657740 -0.112398
C28   C     C_R   0.846143 0.983428 0.597118 -0.109687
C29   C     C_R   0.965742 0.790021 0.641481 -0.008951
C30   C     C_2   0.495838 0.031283 0.426795 -0.166917
C31   C     C_2   0.504154 0.968716 0.573204 -0.166925
C32   C     C_R   0.329089 0.500113 0.502550 0.539786
C33   C     C_R   0.670910 0.499866 0.497447 0.539790
C34   C     C_R   0.819201 0.636273 0.588145 -0.154204
Cu1   Cu    Cu3+1 0.510010 0.517380 0.684380 0.945046
Cu2   Cu    Cu3+1 0.489990 0.482620 0.315620 0.945051
H1    H     H_    0.785811 0.732799 0.671547 0.119916
H2    H     H_    0.570210 0.622287 0.051502 0.238808
H3    H     H_    0.185510 0.101967 0.521802 0.104367
H4    H     H_    0.259809 0.855593 0.408456 0.112925
H5    H     H_    0.184806 0.642717 0.156410 0.129391
H6    H     H_    0.035140 0.681886 0.013513 0.117315
H7    H     H_    0.965018 0.934389 0.104807 0.104863
H8    H     H_    0.035073 0.065710 0.894815 0.104799
H9    H     H_    0.964967 0.318185 0.986171 0.117290
H10   H     H_    0.815192 0.357260 0.843620 0.129391
H11   H     H_    0.740100 0.144344 0.591741 0.112950
H12   H     H_    0.214197 0.267142 0.328463 0.119924
H13   H     H_    0.814391 0.897999 0.478258 0.104379
H14   H     H_    0.765234 0.264084 0.324706 0.105299
H15   H     H_    0.234750 0.735873 0.675286 0.105288
H16   H     H_    0.896880 0.113780 0.293958 0.110253
H17   H     H_    0.103119 0.886185 0.705908 0.110228
H18   H     H_    0.487904 0.958614 0.286202 0.135150
H19   H     H_    0.512088 0.041385 0.713797 0.135143
H20   H     H_    0.429790 0.377712 0.948498 0.238807
N1    N     N_2   0.474890 0.456420 0.038520 -0.256365
N2    N     N_2   0.525110 0.543580 0.961480 -0.256365
O1    O     O_R   0.506510 0.286130 0.619770 -0.505482
O2    O     O_R   0.493490 0.713870 0.380230 -0.505472
O3    O     O_R   0.489600 0.256770 0.308360 -0.498315
O4    O     O_R   0.510400 0.743230 0.691640 -0.498310
O5    O     O_R   0.378710 0.514640 0.655720 -0.500923
O6    O     O_R   0.621290 0.485360 0.344280 -0.500925
O7    O     O_R   0.361800 0.485290 0.344300 -0.502849
O8    O     O_R   0.638200 0.514710 0.655700 -0.502856

loop_
_geom_bond_atom_site_label_1
_geom_bond_atom_site_label_2
_ccdc_geom_bond_type
C14   C23   A    
C20   H6    S    
C24   C25   A    
C8    C10   A    
C14   H16   S    
C16   C21   A    
C22   C29   S    
C6    H15   S    
C8    C15   A    
C34   H1    S    
C12   O4    A    
C9    C10   A    
Cu1   O8    S    
C2    C4    A    
C19   C20   A    
C11   C34   A    
C9    C11   A    
C2    H12   S    
C3    C5    A    
Cu1   O5    S    
C17   C18   A    
C26   C27   A    
C22   C28   A    
C20   C21   A    
C30   H18   S    
C11   C29   A    
N1    N2    D    
C4    C32   S    
C33   O6    A    
C15   H17   S    
C4    C6    A    
C1    C30   S    
C33   O8    A    
C15   C29   A    
C16   C23   S    
C5    C7    A    
C1    O1    A    
C12   C31   S    
C17   H3    S    
C30   C31   D    
C24   H8    S    
Cu1   O4    S    
C22   C24   A    
C5    H14   S    
C3    C33   S    
H2    N2    S    
Cu2   O3    S    
C12   O2    A    
C25   H9    S    
Cu1   N2    S    
C18   C19   A    
H20   N1    S    
C13   C23   A    
Cu1   O1    S    
Cu2   N1    S    
C28   H13   S    
C27   H11   S    
C27   C28   A    
C7    C9    A    
C2    C13   A    
C18   H4    S    
Cu2   O7    S    
C32   O7    A    
C6    C8    A    
C3    C34   A    
C31   H19   S    
C25   C26   A    
Cu2   O6    S    
C26   H10   S    
C10   C13   A    
C7    C14   A    
C21   H7    S    
C19   H5    S    
C32   O5    A    
C16   C17   A    
Cu2   O2    S    
Cu1   Cu2   S    
C1    O3    A    
