data_mof_unit_63902.cif
_audit_creation_date              2012-12-10T20:33:56-0500
_audit_creation_method            fapswitch 2.2
_symmetry_space_group_name_H-M    P1
_symmetry_Int_Tables_number       1
_space_group_crystal_system       tetragonal
_cell_length_a                    28.125813
_cell_length_b                    28.125813
_cell_length_c                    27.754387
_cell_angle_alpha                 90.0
_cell_angle_beta                  90.0
_cell_angle_gamma                 90.0
_cell_volume                      21955.4230405

loop_
_atom_site_label
_atom_site_type_symbol
_atom_type_description
_atom_site_fract_x
_atom_site_fract_y
_atom_site_fract_z
_atom_type_partial_charge
C1    C     C_R   0.198796 0.698796 0.750000 0.159358
C2    C     C_R   0.801204 0.698796 0.750000 0.159357
C3    C     C_R   0.797045 0.340519 0.219430 -0.167620
C4    C     C_R   0.340519 0.202955 0.780570 -0.167620
C5    C     C_R   0.659481 0.797045 0.219430 -0.167620
C6    C     C_R   0.797045 0.340519 0.780570 -0.167620
C7    C     C_R   0.202955 0.659481 0.219430 -0.167620
C8    C     C_R   0.124340 0.667866 0.719393 -0.196256
C9    C     C_R   0.875660 0.332134 0.280607 -0.196256
C10   C     C_R   0.667865 0.875660 0.719393 -0.196256
C11   C     C_R   0.332135 0.124340 0.280607 -0.196256
C12   C     C_R   0.875660 0.332134 0.719393 -0.196256
C13   C     C_R   0.698796 0.198796 0.250000 0.159358
C14   C     C_R   0.124340 0.667866 0.280607 -0.196256
C15   C     C_R   0.332135 0.124340 0.719393 -0.196256
C16   C     C_R   0.667865 0.875660 0.280607 -0.196256
C17   C     C_R   0.124340 0.332135 0.280607 -0.196256
C18   C     C_R   0.875660 0.667865 0.719393 -0.196256
C19   C     C_R   0.667866 0.124340 0.280607 -0.196256
C20   C     C_R   0.332134 0.875660 0.719393 -0.196256
C21   C     C_R   0.875660 0.667865 0.280607 -0.196256
C22   C     C_R   0.124340 0.332135 0.719393 -0.196256
C23   C     C_R   0.332134 0.875660 0.280607 -0.196256
C24   C     C_R   0.301204 0.801204 0.750000 0.159358
C25   C     C_R   0.667866 0.124340 0.719393 -0.196256
C26   C     C_R   0.624340 0.167866 0.219393 -0.196256
C27   C     C_R   0.375660 0.832134 0.780607 -0.196256
C28   C     C_R   0.167865 0.375660 0.219393 -0.196256
C29   C     C_R   0.832135 0.624340 0.780607 -0.196256
C30   C     C_R   0.375660 0.832134 0.219393 -0.196256
C31   C     C_R   0.624340 0.167865 0.780607 -0.196256
C32   C     C_R   0.832135 0.624340 0.219393 -0.196256
C33   C     C_R   0.167865 0.375660 0.780607 -0.196256
C34   C     C_R   0.624340 0.832135 0.780607 -0.196256
C35   C     C_R   0.801204 0.698796 0.250000 0.159357
C36   C     C_R   0.375660 0.167865 0.219393 -0.196256
C37   C     C_R   0.167865 0.624340 0.780607 -0.196256
C38   C     C_R   0.832134 0.375660 0.219393 -0.196256
C39   C     C_R   0.375660 0.167865 0.780607 -0.196256
C40   C     C_R   0.624340 0.832135 0.219393 -0.196256
C41   C     C_R   0.832134 0.375660 0.780607 -0.196256
C42   C     C_R   0.167866 0.624340 0.219393 -0.196256
C43   C     C_R   0.128194 0.628194 0.750000 -0.010247
C44   C     C_R   0.871805 0.371805 0.250000 -0.010247
C45   C     C_R   0.628194 0.871805 0.750000 -0.010247
C46   C     C_R   0.198796 0.301204 0.750000 0.159357
C47   C     C_R   0.371805 0.128194 0.250000 -0.010247
C48   C     C_R   0.871805 0.371805 0.750000 -0.010247
C49   C     C_R   0.128194 0.628194 0.250000 -0.010247
C50   C     C_R   0.371805 0.128194 0.750000 -0.010247
C51   C     C_R   0.628194 0.871805 0.250000 -0.010247
C52   C     C_R   0.128194 0.371805 0.250000 -0.010247
C53   C     C_R   0.871805 0.628194 0.750000 -0.010247
C54   C     C_R   0.628194 0.128194 0.250000 -0.010247
C55   C     C_R   0.371805 0.871805 0.750000 -0.010247
C56   C     C_R   0.871805 0.628194 0.250000 -0.010247
C57   C     C_R   0.301204 0.801204 0.250000 0.159358
C58   C     C_R   0.128194 0.371805 0.750000 -0.010247
C59   C     C_R   0.371805 0.871805 0.250000 -0.010247
C60   C     C_R   0.628194 0.128194 0.750000 -0.010247
C61   C     C_R   0.698796 0.198796 0.750000 0.159358
C62   C     C_1   0.234875 0.734875 0.750000 -0.066453
C63   C     C_1   0.765124 0.265124 0.250000 -0.066453
C64   C     C_1   0.734875 0.765124 0.750000 -0.066453
C65   C     C_R   0.801204 0.301204 0.250000 0.159358
C66   C     C_1   0.265124 0.234875 0.250000 -0.066453
C67   C     C_1   0.765124 0.265124 0.750000 -0.066453
C68   C     C_1   0.234875 0.734875 0.250000 -0.066453
C69   C     C_1   0.265124 0.234875 0.750000 -0.066453
C70   C     C_1   0.734875 0.765124 0.250000 -0.066453
C71   C     C_1   0.234875 0.265124 0.250000 -0.066453
C72   C     C_1   0.765124 0.734875 0.750000 -0.066453
C73   C     C_1   0.734875 0.234875 0.250000 -0.066453
C74   C     C_1   0.265124 0.765124 0.750000 -0.066453
C75   C     C_1   0.765124 0.734875 0.250000 -0.066453
C76   C     C_R   0.698796 0.801204 0.750000 0.159357
C77   C     C_1   0.234875 0.265124 0.750000 -0.066453
C78   C     C_1   0.265124 0.765124 0.250000 -0.066453
C79   C     C_1   0.734875 0.234875 0.750000 -0.066453
C80   C     C_1   0.500000 0.000000 0.930975 -0.152709
C81   C     C_1   0.500000 0.000000 0.069025 -0.152709
C82   C     C_1   0.000000 0.500000 0.930975 -0.152709
C83   C     C_1   0.000000 0.500000 0.069025 -0.152709
C84   C     C_1   0.000000 0.500000 0.430974 -0.152709
C85   C     C_1   0.000000 0.500000 0.569025 -0.152709
C86   C     C_1   0.500000 0.000000 0.430974 -0.152709
C87   C     C_R   0.301204 0.198796 0.250000 0.159357
C88   C     C_1   0.500000 0.000000 0.569025 -0.152709
C89   C     C_1   0.500000 0.000000 0.974496 -0.002631
C90   C     C_1   0.500000 0.000000 0.025504 -0.002631
C91   C     C_1   0.000000 0.500000 0.974496 -0.002631
C92   C     C_1   0.000000 0.500000 0.025504 -0.002631
C93   C     C_1   0.000000 0.500000 0.474496 -0.002631
C94   C     C_1   0.000000 0.500000 0.525504 -0.002631
C95   C     C_1   0.500000 1.000000 0.474496 -0.002631
C96   C     C_1   0.500000 0.000000 0.525504 -0.002631
C97   C     C_R   0.500000 0.000000 0.620873 0.819885
C98   C     C_R   0.801204 0.301204 0.750000 0.159358
C99   C     C_R   0.500000 0.000000 0.379127 0.819885
C100  C     C_R   0.000000 0.500000 0.620873 0.819885
C101  C     C_R   0.000000 0.500000 0.379127 0.819885
C102  C     C_R   0.000000 0.500000 0.120873 0.819885
C103  C     C_R   1.000000 0.500000 0.879127 0.819885
C104  C     C_R   0.500000 0.000000 0.120873 0.819885
C105  C     C_R   0.500000 1.000000 0.879127 0.819885
C106  C     C_R   0.591080 0.908919 0.750000 0.791546
C107  C     C_R   0.408919 0.091080 0.250000 0.791546
C108  C     C_R   0.908919 0.408919 0.750000 0.791546
C109  C     C_R   0.198796 0.698796 0.250000 0.159358
C110  C     C_R   0.091080 0.591080 0.250000 0.791545
C111  C     C_R   0.408919 0.091081 0.750000 0.791546
C112  C     C_R   0.591080 0.908919 0.250000 0.791546
C113  C     C_R   0.091080 0.591080 0.750000 0.791545
C114  C     C_R   0.908919 0.408919 0.250000 0.791546
C115  C     C_R   0.591080 0.091080 0.250000 0.791545
C116  C     C_R   0.408919 0.908919 0.750000 0.791546
C117  C     C_R   0.908919 0.591080 0.250000 0.791546
C118  C     C_R   0.091081 0.408919 0.750000 0.791546
C119  C     C_R   0.408919 0.908919 0.250000 0.791546
C120  C     C_R   0.301204 0.198796 0.750000 0.159357
C121  C     C_R   0.591080 0.091081 0.750000 0.791545
C122  C     C_R   0.091081 0.408919 0.250000 0.791546
C123  C     C_R   0.908919 0.591080 0.750000 0.791546
C124  C     C_R   0.159480 0.702955 0.719430 -0.167620
C125  C     C_R   0.840519 0.297045 0.280570 -0.167620
C126  C     C_R   0.702955 0.840519 0.719430 -0.167620
C127  C     C_R   0.297045 0.159481 0.280570 -0.167620
C128  C     C_R   0.840519 0.297045 0.719430 -0.167620
C129  C     C_R   0.159480 0.702955 0.280570 -0.167620
C130  C     C_R   0.297045 0.159481 0.719430 -0.167620
C131  C     C_R   0.698796 0.801204 0.250000 0.159357
C132  C     C_R   0.702955 0.840519 0.280570 -0.167620
C133  C     C_R   0.159481 0.297045 0.280570 -0.167620
C134  C     C_R   0.840519 0.702955 0.719430 -0.167620
C135  C     C_R   0.702955 0.159480 0.280570 -0.167620
C136  C     C_R   0.297045 0.840519 0.719430 -0.167620
C137  C     C_R   0.840519 0.702955 0.280570 -0.167620
C138  C     C_R   0.159481 0.297045 0.719430 -0.167620
C139  C     C_R   0.297045 0.840519 0.280570 -0.167620
C140  C     C_R   0.702955 0.159480 0.719430 -0.167620
C141  C     C_R   0.659481 0.202955 0.219430 -0.167620
C142  C     C_R   0.198796 0.301204 0.250000 0.159357
C143  C     C_R   0.340519 0.797045 0.780570 -0.167620
C144  C     C_R   0.202955 0.340519 0.219430 -0.167620
C145  C     C_R   0.797045 0.659481 0.780570 -0.167620
C146  C     C_R   0.340519 0.797045 0.219430 -0.167620
C147  C     C_R   0.659481 0.202955 0.780570 -0.167620
C148  C     C_R   0.797045 0.659481 0.219430 -0.167620
C149  C     C_R   0.202955 0.340519 0.780570 -0.167620
C150  C     C_R   0.659481 0.797045 0.780570 -0.167620
C151  C     C_R   0.340519 0.202955 0.219430 -0.167620
C152  C     C_R   0.202955 0.659481 0.780570 -0.167620
H1    H     H_    0.155993 0.733302 0.695639 0.134497
H2    H     H_    0.844007 0.733302 0.695639 0.134497
H3    H     H_    0.733302 0.155993 0.304361 0.134497
H4    H     H_    0.266698 0.844007 0.695639 0.134497
H5    H     H_    0.844007 0.733302 0.304361 0.134497
H6    H     H_    0.155993 0.266698 0.695639 0.134497
H7    H     H_    0.266698 0.844007 0.304361 0.134497
H8    H     H_    0.733302 0.155993 0.695639 0.134497
H9    H     H_    0.655993 0.233302 0.195639 0.134497
H10   H     H_    0.344007 0.766698 0.804361 0.134497
H11   H     H_    0.233302 0.344007 0.195639 0.134497
H12   H     H_    0.844007 0.266698 0.304361 0.134497
H13   H     H_    0.766698 0.655993 0.804361 0.134497
H14   H     H_    0.344007 0.766698 0.195639 0.134497
H15   H     H_    0.655993 0.233302 0.804361 0.134497
H16   H     H_    0.766698 0.655993 0.195639 0.134497
H17   H     H_    0.233302 0.344007 0.804361 0.134497
H18   H     H_    0.655993 0.766698 0.804361 0.134497
H19   H     H_    0.344007 0.233302 0.195639 0.134497
H20   H     H_    0.233302 0.655993 0.804361 0.134497
H21   H     H_    0.766698 0.344007 0.195639 0.134497
H22   H     H_    0.344007 0.233302 0.804361 0.134497
H23   H     H_    0.733302 0.844007 0.695639 0.134497
H24   H     H_    0.655993 0.766698 0.195639 0.134497
H25   H     H_    0.766698 0.344007 0.804361 0.134497
H26   H     H_    0.233302 0.655993 0.195639 0.134497
H27   H     H_    0.094203 0.671801 0.695438 0.160329
H28   H     H_    0.905797 0.328199 0.304561 0.160329
H29   H     H_    0.671801 0.905797 0.695438 0.160329
H30   H     H_    0.328199 0.094203 0.304562 0.160329
H31   H     H_    0.905797 0.328199 0.695438 0.160329
H32   H     H_    0.094203 0.671801 0.304561 0.160329
H33   H     H_    0.328199 0.094203 0.695438 0.160329
H34   H     H_    0.266698 0.155993 0.304361 0.134497
H35   H     H_    0.671801 0.905797 0.304562 0.160329
H36   H     H_    0.094203 0.328199 0.304562 0.160329
H37   H     H_    0.905797 0.671801 0.695438 0.160329
H38   H     H_    0.671801 0.094203 0.304561 0.160329
H39   H     H_    0.328199 0.905797 0.695438 0.160329
H40   H     H_    0.905797 0.671801 0.304562 0.160329
H41   H     H_    0.094203 0.328199 0.695438 0.160329
H42   H     H_    0.328199 0.905797 0.304561 0.160329
H43   H     H_    0.671801 0.094203 0.695438 0.160329
H44   H     H_    0.594203 0.171801 0.195439 0.160329
H45   H     H_    0.844007 0.266698 0.695639 0.134497
H46   H     H_    0.405797 0.828199 0.804561 0.160329
H47   H     H_    0.171801 0.405797 0.195438 0.160329
H48   H     H_    0.828199 0.594203 0.804562 0.160329
H49   H     H_    0.405797 0.828199 0.195439 0.160329
H50   H     H_    0.594203 0.171801 0.804561 0.160329
H51   H     H_    0.828199 0.594203 0.195438 0.160329
H52   H     H_    0.171801 0.405797 0.804562 0.160329
H53   H     H_    0.594203 0.828199 0.804562 0.160329
H54   H     H_    0.405797 0.171801 0.195438 0.160329
H55   H     H_    0.171801 0.594203 0.804561 0.160329
H56   H     H_    0.155993 0.733302 0.304361 0.134497
H57   H     H_    0.828199 0.405797 0.195439 0.160329
H58   H     H_    0.405797 0.171801 0.804562 0.160329
H59   H     H_    0.594203 0.828199 0.195438 0.160329
H60   H     H_    0.828199 0.405797 0.804561 0.160329
H61   H     H_    0.171801 0.594203 0.195439 0.160329
H62   H     H_    0.266698 0.155993 0.695639 0.134497
H63   H     H_    0.733302 0.844007 0.304361 0.134497
H64   H     H_    0.155993 0.266698 0.304361 0.134497
O1    O     O_3   0.500000 0.000000 0.750000 -0.465362
O2    O     O_R   0.460660 0.000000 0.356100 -0.635264
O3    O     O_R   1.000000 0.460660 0.643900 -0.635264
O4    O     O_R   0.000000 0.539340 0.356100 -0.635264
O5    O     O_R   0.960660 0.500000 0.143900 -0.635264
O6    O     O_R   0.039340 0.500000 0.856100 -0.635264
O7    O     O_R   0.500000 0.039340 0.143900 -0.635264
O8    O     O_R   0.500000 0.960660 0.856100 -0.635264
O9    O     O_R   0.039340 0.500000 0.143900 -0.635264
O10   O     O_R   0.960660 0.500000 0.856100 -0.635264
O11   O     O_R   0.500000 0.960660 0.143900 -0.635264
O12   O     O_3   0.500000 0.000000 0.250000 -0.465362
O13   O     O_R   0.500000 0.039340 0.856100 -0.635264
O14   O     O_R   0.594350 0.944820 0.722300 -0.644697
O15   O     O_R   0.405650 0.055180 0.277700 -0.644697
O16   O     O_R   0.944820 0.405650 0.722300 -0.644697
O17   O     O_R   0.055180 0.594350 0.277700 -0.644697
O18   O     O_R   0.405650 0.055180 0.722300 -0.644697
O19   O     O_R   0.594350 0.944820 0.277700 -0.644697
O20   O     O_R   0.055180 0.594350 0.722300 -0.644697
O21   O     O_R   0.944820 0.405650 0.277700 -0.644697
O22   O     O_R   0.594350 0.055180 0.277700 -0.644697
O23   O     O_3   0.000000 0.500000 0.750000 -0.465362
O24   O     O_R   0.405650 0.944820 0.722300 -0.644697
O25   O     O_R   0.944820 0.594350 0.277700 -0.644697
O26   O     O_R   0.055180 0.405650 0.722300 -0.644697
O27   O     O_R   0.405650 0.944820 0.277700 -0.644697
O28   O     O_R   0.594350 0.055180 0.722300 -0.644697
O29   O     O_R   0.055180 0.405650 0.277700 -0.644697
O30   O     O_R   0.944820 0.594350 0.722300 -0.644697
O31   O     O_R   0.094350 0.444820 0.222300 -0.644697
O32   O     O_R   0.905650 0.555180 0.777700 -0.644697
O33   O     O_R   0.444820 0.905650 0.222300 -0.644697
O34   O     O_3   1.000000 0.500000 0.250000 -0.465362
O35   O     O_R   0.555180 0.094350 0.777700 -0.644697
O36   O     O_R   0.905650 0.555180 0.222300 -0.644697
O37   O     O_R   0.094350 0.444820 0.777700 -0.644697
O38   O     O_R   0.555180 0.094350 0.222300 -0.644697
O39   O     O_R   0.444820 0.905650 0.777700 -0.644697
O40   O     O_R   0.094350 0.555180 0.777700 -0.644697
O41   O     O_R   0.905650 0.444820 0.222300 -0.644697
O42   O     O_R   0.444820 0.094350 0.777700 -0.644697
O43   O     O_R   0.555180 0.905650 0.222300 -0.644697
O44   O     O_R   0.905650 0.444820 0.777700 -0.644697
O45   O     O_R   0.460660 1.000000 0.643900 -0.635264
O46   O     O_R   0.094350 0.555180 0.222300 -0.644697
O47   O     O_R   0.555180 0.905650 0.777700 -0.644697
O48   O     O_R   0.444820 0.094350 0.222300 -0.644697
O49   O     O_R   0.539340 0.000000 0.356100 -0.635264
O50   O     O_R   1.000000 0.539340 0.643900 -0.635264
O51   O     O_R   0.000000 0.460660 0.356100 -0.635264
O52   O     O_R   0.539340 1.000000 0.643900 -0.635264
Zn1   Zn    Zn3+2 0.500000 0.943960 0.789960 0.972624
Zn2   Zn    Zn3+2 1.000000 0.556040 0.710040 0.972624
Zn3   Zn    Zn3+2 0.443960 0.000000 0.289960 0.972624
Zn4   Zn    Zn3+2 0.556040 1.000000 0.710040 0.972624
Zn5   Zn    Zn3+2 1.000000 0.556040 0.289960 0.972624
Zn6   Zn    Zn3+2 0.000000 0.443960 0.710040 0.972624
Zn7   Zn    Zn3+2 0.556040 0.000000 0.289960 0.972624
Zn8   Zn    Zn3+2 0.443960 1.000000 0.710040 0.972624
Zn9   Zn    Zn3+2 0.500000 0.056040 0.210040 0.972624
Zn10  Zn    Zn3+2 0.943960 0.500000 0.789960 0.972624
Zn11  Zn    Zn3+2 0.056040 0.500000 0.210040 0.972624
Zn12  Zn    Zn3+2 0.500000 0.056040 0.789960 0.972624
Zn13  Zn    Zn3+2 0.500000 0.943960 0.210040 0.972624
Zn14  Zn    Zn3+2 0.056040 0.500000 0.789960 0.972624
Zn15  Zn    Zn3+2 0.943960 0.500000 0.210040 0.972624
Zn16  Zn    Zn3+2 0.000000 0.443960 0.289960 0.972624

loop_
_geom_bond_atom_site_label_1
_geom_bond_atom_site_label_2
_ccdc_geom_bond_type
O12   Zn13  S    
O1    Zn8   S    
C88   C96   T    
C18   H37   S    
C141  H9    S    
C51   C112  S    
C83   C102  S    
C107  O15   A    
C113  O20   A    
C76   C126  A    
C56   C117  S    
C11   C47   A    
C95   C96   S    
C101  O4    A    
C8    C43   A    
C21   C137  A    
O6    Zn14  S    
C26   H44   S    
C1    C62   S    
C111  O18   A    
C20   H39   S    
C87   C127  A    
C34   C150  A    
O18   Zn8   S    
C151  H19   S    
O45   Zn8   S    
C145  H13   S    
C45   C106  S    
C2    C145  A    
C23   C59   A    
C83   C92   T    
C15   C130  A    
C40   H59   S    
C35   C75   S    
C133  C142  A    
C93   C94   S    
C99   O2    A    
O33   Zn13  S    
C1    C152  A    
C149  H17   S    
C6    C98   A    
C63   C65   S    
C23   C139  A    
C119  O33   A    
C103  O6    A    
O39   Zn1   S    
C123  O32   A    
C136  H4    S    
O38   Zn9   S    
C50   C111  S    
O34   Zn5   S    
C12   H31   S    
C55   C116  S    
C27   C55   A    
C24   C143  A    
C19   C135  A    
O12   Zn7   S    
O23   Zn10  S    
O11   Zn13  S    
C58   C118  S    
C127  H34   S    
C135  H3    S    
C57   C139  A    
C36   C47   A    
C152  H20   S    
C117  O25   A    
O10   Zn10  S    
C7    C42   A    
O25   Zn5   S    
C80   C89   T    
O23   Zn6   S    
O21   Zn16  S    
O35   Zn12  S    
C106  O47   A    
C31   H50   S    
C6    H25   S    
C18   C53   A    
O8    Zn1   S    
C128  H45   S    
C41   H60   S    
C69   C77   T    
C3    H21   S    
O1    Zn12  S    
O52   Zn4   S    
C3    C38   A    
C6    C41   A    
O15   Zn3   S    
C114  O21   A    
C27   C143  A    
C82   C103  S    
C16   C51   A    
C22   H41   S    
C130  H62   S    
C107  O48   A    
C28   C144  A    
C25   C60   A    
C76   C150  A    
C100  O50   A    
C26   C141  A    
C102  O5    A    
C104  O7    A    
O32   Zn10  S    
C88   C97   S    
C67   C98   S    
C110  O17   A    
C12   C48   A    
C33   H52   S    
C46   C138  A    
C35   C137  A    
C31   C147  A    
C24   C136  A    
C98   C128  A    
C101  O51   A    
C44   C114  S    
C113  O40   A    
C4    H22   S    
C124  H1    S    
C30   C59   A    
C84   C101  S    
C37   H55   S    
C21   C56   A    
C3    C65   A    
C11   H30   S    
C52   C122  S    
C15   C50   A    
C20   C55   A    
C2    C72   S    
C26   C54   A    
C17   C52   A    
C117  O36   A    
O49   Zn7   S    
C30   C146  A    
C34   H53   S    
C68   C78   T    
O23   Zn14  S    
C28   H47   S    
C105  O13   A    
C118  O26   A    
O16   Zn6   S    
O5    Zn15  S    
C25   C140  A    
C67   C79   T    
C35   C148  A    
C100  O3    A    
O13   Zn12  S    
O50   Zn2   S    
O36   Zn15  S    
C91   C92   S    
C34   C45   A    
C129  H56   S    
C8    C124  A    
C21   H40   S    
O7    Zn9   S    
C63   C73   T    
C80   C105  S    
C16   H35   S    
O3    Zn6   S    
C9    C125  A    
C82   C91   T    
O24   Zn8   S    
C7    H26   S    
C29   C53   A    
C65   C125  A    
C31   C60   A    
C37   C43   A    
C121  O28   A    
C11   C127  A    
C38   C44   A    
C118  O37   A    
C123  O30   A    
O44   Zn10  S    
C85   C94   T    
C138  H6    S    
C97   O52   A    
C66   C71   T    
C4    C39   A    
O43   Zn13  S    
C111  O42   A    
C29   H48   S    
O17   Zn5   S    
C54   C115  S    
C46   C149  A    
O29   Zn16  S    
O20   Zn2   S    
O48   Zn9   S    
C64   C76   S    
C87   C151  A    
C36   C151  A    
C132  H63   S    
C36   H54   S    
C115  O22   A    
C20   C136  A    
C86   C99   S    
C122  O31   A    
O26   Zn6   S    
C9    H28   S    
C147  H15   S    
C122  O29   A    
C12   C128  A    
C81   C90   T    
C14   C129  A    
C19   C54   A    
C13   C73   S    
C13   C141  A    
C71   C142  S    
C144  H11   S    
C17   C133  A    
C148  H16   S    
C5    H24   S    
C120  C130  A    
C108  O44   A    
C125  H12   S    
C150  H18   S    
C37   C152  A    
O22   Zn7   S    
C112  O19   A    
O47   Zn1   S    
C66   C87   S    
O37   Zn14  S    
C104  O11   A    
O41   Zn15  S    
C19   H38   S    
C108  O16   A    
O1    Zn4   S    
C10   C126  A    
C30   H49   S    
C22   C138  A    
C99   O49   A    
C9    C44   A    
C59   C119  S    
C68   C109  S    
C143  H10   S    
O23   Zn2   S    
O4    Zn5   S    
O28   Zn4   S    
C133  H64   S    
O34   Zn16  S    
C57   C78   S    
C105  O8    A    
C62   C74   T    
O30   Zn2   S    
O12   Zn3   S    
C25   H43   S    
C22   C58   A    
C46   C77   S    
C14   H32   S    
C2    C134  A    
C61   C140  A    
C32   C148  A    
C97   O45   A    
O12   Zn9   S    
O9    Zn11  S    
C40   C51   A    
C116  O24   A    
C69   C120  S    
C47   C107  S    
O2    Zn3   S    
O40   Zn14  S    
C33   C58   A    
O34   Zn11  S    
C10   C45   A    
C32   H51   S    
O19   Zn7   S    
C61   C147  A    
C1    C124  A    
C137  H5    S    
C102  O9    A    
C112  O43   A    
C42   H61   S    
C33   C149  A    
C140  H8    S    
C134  H2    S    
O42   Zn12  S    
C28   C52   A    
C8    H27   S    
C24   C74   S    
C48   C108  S    
C115  O38   A    
O14   Zn4   S    
O51   Zn16  S    
C61   C79   S    
O34   Zn15  S    
O1    Zn1   S    
O46   Zn11  S    
C23   H42   S    
C70   C131  S    
C41   C48   A    
C32   C56   A    
C18   C134  A    
C142  C144  A    
C84   C93   T    
C64   C72   T    
C38   H57   S    
O31   Zn11  S    
C60   C121  S    
C16   C132  A    
C114  O41   A    
O27   Zn3   S    
C110  O46   A    
C121  O35   A    
C86   C95   T    
C42   C49   A    
C139  H7    S    
C27   H46   S    
C14   C49   A    
C106  O14   A    
C5    C131  A    
C39   C50   A    
C53   C123  S    
C39   H58   S    
C15   H33   S    
C5    C40   A    
C103  O10   A    
C70   C75   T    
C85   C100  S    
C10   H29   S    
C4    C120  A    
C7    C109  A    
C17   H36   S    
C89   C90   S    
C57   C146  A    
C109  C129  A    
C119  O27   A    
C116  O39   A    
C43   C113  S    
C126  H23   S    
C131  C132  A    
C29   C145  A    
C13   C135  A    
C49   C110  S    
C81   C104  S    
C146  H14   S    
