data_mof_unit_27917.cif
_audit_creation_date              2012-12-10T18:09:55-0500
_audit_creation_method            fapswitch 2.2
_symmetry_space_group_name_H-M    P1
_symmetry_Int_Tables_number       1
_space_group_crystal_system       triclinic
_cell_length_a                    10.775058
_cell_length_b                    12.643116
_cell_length_c                    13.234322
_cell_angle_alpha                 82.760783
_cell_angle_beta                  90.91162
_cell_angle_gamma                 102.777354
_cell_volume                      1744.12088532

loop_
_atom_site_label
_atom_site_type_symbol
_atom_type_description
_atom_site_fract_x
_atom_site_fract_y
_atom_site_fract_z
_atom_type_partial_charge
C1    C     C_R   0.471918 0.440573 0.690354 0.905048
C2    C     C_R   0.420278 0.455560 0.970741 0.022096
C3    C     C_R   0.423597 0.487014 0.864457 0.092521
C4    C     C_R   0.741646 0.500014 0.500792 0.873157
C5    C     C_R   0.454308 0.539160 0.034784 0.082865
C6    C     C_R   0.501716 0.648203 0.991522 0.135990
C7    C     C_R   0.473819 0.679075 0.891341 -0.174032
C8    C     C_R   0.426951 0.598663 0.829880 -0.110427
C9    C     C_R   0.452015 0.517886 0.139989 -0.276552
C10   C     C_R   0.607093 0.687719 0.149241 0.083812
C11   C     C_R   0.430788 0.407838 0.797866 -0.106851
C12   C     C_3   0.121511 0.502330 0.501348 0.062226
C13   C     C_R   0.307528 0.078859 0.357962 -0.055023
C14   C     C_R   0.630741 0.799152 0.642769 0.114814
C15   C     C_R   0.630237 0.894845 0.685018 -0.295684
C16   C     C_R   0.519761 0.560037 0.308912 0.829227
C17   C     C_R   0.570545 0.972339 0.635482 -0.177647
C18   C     C_R   0.516668 0.957555 0.540034 0.023668
C19   C     C_R   0.515266 0.857661 0.500660 0.187461
C20   C     C_R   0.465034 0.039034 0.481467 -0.034475
C21   C     C_R   0.386653 0.009281 0.398260 -0.043257
C22   C     C_R   0.398482 0.915517 0.354175 -0.104331
C23   C     C_3   0.072944 0.512897 0.388716 -0.097350
C24   C     C_R   0.482776 0.852886 0.398734 0.056621
C25   C     C_R   0.491584 0.149491 0.499692 -0.058715
C26   C     C_R   0.334474 0.186775 0.381283 0.163698
C27   C     C_R   0.257906 0.499268 0.501891 0.843324
C28   C     C_3   0.899972 0.384066 0.540296 -0.390432
C29   C     C_3   0.043040 0.390374 0.554421 -0.494047
C30   C     C_3   0.934997 0.532567 0.389214 -0.131509
C31   C     C_3   0.948101 0.582989 0.570551 -0.146065
C32   C     C_3   0.878112 0.499583 0.500105 0.076810
C33   C     C_2   0.352115 0.896941 0.250121 0.926621
C34   C     C_3   0.095323 0.601341 0.557064 0.038354
C35   C     C_2   0.187910 0.036249 0.303918 0.954155
C36   C     C_2   0.722721 0.737071 0.685542 0.958057
C37   C     C_2   0.161758 0.611027 0.660286 0.869275
C38   C     C_R   0.582116 0.721354 0.047730 -0.168076
C39   C     C_R   0.525887 0.592381 0.198924 -0.067850
C40   C     C_R   0.408908 0.297089 0.837052 -0.257783
C41   C     C_R   0.390057 0.264357 0.941503 0.176970
C42   C     C_R   0.398903 0.343091 0.007989 -0.160315
H1    H     H_    0.863081 0.326043 0.484485 0.218391
H2    H     H_    0.560651 0.179611 0.555179 0.131561
H3    H     H_    0.570089 0.044201 0.671735 0.139862
H4    H     H_    0.680053 0.911046 0.755184 0.152804
H5    H     H_    0.064618 0.376665 0.636336 0.241874
H6    H     H_    0.066620 0.320806 0.521018 0.188850
H7    H     H_    0.070962 0.434196 0.357996 0.159242
H8    H     H_    0.922481 0.662064 0.544176 0.222584
H9    H     H_    0.111192 0.770322 0.521805 0.233092
H10   H     H_    0.236041 0.730106 0.482224 0.244833
H11   H     H_    0.114341 0.607507 0.250270 0.216205
H12   H     H_    0.937892 0.621178 0.366653 0.171778
H13   H     H_    0.240942 0.575780 0.309159 0.190244
H14   H     H_    0.731226 0.711071 0.269398 0.197090
H15   H     H_    0.729768 0.824750 0.186141 0.189167
H16   H     H_    0.357592 0.102010 0.923734 0.176202
H17   H     H_    0.456529 0.141550 0.017742 0.209057
H18   H     H_    0.297405 0.332144 0.317187 0.226398
H19   H     H_    0.188351 0.256562 0.406165 0.192737
H20   H     H_    0.335225 0.959147 0.104584 0.348487
H21   H     H_    0.036359 0.911462 0.294264 0.346303
H22   H     H_    0.768300 0.635732 0.804221 0.336026
H23   H     H_    0.493636 0.764345 0.859422 0.154322
H24   H     H_    0.645114 0.910954 0.317883 0.166743
H25   H     H_    0.540372 0.814395 0.266057 0.206519
H26   H     H_    0.904906 0.487142 0.245130 0.193246
H27   H     H_    0.774330 0.500243 0.302154 0.186544
H28   H     H_    0.940757 0.612934 0.720464 0.228386
H29   H     H_    0.925907 0.479811 0.709403 0.225712
H30   H     H_    0.179573 0.537552 0.802642 0.342520
H31   H     H_    0.634215 0.799463 0.010357 0.140142
H32   H     H_    0.393985 0.442618 0.176320 0.154375
H33   H     H_    0.411128 0.236063 0.786908 0.158052
H34   H     H_    0.394751 0.314186 0.088431 0.163128
H35   H     H_    0.847250 0.349428 0.612772 0.172527
H36   H     H_    0.401714 0.627177 0.754131 0.215555
N1    N     N_R   0.433240 0.222190 0.444680 -0.118059
N2    N     N_3   0.900702 0.551286 0.676474 -0.441336
N3    N     N_R   0.566070 0.776970 0.554790 -0.156654
N4    N     N_3   0.137499 0.706567 0.490080 -0.411419
N5    N     N_3   0.156484 0.600179 0.321791 -0.382322
N6    N     N_3   0.724140 0.740632 0.192759 -0.463827
N7    N     N_3   0.371686 0.151501 0.982387 -0.409271
N8    N     N_3   0.248432 0.254327 0.345937 -0.432240
N9    N     N_3   0.580011 0.836126 0.334647 -0.418469
N10   N     N_3   0.856830 0.470188 0.315334 -0.446203
O1    O     O_R   0.468120 0.366740 0.627160 -0.624340
O2    O     O_R   0.369768 0.983694 0.171528 -0.817817
O3    O     O_2   0.153083 0.091997 0.231281 -0.591843
O4    O     O_R   0.115023 0.931838 0.336894 -0.813567
O5    O     O_2   0.831739 0.764034 0.652747 -0.663537
O6    O     O_R   0.692507 0.661954 0.772965 -0.809462
O7    O     O_2   0.214888 0.700892 0.682697 -0.644816
O8    O     O_R   0.155284 0.518677 0.731849 -0.868753
O9    O     O_R   0.510770 0.544830 0.662520 -0.608771
O10   O     O_R   0.663880 0.410950 0.482330 -0.614702
O11   O     O_R   0.706530 0.589040 0.517700 -0.617380
O12   O     O_R   0.489230 0.455170 0.337480 -0.632734
O13   O     O_R   0.531880 0.633260 0.372840 -0.589673
O14   O     O_R   0.293470 0.410960 0.482300 -0.651424
O15   O     O_R   0.336120 0.589050 0.517670 -0.630056
O16   O     O_2   0.303337 0.804457 0.232371 -0.625792
Zn1   Zn    Zn3+2 0.471520 0.381090 0.476390 0.932763
Zn2   Zn    Zn3+2 0.528480 0.618910 0.523610 0.984796

loop_
_geom_bond_atom_site_label_1
_geom_bond_atom_site_label_2
_ccdc_geom_bond_type
C4    O10   A    
C12   C29   S    
C34   C37   S    
C41   C42   A    
C1    C11   S    
C7    C8    A    
C30   H12   S    
C12   C23   S    
C37   O7    D    
O12   Zn1   S    
O10   Zn1   S    
C23   N5    S    
C29   H5    S    
C28   C29   S    
C17   H3    S    
C13   C35   S    
C14   C36   S    
C5    C6    A    
C23   H7    S    
C20   C25   A    
C33   O16   D    
C9    C39   A    
N1    Zn1   S    
O14   Zn1   S    
C18   C19   A    
C27   O15   A    
C22   C33   S    
C36   O5    D    
H21   O4    S    
C6    C38   A    
C35   O4    S    
C21   C22   A    
C8    H36   S    
C25   H2    S    
H29   N2    S    
H14   N6    S    
C31   C34   S    
C29   H6    S    
H28   N2    S    
C23   C30   S    
C28   C32   S    
C31   N2    S    
C3    C8    A    
C1    O9    A    
H24   N9    S    
H18   N8    S    
C16   O12   A    
C12   C27   S    
C37   O8    S    
C10   C39   A    
H17   N7    S    
C5    C9    A    
C7    H23   S    
C31   C32   S    
C26   N8    S    
C17   C18   A    
H15   N6    S    
C13   C21   A    
C12   C34   S    
H10   N4    S    
C28   H35   S    
H9    N4    S    
C4    C32   S    
H27   N10   S    
O9    Zn2   S    
C40   C41   A    
H26   N10   S    
C22   C24   A    
C13   C26   A    
C2    C5    A    
C9    H32   S    
C31   H8    S    
H13   N5    S    
H16   N7    S    
O13   Zn2   S    
C15   C17   A    
O11   Zn2   S    
N3    Zn2   S    
C1    O1    A    
C27   O14   A    
C25   N1    A    
C42   H34   S    
C6    C7    A    
C41   N7    S    
C28   H1    S    
H25   N9    S    
C26   N1    A    
C14   N3    A    
C40   H33   S    
C10   C38   A    
H11   N5    S    
C2    C3    A    
H22   O6    S    
C33   O2    S    
C30   C32   S    
C2    C42   A    
H20   O2    S    
C10   N6    S    
C19   C24   A    
O15   Zn2   S    
C18   C20   A    
C11   C40   A    
C24   N9    S    
C3    C11   A    
H19   N8    S    
C16   C39   S    
H30   O8    S    
C36   O6    S    
C16   O13   A    
C20   C21   A    
C4    O11   A    
O1    Zn1   S    
C14   C15   A    
C34   N4    S    
C15   H4    S    
C19   N3    A    
C30   N10   S    
C38   H31   S    
C35   O3    D    
