data_mof_unit_46052.cif
_audit_creation_date              2013-03-05T15:52:31-0500
_audit_creation_method            fapswitch 2.2
_symmetry_space_group_name_H-M    P1
_symmetry_Int_Tables_number       1
_space_group_crystal_system       triclinic
_cell_length_a                    6.973692
_cell_length_b                    20.480126
_cell_length_c                    24.354849
_cell_angle_alpha                 89.898353
_cell_angle_beta                  90.842903
_cell_angle_gamma                 89.021702
_cell_volume                      3477.51993872

loop_
_atom_site_label
_atom_site_type_symbol
_atom_site_description
_atom_site_fract_x
_atom_site_fract_y
_atom_site_fract_z
_atom_type_partial_charge
O1    O     O_R   0.507310 0.423620 0.460450 -0.594017
O2    O     O_R   0.170760 0.556060 0.437190 -0.581679
O3    O     O_R   0.004040 0.576380 0.539550 -0.593928
C1    C     C_R   0.337679 0.576132 0.421213 1.012275
O4    O     O_R   0.177350 0.422870 0.454070 -0.572176
O5    O     O_R   0.010680 0.442240 0.556560 -0.588375
C2    C     C_R   0.346661 0.398900 0.443615 1.075580
O6    O     O_R   0.500670 0.557760 0.443440 -0.595042
O7    O     O_3   0.340380 0.506510 0.533610 -0.274501
V1    V     V_3+5 0.064130 0.498790 0.493770 1.240958
O8    O     O_R   0.681170 0.443940 0.562810 -0.580500
C3    C     C_R   0.851788 0.424019 0.578557 0.979510
O9    O     O_R   0.674570 0.577130 0.545930 -0.584847
C4    C     C_R   0.842389 0.600984 0.556846 0.978318
V2    V     V_3+5 0.564560 0.501210 0.506230 1.236189
O10   O     O_3   0.838170 0.493490 0.466390 -0.268369
C5    C     C_R   0.974976 0.836776 0.912345 -0.293816
C6    C     C_R   0.844381 0.662568 0.588421 -0.208146
C7    C     C_R   0.008642 0.719089 0.907415 -0.099192
C8    C     C_R   0.018877 0.776653 0.938239 0.311254
C9    C     C_R   0.931593 0.838120 0.855724 -0.206330
C10   C     C_R   0.926795 0.779960 0.823590 0.145896
C11   C     C_R   0.954850 0.719604 0.851338 -0.139901
C12   C     C_R   0.893845 0.779724 0.765164 -0.024581
C13   C     C_R   0.878753 0.719377 0.736035 -0.095590
C14   C     C_R   0.871053 0.660847 0.767408 0.336007
C15   C     C_R   0.922348 0.660448 0.823404 0.239064
C16   C     C_R   0.877223 0.838189 0.734906 -0.244093
C17   C     C_R   0.833755 0.839247 0.678924 0.522228
C18   C     C_R   0.816396 0.780190 0.649165 -0.197023
C19   C     C_R   0.860574 0.720221 0.677016 0.096892
C20   C     C_R   0.761327 0.777932 0.592503 0.562666
C21   C     C_R   0.772652 0.719258 0.563607 -0.241704
C22   C     C_R   0.892960 0.663553 0.644449 -0.108934
H1    H     H_    0.957288 0.619770 0.661878 0.170404
H2    H     H_    0.725412 0.717849 0.521005 0.171320
H3    H     H_    0.039822 0.673339 0.928219 0.211839
H4    H     H_    0.900160 0.885566 0.838340 0.120983
H5    H     H_    0.898518 0.885030 0.753772 0.174027
C23   C     C_3   0.730115 0.233140 0.784506 -0.519948
C24   C     C_3   0.064420 0.267461 0.799959 0.257264
C25   C     C_3   0.072739 0.307716 0.745810 -0.408197
H6    H     H_    0.682054 0.252720 0.824642 0.275314
H7    H     H_    0.988496 0.298728 0.830469 0.156006
H8    H     H_    0.064123 0.360631 0.755943 0.242790
H9    H     H_    0.214008 0.299989 0.726409 0.238812
C26   C     C_1   0.867184 0.377966 0.623607 -0.172521
C27   C     C_3   0.938094 0.205716 0.790207 -0.138824
C28   C     C_3   0.715482 0.287226 0.739223 0.324884
C29   C     C_3   0.905119 0.288919 0.705495 -0.165761
C30   C     C_3   0.943461 0.217300 0.682375 0.316870
C31   C     C_3   0.983757 0.170308 0.734379 0.036239
C32   C     C_1   0.883751 0.338428 0.660621 0.254434
C33   C     C_1   0.947585 0.158976 0.837296 0.197741
C34   C     C_1   0.958329 0.120951 0.875550 -0.196352
H10   H     H_    0.885494 0.128317 0.732638 0.165231
H11   H     H_    0.633492 0.192534 0.774120 0.261390
H12   H     H_    0.591895 0.276390 0.711574 0.163527
C35   C     C_3   0.546432 0.683878 0.253752 -0.560176
C36   C     C_3   0.199174 0.715649 0.254715 -0.451354
C37   C     C_3   0.234119 0.762695 0.205313 0.303282
H13   H     H_    0.504914 0.636945 0.234370 0.252292
H14   H     H_    0.075348 0.732616 0.279272 0.236399
H15   H     H_    0.159090 0.666929 0.238433 0.193267
H16   H     H_    0.220123 0.734649 0.166624 0.200621
C38   C     C_1   0.479746 0.878342 0.124709 -0.135142
C39   C     C_3   0.382618 0.708344 0.291594 0.055403
C40   C     C_3   0.591774 0.736310 0.209314 0.151745
C41   C     C_3   0.437940 0.793124 0.209336 -0.183327
C42   C     C_3   0.451699 0.828100 0.266484 0.206369
C43   C     C_3   0.441496 0.776831 0.314224 0.084349
C44   C     C_1   0.465841 0.840116 0.162817 0.261928
C45   C     C_1   0.356897 0.660438 0.337411 0.109610
C46   C     C_1   0.344165 0.621787 0.375289 -0.229340
H17   H     H_    0.588138 0.770407 0.332527 0.154427
H18   H     H_    0.678550 0.673184 0.278640 0.179117
H19   H     H_    0.730955 0.757557 0.221522 0.190841
H20   H     H_    0.331294 0.864000 0.269685 0.213469
C47   C     C_R   0.471778 0.162206 0.088220 -0.166609
C48   C     C_R   0.356982 0.338800 0.410498 -0.302846
C49   C     C_R   0.545365 0.277399 0.093903 0.346961
C50   C     C_R   0.533463 0.219526 0.063847 -0.233040
C51   C     C_R   0.419002 0.162290 0.143520 -0.208225
C52   C     C_R   0.434771 0.219474 0.176312 0.119220
C53   C     C_R   0.503450 0.277065 0.150762 -0.030078
C54   C     C_R   0.393338 0.220694 0.234049 0.038045
C55   C     C_R   0.417580 0.279358 0.264780 0.119703
C56   C     C_R   0.504918 0.332258 0.238873 -0.098577
C57   C     C_R   0.542851 0.331750 0.183189 -0.123976
C58   C     C_R   0.332266 0.164969 0.262385 -0.286636
C59   C     C_R   0.314553 0.164044 0.319464 0.384254
C60   C     C_R   0.350433 0.221127 0.350447 -0.221651
C61   C     C_R   0.373984 0.281301 0.322106 -0.063370
C62   C     C_R   0.364738 0.220549 0.408740 0.565639
C63   C     C_R   0.372010 0.279086 0.437702 -0.286218
C64   C     C_R   0.352834 0.340585 0.352666 0.396028
H21   H     H_    0.612446 0.373973 0.166392 0.195367
H22   H     H_    0.383681 0.278007 0.482147 0.203865
H23   H     H_    0.571378 0.219234 0.020833 0.170409
H24   H     H_    0.374275 0.116241 0.159949 0.125472
H25   H     H_    0.556555 0.373486 0.261918 0.189301
H26   H     H_    0.296915 0.120555 0.241295 0.172506
O11   O     O_R   0.323590 0.942280 0.056590 -0.568736
O12   O     O_R   0.647030 0.077140 0.045940 -0.594453
O13   O     O_R   0.813570 0.057750 0.943430 -0.596023
C65   C     C_R   0.477998 0.101219 0.056342 0.961124
O14   O     O_R   0.653510 0.943950 0.062820 -0.560009
O15   O     O_R   0.820100 0.923600 0.960440 -0.578450
C66   C     C_R   0.486580 0.923806 0.078717 0.971127
O16   O     O_R   0.317060 0.076430 0.039590 -0.592544
O17   O     O_3   0.483830 0.993520 0.966410 -0.276960
V3    V     V_3+5 0.760140 0.001200 0.006230 1.249306
O18   O     O_R   0.149560 0.922820 0.954030 -0.590104
C67   C     C_R   0.981512 0.898851 0.943341 1.034136
O19   O     O_R   0.143080 0.056020 0.937150 -0.576009
C68   C     C_R   0.972530 0.075925 0.921378 0.951197
V4    V     V_3+5 0.259690 0.998730 0.993720 1.245594
O20   O     O_3   0.986120 0.006480 0.033580 -0.261629
N1    N     N_R   0.926394 0.599478 0.852737 0.273654
O21   O     O_R   0.033804 0.551223 0.835806 -0.250276
O22   O     O_R   0.806980 0.589755 0.892372 -0.278240
Cl1   Cl    Cl    0.654284 0.843408 0.555447 -0.379121
Cl2   Cl    Cl    0.659381 0.365508 0.768798 -0.484704
N2    N     N_R   0.256800 0.255947 0.823893 0.249613
O23   O     O_R   0.350604 0.306145 0.841785 -0.303502
O24   O     O_R   0.319620 0.197904 0.837595 -0.387212
N3    N     N_R   0.177757 0.141152 0.735136 0.294322
O25   O     O_R   0.200074 0.078057 0.738679 -0.296004
O26   O     O_R   0.327934 0.176818 0.728619 -0.337390
N4    N     N_R   0.771791 0.197100 0.650262 0.237196
O27   O     O_R   0.665957 0.148485 0.664870 -0.271314
O28   O     O_R   0.729780 0.226436 0.604055 -0.316279
N5    N     N_R   0.106742 0.213890 0.644160 0.280143
O29   O     O_R   0.142300 0.159401 0.618470 -0.190941
O30   O     O_R   0.206613 0.264783 0.631605 -0.381481
N6    N     N_R   0.615770 0.706645 0.154899 0.259305
O31   O     O_R   0.775153 0.714440 0.128750 -0.284876
O32   O     O_R   0.485124 0.669417 0.133541 -0.324477
Cl3   Cl    Cl    0.049912 0.824709 0.200217 -0.558960
N7    N     N_R   0.314734 0.800070 0.357980 0.261903
O33   O     O_R   0.382317 0.806210 0.407750 -0.278804
O34   O     O_R   0.137376 0.817248 0.347566 -0.300702
Cl4   Cl    Cl    0.663079 0.876191 0.274128 -0.457667
Cl5   Cl    Cl    0.282328 0.415479 0.320987 -0.671447
N8    N     N_R   0.238045 0.106536 0.344075 0.273096
O35   O     O_R   0.081193 0.111026 0.372232 -0.271172
O36   O     O_R   0.301276 0.049058 0.329540 -0.266260
N9    N     N_R   0.600606 0.335910 0.065970 0.243348
O37   O     O_R   0.730213 0.333044 0.028105 -0.318538
O38   O     O_R   0.498988 0.389362 0.071217 -0.304361
Cl6   Cl    Cl    0.830428 0.917788 0.648839 -0.389307
Cl7   Cl    Cl    0.400439 0.148796 0.448110 -0.353672
N10   N     N_R   0.070343 0.772629 0.995770 0.238014
O39   O     O_R   0.996291 0.812994 0.031149 -0.357212
O40   O     O_R   0.178353 0.724571 0.013890 -0.306373
Cl8   Cl    Cl    0.750276 0.590773 0.742907 -0.528757

loop_
_geom_bond_atom_site_label_1
_geom_bond_atom_site_label_2
_geom_bond_distance
_ccdc_geom_bond_type
C13   C19   1.441186 A    
C43   H17   1.115160 S    
C55   C56   1.405078 A    
C42   H20   1.110293 S    
C24   C25   1.556366 S    
C4    C6    1.478516 S    
O13   C68   1.298753 A    
C14   Cl8   1.776123 S    
C7    C8    1.401059 A    
C1    O6    1.301206 A    
C21   H2    1.084552 S    
O12   C65   1.298565 A    
C56   H25   1.078786 S    
C63   H22   1.084473 S    
C27   C33   1.492522 S    
C14   C15   1.404804 A    
C36   H14   1.108954 S    
C24   N2    1.470033 S    
N2    O24   1.301108 A    
C16   C17   1.392413 A    
N9    O38   1.301385 A    
C41   C42   1.568900 S    
C50   H23   1.084209 S    
O5    C3    1.298053 A    
C18   C19   1.428772 A    
C39   C43   1.566984 S    
C64   Cl5   1.774408 S    
C34   C68   1.447711 S    
C62   Cl7   1.765330 S    
O19   C68   1.302980 A    
C28   Cl2   1.798106 S    
C5    C8    1.409348 A    
C22   H1    1.079257 S    
C45   C46   1.219723 T    
O15   C67   1.300942 A    
C58   H26   1.075916 S    
C7    H3    1.081665 S    
C35   C39   1.555182 S    
O8    V2    1.965855 S    
C31   N3    1.469306 S    
C23   H6    1.111349 S    
C38   C44   1.219171 T    
C9    H4    1.077049 S    
O17   V3    2.152703 S    
C36   C39   1.557196 S    
C40   C41   1.569115 S    
O19   V4    1.965927 S    
C12   C13   1.430802 A    
C42   C43   1.568475 S    
O1    V2    1.985568 S    
C11   C15   1.410604 A    
N10   O40   1.301612 A    
O7    V1    2.152616 S    
C1    C46   1.458268 S    
C26   C32   1.213616 T    
O9    C4    1.299933 A    
O14   C66   1.305514 A    
O11   V4    1.958507 S    
C3    C26   1.447172 S    
O16   V4    1.988784 S    
N8    O36   1.301463 A    
C30   N4    1.485468 S    
C5    C67   1.480729 S    
C49   C50   1.397216 A    
N1    O22   1.301393 A    
C29   C32   1.493604 S    
C8    N10   1.443142 S    
C30   C31   1.607884 S    
C18   C20   1.428029 A    
C20   Cl1   1.763970 S    
C40   N6    1.469458 S    
C52   C53   1.425903 A    
N6    O32   1.301217 A    
C54   C58   1.408029 A    
C59   C60   1.416436 A    
O12   V3    1.990542 S    
C53   C57   1.400280 A    
C54   C55   1.427807 A    
C37   Cl3   1.793787 S    
C16   H5    1.076049 S    
C13   C14   1.422567 A    
C5    C9    1.407547 A    
C28   H12   1.111517 S    
O15   V3    1.985344 S    
C47   C65   1.472166 S    
C57   H21   1.081475 S    
C36   C37   1.564578 S    
C36   H15   1.112953 S    
C25   H8    1.112698 S    
C41   C44   1.502228 S    
O2    C1    1.305554 A    
N3    O26   1.298533 A    
C17   C18   1.417161 A    
C35   C40   1.562678 S    
C17   Cl6   1.766024 S    
C51   C52   1.423612 A    
O8    C3    1.303334 A    
C49   N9    1.437960 S    
C60   C62   1.421757 A    
C29   C30   1.591837 S    
C42   Cl4   1.794393 S    
C19   C22   1.423580 A    
O14   V3    1.970131 S    
N7    O33   1.301149 A    
C48   C63   1.391492 A    
C6    C22   1.401406 A    
O3    C4    1.302878 A    
C25   C29   1.568934 S    
C39   C45   1.499314 S    
O13   V3    1.960790 S    
O6    V2    1.958176 S    
C51   H24   1.076660 S    
O9    V2    1.991290 S    
C25   H9    1.107920 S    
N5    O29   1.302260 A    
C24   H7    1.115448 S    
O18   V4    1.991336 S    
C48   C64   1.408753 A    
N3    O25   1.301459 A    
O2    V1    1.970205 S    
N8    O35   1.301571 A    
C59   N8    1.435059 S    
C7    C11   1.410968 A    
O4    C2    1.299783 A    
O18   C67   1.301252 A    
C65   O16   1.300213 A    
C37   C41   1.563545 S    
C40   H19   1.107351 S    
C23   C27   1.550589 S    
C33   C34   1.213871 T    
C35   H13   1.112500 S    
C23   H11   1.106559 S    
O1    C2    1.298511 A    
C12   C16   1.407061 A    
C52   C54   1.439873 A    
N6    O31   1.301148 A    
O5    V1    1.960626 S    
C47   C50   1.392059 A    
N1    O21   1.301156 A    
C43   N7    1.469278 S    
N7    O34   1.301334 A    
C15   N1    1.437130 S    
C61   C64   1.431850 A    
O17   V4    1.709432 S    
O11   C66   1.300802 A    
N4    O28   1.301965 A    
C20   C21   1.395304 A    
N4    O27   1.301595 A    
O7    V2    1.710466 S    
O4    V1    1.990407 S    
O3    V1    1.985226 S    
V1    O10   1.707251 S    
V4    O20   2.156847 S    
V3    O20   1.707070 S    
C30   N5    1.482026 S    
C58   C59   1.397580 A    
C31   H10   1.109211 S    
V2    O10   2.156832 S    
C55   C61   1.433720 A    
C60   C61   1.424567 A    
C24   C27   1.569882 S    
C10   C12   1.438067 A    
N9    O37   1.301440 A    
C38   C66   1.457154 S    
C62   C63   1.393325 A    
C6    C21   1.390046 A    
C47   C51   1.401406 A    
C37   H16   1.108354 S    
C27   C31   1.576177 S    
C56   C57   1.385569 A    
C28   C29   1.567903 S    
N5    O30   1.301872 A    
C10   C11   1.416961 A    
N2    O23   1.300341 A    
N10   O39   1.301372 A    
C9    C10   1.427005 A    
C35   H18   1.113758 S    
C49   C53   1.419521 A    
C23   C28   1.562749 S    
C2    C48   1.474085 S    
