data_mof_unit_65136.cif
_audit_creation_date              2012-12-10T20:28:00-0500
_audit_creation_method            fapswitch 2.2
_symmetry_space_group_name_H-M    P1
_symmetry_Int_Tables_number       1
_space_group_crystal_system       triclinic
_cell_length_a                    25.935713
_cell_length_b                    36.329153
_cell_length_c                    22.339053
_cell_angle_alpha                 89.999416
_cell_angle_beta                  125.554973
_cell_angle_gamma                 90.000326
_cell_volume                      17124.0597076

loop_
_atom_site_label
_atom_site_type_symbol
_atom_type_description
_atom_site_fract_x
_atom_site_fract_y
_atom_site_fract_z
_atom_type_partial_charge
C1    C     C_R   0.140450 0.250304 0.000587 0.839502
C2    C     C_R   0.859550 0.749695 0.999413 0.839497
C3    C     C_R   0.859550 0.250304 0.999413 0.839490
C4    C     C_R   0.140450 0.749695 0.000587 0.839489
C5    C     C_R   0.640450 0.750305 0.000587 0.839496
C6    C     C_R   0.359550 0.249695 0.999413 0.839502
C7    C     C_R   0.359550 0.750305 0.999413 0.839490
C8    C     C_R   0.640450 0.249696 0.000586 0.839489
C9    C     C_R   0.879271 0.178434 0.108861 0.171034
C10   C     C_R   0.120667 0.821526 0.891039 0.171079
C11   C     C_R   0.120705 0.178449 0.891106 0.171073
C12   C     C_R   0.879339 0.821522 0.108968 0.171101
C13   C     C_R   0.379333 0.678474 0.108961 0.171079
C14   C     C_R   0.620729 0.321565 0.891139 0.171034
C15   C     C_R   0.620661 0.678478 0.891031 0.171101
C16   C     C_R   0.379295 0.321551 0.108894 0.171074
C17   C     C_R   0.825362 0.183624 0.035682 0.054281
C18   C     C_R   0.174587 0.816362 0.964221 0.054247
C19   C     C_R   0.174619 0.183629 0.964285 0.054264
C20   C     C_R   0.825418 0.816361 0.035786 0.054241
C21   C     C_R   0.325413 0.683637 0.035778 0.054247
C22   C     C_R   0.674638 0.316376 0.964318 0.054281
C23   C     C_R   0.674582 0.683639 0.964214 0.054241
C24   C     C_R   0.325381 0.316371 0.035715 0.054264
C25   C     C_R   0.810140 0.157112 0.980781 0.203234
C26   C     C_R   0.189795 0.842893 0.019088 0.203115
C27   C     C_R   0.189837 0.157111 0.019176 0.203250
C28   C     C_R   0.810212 0.842893 0.980922 0.203119
C29   C     C_R   0.310205 0.657107 0.980912 0.203114
C30   C     C_R   0.689860 0.342888 0.019219 0.203233
C31   C     C_R   0.689788 0.657107 0.019078 0.203119
C32   C     C_R   0.310163 0.342889 0.980825 0.203249
C33   C     C_R   0.849594 0.125826 0.000184 0.256447
C34   C     C_R   0.150318 0.874171 0.999648 0.256413
C35   C     C_R   0.150375 0.125827 0.999762 0.256447
C36   C     C_R   0.849691 0.874171 0.000364 0.256414
C37   C     C_R   0.349682 0.625829 0.000352 0.256412
C38   C     C_R   0.650406 0.374174 0.999815 0.256447
C39   C     C_R   0.650309 0.625829 0.999636 0.256414
C40   C     C_R   0.349625 0.374173 0.000239 0.256447
C41   C     C_R   0.902963 0.121475 0.072847 -0.220707
C42   C     C_R   0.096938 0.878496 0.926984 -0.220749
C43   C     C_R   0.097001 0.121485 0.927099 -0.220737
C44   C     C_R   0.903072 0.878493 0.073028 -0.220763
C45   C     C_R   0.403062 0.621505 0.073016 -0.220750
C46   C     C_R   0.597037 0.378525 0.927153 -0.220708
C47   C     C_R   0.596928 0.621507 0.926972 -0.220764
C48   C     C_R   0.402999 0.378514 0.072902 -0.220738
C49   C     C_R   0.232000 0.716991 0.017515 0.119417
C50   C     C_R   0.768027 0.283016 0.982538 0.119372
C51   C     C_R   0.767998 0.716991 0.982482 0.119412
C52   C     C_R   0.231983 0.283014 0.017480 0.119363
C53   C     C_R   0.731973 0.216984 0.017462 0.119370
C54   C     C_R   0.268000 0.783009 0.982485 0.119416
C55   C     C_R   0.268017 0.216986 0.982520 0.119361
C56   C     C_R   0.732002 0.783009 0.017518 0.119411
C57   C     C_R   0.196493 0.749683 0.000400 -0.112996
C58   C     C_R   0.803507 0.250316 0.999601 -0.113031
C59   C     C_R   0.803507 0.749683 0.999601 -0.112999
C60   C     C_R   0.196492 0.250317 0.000399 -0.113036
C61   C     C_R   0.696493 0.249684 0.000399 -0.113031
C62   C     C_R   0.303507 0.750317 0.999600 -0.112996
C63   C     C_R   0.303507 0.249683 0.999601 -0.113036
C64   C     C_R   0.696493 0.750317 0.000399 -0.112999
C65   C     C_R   0.214075 0.782572 0.983074 -0.010816
C66   C     C_R   0.785898 0.217421 0.016874 -0.010807
C67   C     C_R   0.785928 0.782572 0.016931 -0.010811
C68   C     C_R   0.214091 0.217423 0.983107 -0.010797
C69   C     C_R   0.714102 0.282579 0.983126 -0.010807
C70   C     C_R   0.285925 0.717427 0.016926 -0.010816
C71   C     C_R   0.285908 0.282577 0.016893 -0.010797
C72   C     C_R   0.714072 0.717428 0.983069 -0.010811
C73   C     C_R   0.777485 0.242321 0.461744 0.160549
C74   C     C_R   0.223100 0.759306 0.538252 0.160560
C75   C     C_R   0.221960 0.244326 0.538262 0.160483
C76   C     C_R   0.777155 0.758637 0.461746 0.160544
C77   C     C_R   0.276900 0.740694 0.461748 0.160560
C78   C     C_R   0.722515 0.257678 0.538256 0.160549
C79   C     C_R   0.722845 0.741364 0.538254 0.160542
C80   C     C_R   0.278040 0.255674 0.461738 0.160483
C81   C     C_R   0.711864 0.249938 0.422602 0.032418
C82   C     C_R   0.288138 0.750084 0.577399 0.032463
C83   C     C_R   0.288135 0.249966 0.577398 0.032431
C84   C     C_R   0.711864 0.750075 0.422601 0.032464
C85   C     C_R   0.211862 0.749916 0.422601 0.032463
C86   C     C_R   0.788135 0.250062 0.577398 0.032418
C87   C     C_R   0.788137 0.749926 0.577399 0.032466
C88   C     C_R   0.211865 0.250034 0.422602 0.032431
C89   C     C_R   0.098954 0.249970 0.197885 0.824549
C90   C     C_R   0.901044 0.750028 0.802114 0.824364
C91   C     C_R   0.901045 0.249971 0.802114 0.824423
C92   C     C_R   0.098955 0.750027 0.197886 0.824327
C93   C     C_R   0.598955 0.749972 0.197885 0.824365
C94   C     C_R   0.401045 0.250030 0.802114 0.824549
C95   C     C_R   0.401044 0.749972 0.802114 0.824327
C96   C     C_R   0.598955 0.250028 0.197886 0.824423
C97   C     C_R   0.684186 0.257615 0.460229 0.149281
C98   C     C_R   0.315232 0.740786 0.539774 0.149724
C99   C     C_R   0.316368 0.255645 0.539766 0.148684
C100  C     C_R   0.684515 0.741444 0.460227 0.149534
C101  C     C_R   0.184768 0.759214 0.460226 0.149724
C102  C     C_R   0.815813 0.242385 0.539771 0.149281
C103  C     C_R   0.815484 0.758556 0.539773 0.149532
C104  C     C_R   0.183632 0.244355 0.460234 0.148683
C105  C     C_1   0.671911 0.249946 0.342891 -0.009795
C106  C     C_1   0.328087 0.750072 0.657110 -0.009527
C107  C     C_1   0.328093 0.249970 0.657109 -0.010163
C108  C     C_1   0.671913 0.750064 0.342890 -0.009641
C109  C     C_1   0.171913 0.749928 0.342890 -0.009527
C110  C     C_1   0.828089 0.250054 0.657109 -0.009796
C111  C     C_1   0.828087 0.749936 0.657110 -0.009642
C112  C     C_1   0.171907 0.250030 0.342891 -0.010163
C113  C     C_1   0.861482 0.250017 0.723369 -0.155621
C114  C     C_1   0.138522 0.749975 0.276631 -0.155539
C115  C     C_1   0.138512 0.250006 0.276631 -0.155691
C116  C     C_1   0.861479 0.749979 0.723369 -0.155559
C117  C     C_1   0.361478 0.750025 0.723369 -0.155539
C118  C     C_1   0.638518 0.249983 0.276631 -0.155621
C119  C     C_1   0.638521 0.750021 0.276631 -0.155560
C120  C     C_1   0.361488 0.249994 0.723369 -0.155690
C121  C     C_R   0.045836 0.980503 0.065000 0.149716
C122  C     C_R   0.954167 0.019497 0.934996 0.149700
C123  C     C_R   0.954165 0.980503 0.934997 0.149713
C124  C     C_R   0.045835 0.019496 0.065001 0.149690
C125  C     C_R   0.545833 0.480503 0.065004 0.149700
C126  C     C_R   0.454163 0.519497 0.935000 0.149716
C127  C     C_R   0.454165 0.480504 0.934999 0.149690
C128  C     C_R   0.545835 0.519497 0.065003 0.149714
C129  C     C_R   0.000000 0.961209 0.999999 0.030632
C130  C     C_R   0.000001 0.038791 0.999998 0.030645
C131  C     C_R   0.499999 0.461209 0.000002 0.030645
C132  C     C_R   0.499999 0.538791 0.000001 0.030632
C133  C     C_1   0.000000 0.921408 0.999999 -0.043654
C134  C     C_1   1.000000 0.078592 0.999999 -0.043668
C135  C     C_1   0.500000 0.421408 0.000001 -0.043668
C136  C     C_1   0.500000 0.578592 0.000001 -0.043654
C137  C     C_1   1.000000 0.111720 0.999999 -0.156835
C138  C     C_1   0.000000 0.888280 1.000000 -0.156846
C139  C     C_1   0.500000 0.611720 0.000000 -0.156845
C140  C     C_1   0.500000 0.388280 0.000001 -0.156834
C141  C     C_R   0.000000 0.151065 1.000000 0.846534
C142  C     C_R   1.000000 0.848934 1.000000 0.846503
C143  C     C_R   0.500000 0.651065 0.000000 0.846503
C144  C     C_R   0.500000 0.348934 0.000000 0.846534
C145  C     C_R   0.000000 0.348917 1.000000 0.822532
C146  C     C_R   1.000000 0.651083 0.000000 0.822481
C147  C     C_R   0.500000 0.848917 1.000000 0.822483
C148  C     C_R   0.500000 0.151083 0.000000 0.822533
C149  C     C_R   0.047344 0.519394 0.000425 -0.050495
C150  C     C_R   0.952655 0.480606 0.999575 -0.050493
C151  C     C_R   0.952656 0.519394 0.999575 -0.050494
C152  C     C_R   0.047344 0.480606 0.000425 -0.050495
C153  C     C_R   0.547355 0.019394 0.000446 -0.050493
C154  C     C_R   0.452645 0.980606 0.999553 -0.050494
C155  C     C_R   0.452645 0.019394 0.999554 -0.050494
C156  C     C_R   0.547355 0.980606 0.000446 -0.050494
C157  C     C_R   1.000000 0.538745 0.000001 0.023738
C158  C     C_R   1.000000 0.461255 0.999999 0.023738
C159  C     C_R   0.500000 0.038745 0.000000 0.023739
C160  C     C_R   0.500000 0.961255 0.999999 0.023738
C161  C     C_1   1.000000 0.578584 0.000001 -0.026076
C162  C     C_1   0.000000 0.421416 0.999999 -0.026082
C163  C     C_1   0.500000 0.078584 0.000001 -0.026081
C164  C     C_1   0.500000 0.921416 0.999999 -0.026076
C165  C     C_1   0.000000 0.388291 0.999999 -0.127043
C166  C     C_1   1.000000 0.611709 0.000000 -0.127017
C167  C     C_1   0.500000 0.888291 0.999999 -0.127017
C168  C     C_1   0.500000 0.111709 0.000001 -0.127043
C169  C     C_R   0.917541 0.147377 0.126423 -0.206806
C170  C     C_R   0.082372 0.852575 0.873441 -0.206819
C171  C     C_R   0.082426 0.147394 0.873534 -0.206813
C172  C     C_R   0.917636 0.852570 0.126568 -0.206819
C173  C     C_R   0.417628 0.647425 0.126559 -0.206820
C174  C     C_R   0.582458 0.352623 0.873577 -0.206807
C175  C     C_R   0.582364 0.647429 0.873432 -0.206820
C176  C     C_R   0.417574 0.352606 0.126467 -0.206815
H1    H     H_    0.933716 0.097811 0.088388 0.159918
H2    H     H_    0.066166 0.902152 0.911416 0.159891
H3    H     H_    0.066242 0.097824 0.911550 0.159907
H4    H     H_    0.933845 0.902149 0.088598 0.159889
H5    H     H_    0.433834 0.597848 0.088584 0.159891
H6    H     H_    0.566284 0.402189 0.911612 0.159918
H7    H     H_    0.566155 0.597851 0.911402 0.159889
H8    H     H_    0.433758 0.402176 0.088450 0.159907
H9    H     H_    0.959088 0.143072 0.182071 0.156480
H10   H     H_    0.040817 0.856860 0.817790 0.156410
H11   H     H_    0.040875 0.143096 0.817885 0.156432
H12   H     H_    0.959193 0.856854 0.182220 0.156403
H13   H     H_    0.459183 0.643140 0.182210 0.156410
H14   H     H_    0.540912 0.356928 0.817928 0.156479
H15   H     H_    0.540807 0.643146 0.817780 0.156403
H16   H     H_    0.459125 0.356904 0.182116 0.156431
O1    O     O_3   0.000000 0.249990 0.000000 -0.480755
O2    O     O_3   0.000000 0.750010 0.000000 -0.480802
O3    O     O_3   0.500000 0.749990 0.000000 -0.480802
O4    O     O_3   0.500000 0.250010 0.000000 -0.480755
O5    O     O_R   0.094460 0.271340 0.957280 -0.644061
O6    O     O_R   0.905540 0.728660 0.042720 -0.644055
O7    O     O_R   0.905540 0.271340 0.042720 -0.644076
O8    O     O_R   0.094460 0.728660 0.957280 -0.644060
O9    O     O_R   0.594460 0.771340 0.957280 -0.644055
O10   O     O_R   0.405540 0.228660 0.042720 -0.644062
O11   O     O_R   0.405540 0.771340 0.042720 -0.644061
O12   O     O_R   0.594460 0.228660 0.957280 -0.644076
O13   O     O_R   0.111850 0.228640 0.162930 -0.640415
O14   O     O_R   0.888150 0.771360 0.837070 -0.640252
O15   O     O_R   0.888150 0.228640 0.837070 -0.640312
O16   O     O_R   0.111850 0.771360 0.162930 -0.640216
O17   O     O_R   0.611850 0.728640 0.162930 -0.640251
O18   O     O_R   0.388150 0.271360 0.837070 -0.640416
O19   O     O_R   0.388150 0.728640 0.837070 -0.640217
O20   O     O_R   0.611850 0.271360 0.162930 -0.640311
O21   O     O_R   0.051760 0.168530 0.042720 -0.638015
O22   O     O_R   0.948240 0.831470 0.957280 -0.638030
O23   O     O_R   0.948240 0.168530 0.957280 -0.638021
O24   O     O_R   0.051760 0.831470 0.042720 -0.638033
O25   O     O_R   0.551760 0.668530 0.042720 -0.638030
O26   O     O_R   0.448240 0.331470 0.957280 -0.638014
O27   O     O_R   0.448240 0.668530 0.957280 -0.638033
O28   O     O_R   0.551760 0.331470 0.042720 -0.638022
O29   O     O_R   0.009000 0.331450 0.957280 -0.635769
O30   O     O_R   0.991000 0.668550 0.042720 -0.635761
O31   O     O_R   0.991000 0.331450 0.042720 -0.635787
O32   O     O_R   0.009000 0.668550 0.957280 -0.635763
O33   O     O_R   0.509000 0.831450 0.957280 -0.635761
O34   O     O_R   0.491000 0.168550 0.042720 -0.635771
O35   O     O_R   0.491000 0.831450 0.042720 -0.635764
O36   O     O_R   0.509000 0.168550 0.957280 -0.635787
O37   O     O_R   0.051110 0.271360 0.162930 -0.633339
O38   O     O_R   0.948890 0.728640 0.837070 -0.633270
O39   O     O_R   0.948890 0.271360 0.837070 -0.633301
O40   O     O_R   0.051110 0.728640 0.162930 -0.633261
O41   O     O_R   0.551110 0.771360 0.162930 -0.633271
O42   O     O_R   0.448890 0.228640 0.837070 -0.633339
O43   O     O_R   0.448890 0.771360 0.837070 -0.633261
O44   O     O_R   0.551110 0.228640 0.162930 -0.633302
O45   O     O_R   0.137190 0.228630 0.042710 -0.639781
O46   O     O_R   0.862810 0.771370 0.957290 -0.639753
O47   O     O_R   0.862810 0.228630 0.957290 -0.639764
O48   O     O_R   0.137190 0.771370 0.042710 -0.639746
O49   O     O_R   0.637190 0.728630 0.042710 -0.639753
O50   O     O_R   0.362810 0.271370 0.957290 -0.639781
O51   O     O_R   0.362810 0.728630 0.957290 -0.639746
O52   O     O_R   0.637190 0.271370 0.042710 -0.639763
Zn1   Zn    Zn3+2 0.987140 0.280510 0.061030 0.973552
Zn2   Zn    Zn3+2 0.012860 0.719490 0.938970 0.973622
Zn3   Zn    Zn3+2 0.012860 0.280510 0.938970 0.973607
Zn4   Zn    Zn3+2 0.987140 0.719490 0.061030 0.973640
Zn5   Zn    Zn3+2 0.487140 0.780510 0.061030 0.973622
Zn6   Zn    Zn3+2 0.512860 0.219490 0.938970 0.973552
Zn7   Zn    Zn3+2 0.512860 0.780510 0.938970 0.973640
Zn8   Zn    Zn3+2 0.487140 0.219490 0.061030 0.973607
Zn9   Zn    Zn3+2 0.073920 0.219480 0.061030 0.972314
Zn10  Zn    Zn3+2 0.926080 0.780520 0.938970 0.972379
Zn11  Zn    Zn3+2 0.926080 0.219480 0.938970 0.972354
Zn12  Zn    Zn3+2 0.073920 0.780520 0.061030 0.972391
Zn13  Zn    Zn3+2 0.573920 0.719480 0.061030 0.972379
Zn14  Zn    Zn3+2 0.426080 0.280520 0.938970 0.972314
Zn15  Zn    Zn3+2 0.426080 0.719480 0.938970 0.972391
Zn16  Zn    Zn3+2 0.573920 0.280520 0.061030 0.972354
C177  C     C_1   0.096007 0.460600 0.000862 0.186965
N1    N     N_1   0.134790 0.444626 0.001211 -0.200760
C178  C     C_1   0.903993 0.539400 0.999138 0.186964
N2    N     N_1   0.865209 0.555374 0.998789 -0.200761
C179  C     C_1   0.903993 0.460599 0.999137 0.186944
N3    N     N_1   0.865210 0.444624 0.998788 -0.200778
C180  C     C_1   0.096007 0.539401 0.000864 0.186960
N4    N     N_1   0.134791 0.555376 0.001214 -0.200765
C181  C     C_1   0.596028 0.960600 0.000905 0.186962
N5    N     N_1   0.634821 0.944626 0.001272 -0.200761
C182  C     C_1   0.403972 0.039399 0.999095 0.186963
N6    N     N_1   0.365179 0.055374 0.998729 -0.200760
C183  C     C_1   0.403971 0.960599 0.999092 0.186957
N7    N     N_1   0.365178 0.944624 0.998725 -0.200765
C184  C     C_1   0.596028 0.039401 0.000906 0.186942
N8    N     N_1   0.634820 0.055376 0.001272 -0.200778
C185  C     C_3   0.095264 0.039971 0.135120 -0.890057
H17   H     H_    0.091441 0.070317 0.130098 0.243751
H18   H     H_    0.090595 0.032459 0.179911 0.242433
H19   H     H_    0.143479 0.032690 0.151740 0.246955
C186  C     C_3   0.904731 0.960028 0.864881 -0.890052
H20   H     H_    0.908549 0.929682 0.869905 0.243730
H21   H     H_    0.856518 0.967313 0.848263 0.246966
H22   H     H_    0.909398 0.967537 0.820086 0.242410
C187  C     C_3   0.904740 0.039972 0.864876 -0.890108
H23   H     H_    0.908563 0.070317 0.869897 0.243747
H24   H     H_    0.909410 0.032460 0.820086 0.242426
H25   H     H_    0.856523 0.032691 0.848253 0.246965
C188  C     C_3   0.095270 0.960028 0.135117 -0.890070
H26   H     H_    0.091451 0.929682 0.130093 0.243728
H27   H     H_    0.143483 0.967312 0.151734 0.246968
H28   H     H_    0.090603 0.967536 0.179911 0.242410
C189  C     C_3   0.595269 0.539972 0.135119 -0.890052
H29   H     H_    0.591451 0.570318 0.130095 0.243730
H30   H     H_    0.590603 0.532463 0.179914 0.242411
H31   H     H_    0.643483 0.532687 0.151736 0.246965
C190  C     C_3   0.404736 0.460029 0.864880 -0.890057
H32   H     H_    0.408558 0.429683 0.869902 0.243751
H33   H     H_    0.356520 0.467310 0.848260 0.246956
H34   H     H_    0.409404 0.467541 0.820089 0.242433
C191  C     C_3   0.404730 0.539972 0.864883 -0.890070
H35   H     H_    0.408548 0.570318 0.869907 0.243728
H36   H     H_    0.409396 0.532464 0.820089 0.242409
H37   H     H_    0.356516 0.532688 0.848266 0.246968
C192  C     C_3   0.595261 0.460028 0.135124 -0.890109
H38   H     H_    0.591438 0.429683 0.130103 0.243747
H39   H     H_    0.643477 0.467309 0.151746 0.246965
H40   H     H_    0.590591 0.467540 0.179914 0.242426
C193  C     C_3   0.896192 0.205683 0.168633 -0.901833
H41   H     H_    0.856348 0.208139 0.173951 0.250957
H42   H     H_    0.939067 0.197075 0.222814 0.235233
H43   H     H_    0.905850 0.233045 0.155072 0.249293
C194  C     C_3   0.103760 0.794259 0.831300 -0.901891
H44   H     H_    0.143601 0.791805 0.825974 0.250952
H45   H     H_    0.094130 0.766899 0.844901 0.249303
H46   H     H_    0.060872 0.802847 0.777111 0.235517
C195  C     C_3   0.103787 0.205703 0.831344 -0.901912
H47   H     H_    0.143628 0.208159 0.826020 0.250949
H48   H     H_    0.060906 0.197103 0.777161 0.235432
H49   H     H_    0.094140 0.233065 0.844919 0.249285
C196  C     C_3   0.896245 0.794253 0.168705 -0.901933
H50   H     H_    0.856405 0.791800 0.174032 0.250951
H51   H     H_    0.905872 0.766894 0.155101 0.249300
H52   H     H_    0.939134 0.802839 0.222894 0.235576
C197  C     C_3   0.396240 0.705741 0.168700 -0.901892
H53   H     H_    0.356399 0.708195 0.174026 0.250952
H54   H     H_    0.439128 0.697153 0.222889 0.235517
H55   H     H_    0.405870 0.733101 0.155098 0.249303
C198  C     C_3   0.603808 0.294317 0.831367 -0.901834
H56   H     H_    0.643652 0.291861 0.826049 0.250956
H57   H     H_    0.594150 0.266955 0.844928 0.249294
H58   H     H_    0.560933 0.302925 0.777186 0.235233
C199  C     C_3   0.603755 0.705746 0.831295 -0.901933
H59   H     H_    0.643595 0.708200 0.825968 0.250950
H60   H     H_    0.560866 0.697160 0.777106 0.235575
H61   H     H_    0.594128 0.733106 0.844899 0.249300
C200  C     C_3   0.396213 0.294296 0.168656 -0.901914
H62   H     H_    0.356372 0.291841 0.173980 0.250948
H63   H     H_    0.405860 0.266935 0.155081 0.249285
H64   H     H_    0.439094 0.302897 0.222839 0.235431
C201  C     C_3   0.752949 0.161811 0.901862 -0.860377
H65   H     H_    0.725771 0.187316 0.892320 0.242609
H66   H     H_    0.768430 0.162814 0.864855 0.250003
H67   H     H_    0.720001 0.138316 0.885905 0.236555
C202  C     C_3   0.246996 0.838223 0.098010 -0.860166
H68   H     H_    0.274193 0.812721 0.107583 0.242620
H69   H     H_    0.279925 0.861724 0.113928 0.236579
H70   H     H_    0.231524 0.837231 0.135026 0.250024
C203  C     C_3   0.247031 0.161800 0.098096 -0.860439
H71   H     H_    0.274216 0.187304 0.107647 0.242610
H72   H     H_    0.231553 0.162800 0.135106 0.249967
H73   H     H_    0.279973 0.138303 0.114041 0.236576
C204  C     C_3   0.753010 0.838226 0.901999 -0.860187
H74   H     H_    0.725811 0.812725 0.892424 0.242621
H75   H     H_    0.720083 0.861727 0.886084 0.236585
H76   H     H_    0.768481 0.837236 0.864983 0.250014
C205  C     C_3   0.253004 0.661777 0.901990 -0.860164
H77   H     H_    0.225807 0.687278 0.892417 0.242620
H78   H     H_    0.268476 0.662768 0.864974 0.250023
H79   H     H_    0.220075 0.638276 0.886072 0.236580
C206  C     C_3   0.747051 0.338189 0.098138 -0.860376
H80   H     H_    0.774230 0.312684 0.107679 0.242609
H81   H     H_    0.779999 0.361684 0.114095 0.236557
H82   H     H_    0.731570 0.337186 0.135145 0.250003
C207  C     C_3   0.746990 0.661774 0.098001 -0.860185
H83   H     H_    0.774189 0.687275 0.107576 0.242620
H84   H     H_    0.731519 0.662764 0.135017 0.250013
H85   H     H_    0.779917 0.638273 0.113916 0.236587
C208  C     C_3   0.252969 0.338200 0.901904 -0.860438
H86   H     H_    0.225784 0.312696 0.892353 0.242611
H87   H     H_    0.220027 0.361697 0.885960 0.236577
H88   H     H_    0.268447 0.337201 0.864894 0.249967
C209  C     C_3   0.835701 0.096940 0.944122 -0.901780
H89   H     H_    0.788095 0.084876 0.919780 0.243752
H90   H     H_    0.837443 0.109411 0.899972 0.252200
H91   H     H_    0.870701 0.074122 0.969105 0.245105
C210  C     C_3   0.164198 0.903077 0.055673 -0.901706
H92   H     H_    0.211793 0.915150 0.079989 0.243763
H93   H     H_    0.129182 0.925885 0.030665 0.245090
H94   H     H_    0.162475 0.890622 0.099847 0.252199
C211  C     C_3   0.164265 0.096935 0.055812 -0.901768
H95   H     H_    0.211867 0.084868 0.080145 0.243754
H96   H     H_    0.162529 0.109400 0.099971 0.252195
H97   H     H_    0.129260 0.074120 0.030822 0.245103
C212  C     C_3   0.835812 0.903078 0.944342 -0.901699
H98   H     H_    0.788217 0.915153 0.920028 0.243763
H99   H     H_    0.870830 0.925886 0.969352 0.245089
H100  H     H_    0.837534 0.890625 0.900166 0.252198
C213  C     C_3   0.335802 0.596923 0.944328 -0.901705
H101  H     H_    0.288206 0.584850 0.920012 0.243764
H102  H     H_    0.337525 0.609378 0.900153 0.252199
H103  H     H_    0.370818 0.574115 0.969336 0.245090
C214  C     C_3   0.664299 0.403060 0.055877 -0.901781
H104  H     H_    0.711905 0.415124 0.080220 0.243753
H105  H     H_    0.629300 0.425877 0.030895 0.245105
H106  H     H_    0.662557 0.390589 0.100028 0.252200
C215  C     C_3   0.664188 0.596922 0.055658 -0.901701
H107  H     H_    0.711783 0.584847 0.079972 0.243764
H108  H     H_    0.662466 0.609375 0.099834 0.252198
H109  H     H_    0.629170 0.574114 0.030648 0.245089
C216  C     C_3   0.335735 0.403065 0.944188 -0.901768
H110  H     H_    0.288133 0.415132 0.919856 0.243755
H111  H     H_    0.370741 0.425880 0.969179 0.245103
H112  H     H_    0.337471 0.390600 0.900030 0.252195
C217  C     C_3   0.212581 0.682376 0.037882 -0.850846
H113  H     H_    0.208035 0.688492 0.083328 0.216924
H114  H     H_    0.166470 0.672293 0.989398 0.260608
H115  H     H_    0.246910 0.659468 0.056897 0.243253
C218  C     C_3   0.787471 0.317639 0.962222 -0.850757
H116  H     H_    0.792023 0.311540 0.916776 0.216936
H117  H     H_    0.753154 0.340552 0.943230 0.243235
H118  H     H_    0.833585 0.327707 0.010725 0.260609
C219  C     C_3   0.787414 0.682377 0.962111 -0.850841
H119  H     H_    0.791961 0.688494 0.916666 0.216930
H120  H     H_    0.833526 0.672293 0.010595 0.260608
H121  H     H_    0.753084 0.659469 0.943095 0.243254
C220  C     C_3   0.212548 0.317634 0.037813 -0.850749
H122  H     H_    0.207997 0.311529 0.083259 0.216954
H123  H     H_    0.246869 0.340545 0.056812 0.243243
H124  H     H_    0.166435 0.327707 0.989316 0.260605
C221  C     C_3   0.712529 0.182361 0.037778 -0.850755
H125  H     H_    0.707977 0.188460 0.083224 0.216937
H126  H     H_    0.666415 0.172293 0.989275 0.260608
H127  H     H_    0.746846 0.159447 0.056770 0.243236
C222  C     C_3   0.287418 0.817624 0.962117 -0.850843
H128  H     H_    0.291965 0.811508 0.916672 0.216925
H129  H     H_    0.253090 0.840532 0.943103 0.243254
H130  H     H_    0.333530 0.827707 0.010601 0.260607
C223  C     C_3   0.287452 0.182366 0.962187 -0.850746
H131  H     H_    0.292002 0.188471 0.916741 0.216955
H132  H     H_    0.333564 0.172293 0.010684 0.260603
H133  H     H_    0.253131 0.159455 0.943188 0.243244
C224  C     C_3   0.712586 0.817623 0.037889 -0.850838
H134  H     H_    0.708039 0.811505 0.083334 0.216930
H135  H     H_    0.746916 0.840531 0.056905 0.243255
H136  H     H_    0.666474 0.827706 0.989405 0.260607
C225  C     C_3   0.886537 0.234365 0.584748 -0.877781
H137  H     H_    0.905010 0.228569 0.551893 0.244667
H138  H     H_    0.913300 0.258395 0.620286 0.244045
H139  H     H_    0.897490 0.209955 0.620230 0.236195
C226  C     C_3   0.114656 0.768913 0.415245 -0.878749
H140  H     H_    0.096624 0.775927 0.448098 0.244785
H141  H     H_    0.105377 0.793052 0.379759 0.236297
H142  H     H_    0.086253 0.745224 0.379705 0.243841
C227  C     C_3   0.112324 0.238402 0.415263 -0.876476
H143  H     H_    0.093433 0.234108 0.448123 0.244572
H144  H     H_    0.087586 0.262771 0.379722 0.244281
H145  H     H_    0.099318 0.213744 0.379787 0.236109
C228  C     C_3   0.885862 0.767565 0.584752 -0.878319
H146  H     H_    0.904086 0.774077 0.551898 0.244752
H147  H     H_    0.895828 0.791823 0.620235 0.236239
H148  H     H_    0.913590 0.743728 0.620294 0.243943
C229  C     C_3   0.385344 0.731087 0.584755 -0.878750
H149  H     H_    0.403376 0.724073 0.551902 0.244785
H150  H     H_    0.413747 0.754776 0.620295 0.243841
H151  H     H_    0.394622 0.706947 0.620241 0.236297
C230  C     C_3   0.613462 0.265635 0.415252 -0.877781
H152  H     H_    0.594990 0.271431 0.448107 0.244667
H153  H     H_    0.602510 0.290045 0.379770 0.236195
H154  H     H_    0.586700 0.241605 0.379714 0.244045
C231  C     C_3   0.614137 0.732435 0.415248 -0.878320
H155  H     H_    0.595914 0.725923 0.448102 0.244751
H156  H     H_    0.586409 0.756272 0.379705 0.243944
H157  H     H_    0.604172 0.708176 0.379765 0.236238
C232  C     C_3   0.387676 0.261598 0.584736 -0.876474
H158  H     H_    0.406567 0.265892 0.551877 0.244571
H159  H     H_    0.400682 0.286256 0.620214 0.236109
H160  H     H_    0.412414 0.237230 0.620277 0.244281
C233  C     C_3   0.806984 0.234146 0.421056 -0.882129
H161  H     H_    0.844113 0.254902 0.436055 0.242750
H162  H     H_    0.828173 0.206171 0.435754 0.241220
H163  H     H_    0.773097 0.234825 0.360373 0.241187
C234  C     C_3   0.194224 0.769226 0.578939 -0.882062
H164  H     H_    0.155704 0.749534 0.563945 0.242737
H165  H     H_    0.228061 0.768429 0.639620 0.240927
H166  H     H_    0.174978 0.797652 0.564231 0.241338
C235  C     C_3   0.191869 0.238298 0.578956 -0.882091
H167  H     H_    0.156532 0.260282 0.563954 0.242857
H168  H     H_    0.168362 0.210964 0.564266 0.241069
H169  H     H_    0.225809 0.238831 0.639638 0.241527
C236  C     C_3   0.806302 0.767838 0.421058 -0.882052
H170  H     H_    0.844256 0.747701 0.436055 0.242780
H171  H     H_    0.772444 0.767090 0.360377 0.241033
H172  H     H_    0.826354 0.796087 0.435762 0.241280
C237  C     C_3   0.305776 0.730774 0.421061 -0.882064
H173  H     H_    0.344296 0.750466 0.436056 0.242738
H174  H     H_    0.325022 0.702348 0.435768 0.241338
H175  H     H_    0.271939 0.731571 0.360380 0.240927
C238  C     C_3   0.693015 0.265854 0.578944 -0.882129
H176  H     H_    0.655886 0.245098 0.563945 0.242750
H177  H     H_    0.726903 0.265175 0.639627 0.241187
H178  H     H_    0.671827 0.293829 0.564246 0.241220
C239  C     C_3   0.693698 0.732163 0.578942 -0.882057
H179  H     H_    0.655744 0.752301 0.563944 0.242782
H180  H     H_    0.673646 0.703915 0.564239 0.241281
H181  H     H_    0.727556 0.732912 0.639623 0.241034
C240  C     C_3   0.308131 0.261701 0.421044 -0.882090
H182  H     H_    0.343468 0.239718 0.436046 0.242857
H183  H     H_    0.274191 0.261168 0.360361 0.241527
H184  H     H_    0.331637 0.289036 0.435733 0.241067

loop_
_geom_bond_atom_site_label_1
_geom_bond_atom_site_label_2
_ccdc_geom_bond_type
C152  C177  S    
C11   C171  A    
C205  H77   S    
C190  H33   S    
C222  H128  S    
C9    C169  A    
C34   C42   A    
O42   Zn6   S    
C79   C87   A    
C200  H62   S    
C12   C172  A    
C54   C65   A    
C225  H137  S    
C18   C65   S    
O19   Zn15  S    
C126  C127  A    
O46   Zn10  S    
C53   C221  S    
C86   C110  S    
C215  H108  S    
C30   C206  S    
C48   C176  A    
C191  H37   S    
C145  O29   A    
C8    O52   A    
C182  N6    T    
C232  H160  S    
O25   Zn13  S    
C30   C38   A    
C99   C232  S    
C236  H171  S    
C210  H94   S    
C7    O11   A    
C42   C170  A    
C98   C229  S    
C88   C104  A    
C102  C225  S    
O21   Zn9   S    
C89   O13   A    
C97   C230  S    
C228  H147  S    
C46   C174  A    
C90   C116  S    
C22   C69   S    
O38   Zn2   S    
C208  H88   S    
C76   C103  A    
C193  H42   S    
C219  H120  S    
O2    Zn4   S    
C36   C212  S    
C80   C88   A    
O50   Zn14  S    
C76   C84   A    
C15   C199  S    
C13   C197  S    
C104  C227  S    
C73   C81   A    
C204  H75   S    
C204  H74   S    
C206  H82   S    
O39   Zn3   S    
O41   Zn5   S    
C84   C100  A    
C140  C144  S    
C8    O12   A    
C148  O34   A    
C47   H7    S    
C123  C186  S    
C209  H91   S    
C121  C129  A    
C48   H8    S    
C2    C59   S    
C94   O42   A    
C226  H142  S    
C156  C181  S    
C103  C228  S    
C27   C35   A    
C199  H59   S    
C21   C29   A    
C5    C64   S    
C186  H22   S    
O1    Zn9   S    
C6    C63   S    
C229  H151  S    
C13   C173  A    
C44   C172  A    
C7    C62   S    
C33   C209  S    
C45   C173  A    
C162  C165  T    
O17   Zn13  S    
C224  H136  S    
C43   H3    S    
C12   C20   A    
C13   C21   A    
C19   C68   S    
C202  H70   S    
C150  C179  S    
C154  C155  A    
C187  H25   S    
C147  C167  S    
C74   C101  A    
C87   C103  A    
C63   C71   A    
C129  C133  S    
C205  H79   S    
C32   C40   A    
C239  H180  S    
O47   Zn11  S    
C213  H101  S    
C230  H154  S    
C105  C118  T    
C207  H85   S    
O18   Zn14  S    
C149  C180  S    
C37   C45   A    
C160  C164  S    
C107  C120  T    
C200  H64   S    
C39   C47   A    
C225  H139  S    
C40   C48   A    
C43   C171  A    
C23   C72   S    
O3    Zn15  S    
C145  O31   A    
C32   C208  S    
C189  H31   S    
C214  H104  S    
C17   C25   A    
C234  H164  S    
C235  H168  S    
C217  H113  S    
C73   C233  S    
C126  C191  S    
C10   C18   A    
C221  H126  S    
C141  O21   A    
C227  H143  S    
C127  C131  A    
C226  H141  S    
C23   C31   A    
C10   C194  S    
C9    C193  S    
C203  H73   S    
C187  H24   S    
C196  H50   S    
O2    Zn2   S    
O4    Zn6   S    
C92   O40   A    
C240  H183  S    
C218  H116  S    
C207  H83   S    
C212  H99   S    
C89   C115  S    
C153  C159  A    
C203  H71   S    
C139  C143  S    
O52   Zn16  S    
C188  H28   S    
C216  H110  S    
C31   C207  S    
C29   C205  S    
C223  H131  S    
C95   C117  S    
C62   C70   A    
C237  H173  S    
O1    Zn11  S    
C41   H1    S    
C42   H2    S    
C144  O28   A    
C34   C210  S    
C5    O9    A    
C177  N1    T    
C154  C183  S    
C194  H45   S    
C49   C57   A    
C229  H150  S    
C197  H54   S    
C52   C60   A    
C59   C67   A    
C53   C61   A    
C192  H39   S    
C55   C63   A    
C211  H97   S    
C56   C64   A    
C35   C43   A    
C12   C196  S    
C20   C28   A    
O35   Zn5   S    
O37   Zn1   S    
C77   C85   A    
O11   Zn5   S    
C185  H17   S    
C198  H57   S    
O3    Zn13  S    
O44   Zn8   S    
C78   C238  S    
C233  H161  S    
C220  H123  S    
C38   C214  S    
C188  H26   S    
C201  H66   S    
O1    Zn3   S    
C214  H106  S    
C81   C105  S    
O48   Zn12  S    
C155  C159  A    
C156  C160  A    
C75   C235  S    
C217  H115  S    
C225  H138  S    
C147  O35   A    
C1    O45   A    
O5    Zn3   S    
C91   O39   A    
O40   Zn4   S    
C227  H145  S    
C189  H29   S    
C146  O32   A    
C125  C131  A    
C126  C132  A    
C132  C136  S    
C196  H52   S    
O4    Zn8   S    
C78   C97   A    
O23   Zn11  S    
C236  H170  S    
C153  C184  S    
C218  H118  S    
C238  H177  S    
C28   C36   A    
C222  H129  S    
C109  C114  T    
O32   Zn2   S    
C94   O18   A    
C221  H127  S    
C80   C99   A    
C86   C102  A    
C216  H112  S    
O13   Zn9   S    
C213  H102  S    
C231  H157  S    
C230  H152  S    
C22   C30   A    
C1    O5    A    
C91   O15   A    
C180  N4    T    
C151  C178  S    
C186  H21   S    
C94   C120  S    
C52   C220  S    
C95   O19   A    
C14   C22   A    
C163  C168  T    
C142  O24   A    
C215  H107  S    
C232  H159  S    
O2    Zn12  S    
C56   C224  S    
C82   C106  S    
C125  C192  S    
C130  C134  S    
C38   C46   A    
C143  O27   A    
C14   C198  S    
C4    O8    A    
O27   Zn15  S    
O33   Zn7   S    
C228  H146  S    
C185  H19   S    
C150  C151  A    
C6    O50   A    
C93   C119  S    
C239  H179  S    
C234  H166  S    
C51   C219  S    
C47   C175  A    
C25   C33   A    
C208  H87   S    
C89   O37   A    
C219  H119  S    
C96   O20   A    
O22   Zn10  S    
C82   C98   A    
C184  N8    T    
C18   C26   A    
C44   H4    S    
C134  C137  T    
C55   C68   A    
C147  O33   A    
C45   H5    S    
C178  N2    T    
C145  C165  S    
O31   Zn1   S    
O34   Zn8   S    
C206  H81   S    
C11   C19   A    
C17   C66   S    
C221  H125  S    
C151  C157  A    
O45   Zn9   S    
O28   Zn16  S    
C122  C187  S    
C237  H175  S    
C85   C109  S    
C209  H90   S    
C146  O30   A    
C37   C213  S    
C27   C203  S    
C87   C111  S    
C79   C239  S    
C236  H172  S    
C190  H32   S    
C195  H48   S    
C90   O14   A    
O30   Zn4   S    
O6    Zn4   S    
O9    Zn7   S    
C148  O36   A    
C111  C116  T    
C202  H69   S    
C77   C237  S    
C49   C217  S    
C16   C176  A    
C199  H60   S    
C133  C138  T    
O24   Zn12  S    
C83   C99   A    
C181  N5    T    
C230  H153  S    
C108  C119  T    
C128  C189  S    
C74   C82   A    
C136  C139  T    
C74   C234  S    
C25   C201  S    
C200  H63   S    
O36   Zn6   S    
C191  H36   S    
C135  C140  T    
C152  C158  A    
O26   Zn14  S    
C79   C100  A    
C142  O22   A    
C138  C142  S    
C215  H109  S    
C54   C62   A    
C93   O41   A    
C231  H155  S    
O20   Zn16  S    
O2    Zn10  S    
C201  H67   S    
C50   C58   A    
C28   C204  S    
C187  H23   S    
C127  C190  S    
C228  H148  S    
C170  H10   S    
C4    O48   A    
O51   Zn15  S    
O4    Zn14  S    
C40   C216  S    
C174  H14   S    
C73   C102  A    
C219  H121  S    
C49   C70   A    
C106  C117  T    
C75   C104  A    
C148  C168  S    
C1    C60   S    
C234  H165  S    
C51   C72   A    
C157  C161  S    
C204  H76   S    
C223  H133  S    
C212  H98   S    
C35   C211  S    
C137  C141  S    
C55   C223  S    
C150  C158  A    
C164  C167  T    
C191  H35   S    
C39   C215  S    
C57   C65   A    
C155  C182  S    
C124  C185  S    
C15   C175  A    
C10   C170  A    
O29   Zn3   S    
C33   C41   A    
C217  H114  S    
C14   C174  A    
C52   C71   A    
C198  H58   S    
C54   C222  S    
C75   C83   A    
C194  H44   S    
C41   C169  A    
C101  C226  S    
C84   C108  S    
C197  H53   S    
C88   C112  S    
C3    C58   S    
C60   C68   A    
C237  H174  S    
C192  H38   S    
C239  H181  S    
C29   C37   A    
C211  H96   S    
O1    Zn1   S    
C141  O23   A    
C149  C157  A    
C3    O47   A    
O10   Zn8   S    
C195  H49   S    
C198  H56   S    
C20   C67   S    
O43   Zn7   S    
C24   C32   A    
C220  H122  S    
C193  H41   S    
C144  O26   A    
C214  H105  S    
C235  H167  S    
O49   Zn13  S    
C96   C118  S    
C50   C69   A    
C6    O10   A    
C235  H169  S    
C131  C135  S    
C207  H84   S    
C175  H15   S    
C176  H16   S    
C143  O25   A    
C227  H144  S    
C240  H182  S    
O4    Zn16  S    
O15   Zn11  S    
C121  C124  A    
C188  H27   S    
C76   C236  S    
C58   C66   A    
C31   C39   A    
C196  H51   S    
O3    Zn7   S    
C4    C57   S    
C125  C128  A    
C3    O7    A    
C100  C231  S    
C218  H117  S    
C19   C27   A    
C238  H176  S    
C161  C166  T    
C8    C61   S    
C212  H100  S    
O12   Zn6   S    
C78   C86   A    
C15   C23   A    
C146  C166  S    
C203  H72   S    
C123  C129  A    
C229  H149  S    
C95   O43   A    
C128  C132  A    
C16   C200  S    
C216  H111  S    
C26   C34   A    
C199  H61   S    
C231  H156  S    
C210  H93   S    
C223  H132  S    
C124  C130  A    
C149  C152  A    
O8    Zn2   S    
C158  C162  S    
C2    O46   A    
C194  H46   S    
C11   C195  S    
C186  H20   S    
C91   C113  S    
C153  C156  A    
C205  H78   S    
C197  H55   S    
C154  C160  A    
C92   O16   A    
C213  H103  S    
C46   H6    S    
C26   C202  S    
C192  H40   S    
C232  H158  S    
C96   O44   A    
C77   C98   A    
C53   C66   A    
C110  C113  T    
C210  H92   S    
C9    C17   A    
C185  H18   S    
C93   O17   A    
C190  H34   S    
C159  C163  S    
C51   C59   A    
C50   C218  S    
O14   Zn10  S    
C220  H124  S    
C85   C101  A    
C80   C240  S    
C208  H86   S    
C179  N3    T    
C193  H43   S    
C61   C69   A    
C2    O6    A    
C90   O38   A    
C56   C67   A    
C224  H135  S    
C206  H80   S    
C171  H11   S    
C21   C70   S    
C240  H184  S    
C121  C188  S    
C233  H162  S    
C202  H68   S    
C169  H9    S    
C189  H30   S    
C209  H89   S    
C226  H140  S    
C211  H95   S    
C81   C97   A    
C172  H12   S    
O3    Zn5   S    
C173  H13   S    
C222  H130  S    
C83   C107  S    
C64   C72   A    
C195  H47   S    
C238  H178  S    
C233  H163  S    
C36   C44   A    
O7    Zn1   S    
C16   C24   A    
C224  H134  S    
C7    O51   A    
C201  H65   S    
O16   Zn12  S    
C5    O49   A    
C122  C123  A    
C92   C114  S    
C122  C130  A    
C112  C115  T    
C24   C71   S    
C183  N7    T    
