data_mof_unit_10929.cif
_audit_creation_date              2012-12-10T17:05:11-0500
_audit_creation_method            fapswitch 2.2
_symmetry_space_group_name_H-M    P1
_symmetry_Int_Tables_number       1
_space_group_crystal_system       triclinic
_cell_length_a                    10.870423
_cell_length_b                    11.014831
_cell_length_c                    9.919299
_cell_angle_alpha                 110.896044
_cell_angle_beta                  97.239917
_cell_angle_gamma                 92.912685
_cell_volume                      1094.84156173

loop_
_atom_site_label
_atom_site_type_symbol
_atom_type_description
_atom_site_fract_x
_atom_site_fract_y
_atom_site_fract_z
_atom_type_partial_charge
C1    C     C_R   0.493317 0.254397 0.441209 0.839767
C2    C     C_3   0.876497 0.504154 0.497065 -0.251729
C3    C     C_3   0.926782 0.615047 0.445105 -0.048626
C4    C     C_3   0.906561 0.364468 0.391509 0.435065
C5    C     C_2   0.500989 0.115802 0.411435 -0.328386
C6    C     C_2   0.537622 0.076514 0.522147 -0.280473
C7    C     C_2   0.512988 0.886558 0.592687 -0.067723
C8    C     C_2   0.549504 0.938489 0.497624 0.399836
C9    C     C_2   0.516896 0.503326 0.077882 0.400706
C10   C     C_2   0.487054 0.492356 0.921643 0.180535
C11   C     C_R   0.260483 0.504190 0.502615 0.744405
C12   C     C_R   0.510540 0.745990 0.559225 0.879513
C13   C     C_R   0.739141 0.501737 0.498579 0.853843
C14   C     C_3   0.085549 0.517719 0.660470 0.655216
C15   C     C_3   0.944201 0.533063 0.657111 0.011618
C16   C     C_3   0.074529 0.630229 0.467633 0.218676
C17   C     C_3   0.051345 0.372781 0.381061 0.440800
C18   C     C_3   0.121495 0.507203 0.503648 -0.196864
Cu1   Cu    Cu3+1 0.522160 0.521810 0.644910 0.937970
Cu2   Cu    Cu3+1 0.477840 0.478190 0.355090 1.017398
H1    H     H_    0.893104 0.586303 0.326958 0.122614
H2    H     H_    0.556389 0.146134 0.633900 0.179464
H3    H     H_    0.479480 0.046543 0.299561 0.177875
H4    H     H_    0.639957 0.602644 0.921202 0.182974
H5    H     H_    0.902914 0.459576 0.696436 0.164440
N1    N     N_2   0.444530 0.445420 0.137360 -0.004049
N2    N     N_2   0.555520 0.554510 0.862630 -0.328249
O1    O     O_R   0.511820 0.332340 0.577400 -0.600407
O2    O     O_R   0.474400 0.295500 0.332650 -0.573710
O3    O     O_R   0.336400 0.518400 0.622370 -0.626506
O4    O     O_R   0.298980 0.481560 0.377620 -0.552522
O5    O     O_R   0.525600 0.704500 0.667350 -0.553876
O6    O     O_R   0.488180 0.667660 0.422600 -0.544589
O7    O     O_R   0.701020 0.518440 0.622380 -0.571395
O8    O     O_R   0.663600 0.481600 0.377630 -0.558558
O9    O     O_3   0.150087 0.622676 0.783346 -0.720761
H6    H     H_    0.222555 0.664585 0.760922 0.346525
O10   O     O_3   0.835334 0.322346 0.249936 -0.703269
H7    H     H_    0.819386 0.395645 0.217745 0.310850
N3    N     N_3   0.115343 0.635322 0.332892 -0.578836
H8    H     H_    0.209339 0.671421 0.353026 0.249409
H9    H     H_    0.067507 0.702961 0.300658 0.211137
O11   O     O_3   0.599752 0.861622 0.378469 -0.746324
H10   H     H_    0.638253 0.918470 0.333740 0.332029
N4    N     N_3   0.471286 0.964602 0.725862 -0.602985
H11   H     H_    0.396108 0.012415 0.700677 0.234380
H12   H     H_    0.544261 0.034193 0.791513 0.240083
N5    N     N_3   0.369362 0.425741 0.845616 -0.476738
H13   H     H_    0.310673 0.496971 0.845201 0.293586
H14   H     H_    0.376658 0.358618 0.743190 0.257997
N6    N     N_3   0.623376 0.587894 0.168603 -0.545512
H15   H     H_    0.702898 0.550177 0.127320 0.155757
H16   H     H_    0.618380 0.679018 0.159585 0.227125
O12   O     O_3   0.103861 0.402731 0.688770 -0.727880
H17   H     H_    0.179391 0.367155 0.652004 0.348327
O13   O     O_3   0.360163 0.346330 0.050858 -0.612354
H18   H     H_    0.321671 0.313606 0.118214 0.374226
N7    N     N_3   0.917634 0.660215 0.760271 -0.513800
H19   H     H_    0.973539 0.738129 0.756067 0.307869
H20   H     H_    0.936478 0.661322 0.866829 0.243143
N8    N     N_3   0.125474 0.753661 0.588309 -0.567499
H21   H     H_    0.222869 0.761262 0.600751 0.193097
H22   H     H_    0.102462 0.833471 0.560271 0.239400
N9    N     N_3   0.876380 0.740311 0.514552 -0.544074
H23   H     H_    0.779159 0.727494 0.491881 0.248436
H24   H     H_    0.901146 0.803576 0.462714 0.224164
N10   N     N_3   0.071854 0.363161 0.232865 -0.530320
H25   H     H_    0.016472 0.420659 0.192360 0.233405
H26   H     H_    0.047271 0.266795 0.160046 0.265630
O14   O     O_3   0.100332 0.264026 0.404319 -0.726601
H27   H     H_    0.184170 0.255784 0.374214 0.323234
N11   N     N_3   0.872170 0.261075 0.446636 -0.475648
H28   H     H_    0.778565 0.260263 0.461006 0.199763
H29   H     H_    0.925931 0.267895 0.543833 0.257980

loop_
_geom_bond_atom_site_label_1
_geom_bond_atom_site_label_2
_ccdc_geom_bond_type
C10   N2    D    
C1    O1    A    
C2    C4    S    
O11   H10   S    
H4    N2    S    
C11   C18   S    
N3    H8    S    
O14   H27   S    
Cu1   O1    S    
Cu1   N2    S    
C9    C10   S    
C14   C18   S    
N3    H9    S    
Cu1   Cu2   S    
C5    H3    S    
C8    O11   S    
C4    N11   S    
Cu1   O5    S    
N9    H23   S    
C1    O2    A    
C17   C18   S    
C12   O6    A    
C11   O4    A    
C13   O7    A    
C3    N9    S    
C12   O5    A    
C14   O9    S    
C2    C15   S    
Cu1   O3    S    
N8    H21   S    
Cu2   N1    S    
C16   N3    S    
C1    C5    S    
C4    C17   S    
C7    N4    S    
N11   H29   S    
N5    H13   S    
C14   O12   S    
C4    O10   S    
C9    N1    D    
C13   O8    A    
C2    C3    S    
Cu2   O2    S    
N4    H12   S    
C10   N5    S    
C5    C6    D    
Cu2   O4    S    
C15   N7    S    
C7    C12   S    
C3    H1    S    
C15   H5    S    
C16   N8    S    
Cu2   O6    S    
C17   N10   S    
N7    H20   S    
N6    H15   S    
C6    H2    S    
C9    N6    S    
C7    C8    D    
O10   H7    S    
O13   H18   S    
C16   C18   S    
O12   H17   S    
N8    H22   S    
C2    C13   S    
C14   C15   S    
O9    H6    S    
C6    C8    S    
N6    H16   S    
N7    H19   S    
N4    H11   S    
Cu2   O8    S    
C17   O14   S    
N5    H14   S    
C3    C16   S    
N10   H25   S    
C11   O3    A    
N1    O13   S    
N11   H28   S    
N10   H26   S    
Cu1   O7    S    
N9    H24   S    
