data_mof_unit_63337.cif
_audit_creation_date              2012-12-10T17:58:29-0500
_audit_creation_method            fapswitch 2.2
_symmetry_space_group_name_H-M    P1
_symmetry_Int_Tables_number       1
_space_group_crystal_system       triclinic
_cell_length_a                    38.625356
_cell_length_b                    21.629112
_cell_length_c                    21.653345
_cell_angle_alpha                 89.999833
_cell_angle_beta                  124.318957
_cell_angle_gamma                 90.000226
_cell_volume                      14940.6623551

loop_
_atom_site_label
_atom_site_type_symbol
_atom_type_description
_atom_site_fract_x
_atom_site_fract_y
_atom_site_fract_z
_atom_type_partial_charge
C1    C     C_R   0.999800 0.999972 0.119809 0.859231
C2    C     C_3   0.774906 0.038143 0.829433 -0.551289
C3    C     C_3   0.274131 0.525654 0.713345 -0.360507
C4    C     C_3   0.274329 0.025939 0.335119 -0.481172
C5    C     C_3   0.725672 0.024895 0.664446 -0.481221
C6    C     C_3   0.774328 0.522225 0.336556 -0.481370
C7    C     C_3   0.225671 0.525645 0.664759 -0.481187
C8    C     C_1   0.374531 0.999779 0.374202 -0.132610
C9    C     C_1   0.625468 0.999786 0.625800 -0.132586
C10   C     C_1   0.874532 0.499793 0.374191 -0.132550
C11   C     C_1   0.125469 0.499779 0.625799 -0.132602
C12   C     C_3   0.208704 0.998055 0.208340 0.235316
C13   C     C_3   0.725102 0.540462 0.172256 -0.551352
C14   C     C_3   0.791296 0.998059 0.791695 0.235302
C15   C     C_3   0.708705 0.498073 0.208203 0.235295
C16   C     C_3   0.291296 0.498056 0.791672 0.235313
C17   C     C_3   0.274388 0.929701 0.267122 0.306944
C18   C     C_3   0.725612 0.929837 0.734077 0.306984
C19   C     C_3   0.774380 0.430260 0.262890 0.307044
C20   C     C_3   0.225612 0.429736 0.733217 0.306949
C21   C     C_3   0.291131 0.998181 0.290386 0.133765
C22   C     C_3   0.708869 0.998196 0.709642 0.133739
C23   C     C_3   0.791132 0.498224 0.290271 0.133711
C24   C     C_3   0.274907 0.537470 0.829900 -0.551322
C25   C     C_3   0.208869 0.498184 0.709623 0.133760
C26   C     C_1   0.290632 0.891276 0.334956 0.322848
C27   C     C_1   0.709370 0.890535 0.666908 0.322823
C28   C     C_1   0.790609 0.388799 0.328315 0.322842
C29   C     C_1   0.209370 0.391063 0.665569 0.322857
C30   C     C_1   0.289225 0.102927 0.236196 0.219836
C31   C     C_1   0.710770 0.103820 0.762033 0.219832
C32   C     C_1   0.789253 0.605925 0.242484 0.219543
C33   C     C_1   0.210772 0.603179 0.763308 0.219815
C34   C     C_1   0.938539 0.076016 0.251219 0.302758
C35   C     C_1   0.337049 0.999170 0.336524 -0.015279
C36   C     C_1   0.061459 0.076021 0.748778 0.302705
C37   C     C_1   0.438546 0.576029 0.251227 0.302696
C38   C     C_1   0.561459 0.576020 0.748778 0.302693
C39   C     C_1   0.063443 0.934729 0.251430 0.200908
C40   C     C_1   0.936559 0.934725 0.748572 0.200842
C41   C     C_1   0.563434 0.434712 0.251422 0.200531
C42   C     C_1   0.436558 0.434726 0.748571 0.200893
C43   C     C_1   0.025555 0.185605 0.416782 0.169065
C44   C     C_1   0.974445 0.185604 0.583217 0.168893
C45   C     C_1   0.525561 0.685605 0.416791 0.168981
C46   C     C_1   0.662951 0.999182 0.663487 -0.015268
C47   C     C_1   0.474440 0.685604 0.583211 0.169041
C48   C     C_1   0.837049 0.499197 0.336477 -0.015226
C49   C     C_1   0.162951 0.499171 0.663480 -0.015277
C50   C     C_1   0.162966 0.999268 0.162810 0.005131
C51   C     C_1   0.837033 0.999268 0.837206 0.005155
C52   C     C_1   0.662967 0.499273 0.162741 0.005249
C53   C     C_R   0.000200 0.999972 0.880191 0.859190
C54   C     C_1   0.337034 0.499269 0.837196 0.005141
C55   C     C_1   0.125481 0.999849 0.125455 -0.152324
C56   C     C_1   0.874519 0.999848 0.874550 -0.152293
C57   C     C_1   0.625481 0.499849 0.125427 -0.152159
C58   C     C_1   0.374519 0.499849 0.874547 -0.152294
C59   C     C_R   0.967343 0.034096 0.184330 0.404457
C60   C     C_R   0.032656 0.034098 0.815668 0.404420
C61   C     C_R   0.467346 0.534103 0.184334 0.404413
C62   C     C_R   0.532656 0.534098 0.815669 0.404487
C63   C     C_R   0.968660 0.037249 0.249691 -0.053042
C64   C     C_R   0.499799 0.499972 0.119808 0.859106
C65   C     C_R   0.031339 0.037252 0.750308 -0.053014
C66   C     C_R   0.468663 0.537256 0.249695 -0.053019
C67   C     C_R   0.531339 0.537251 0.750308 -0.052996
C68   C     C_R   0.999502 0.003597 0.312880 -0.163932
C69   C     C_R   0.000498 0.003598 0.687120 -0.163939
C70   C     C_R   0.499502 0.503598 0.312880 -0.163916
C71   C     C_R   0.500498 0.503597 0.687120 -0.163926
C72   C     C_R   0.030128 0.969845 0.312467 -0.219738
C73   C     C_R   0.969873 0.969843 0.687534 -0.219752
C74   C     C_R   0.530123 0.469838 0.312464 -0.219914
C75   C     C_R   0.500200 0.499972 0.880191 0.859212
C76   C     C_R   0.469873 0.469843 0.687533 -0.219734
C77   C     C_R   0.030163 0.968075 0.248868 -0.043419
C78   C     C_R   0.969838 0.968073 0.751133 -0.043359
C79   C     C_R   0.530158 0.468067 0.248864 -0.043098
C80   C     C_R   0.469838 0.468073 0.751133 -0.043393
C81   C     C_R   0.081053 0.999990 0.081121 0.885089
C82   C     C_R   0.918947 0.999989 0.918877 0.885047
C83   C     C_R   0.581053 0.499989 0.081123 0.884934
C84   C     C_R   0.418947 0.499989 0.918879 0.885026
C85   C     C_R   0.998715 0.999960 0.184749 -0.185902
C86   C     C_3   0.273788 0.038445 0.218448 -0.154291
C87   C     C_R   0.001285 0.999960 0.815251 -0.185906
C88   C     C_R   0.498714 0.499960 0.184748 -0.185896
C89   C     C_R   0.501285 0.499960 0.815251 -0.185855
C90   C     C_R   0.500000 0.186025 0.500000 -0.113054
C91   C     C_R   0.999999 0.686023 0.500000 -0.113041
C92   C     C_R   0.500000 0.879776 0.500000 0.878167
C93   C     C_R   1.000000 0.379776 0.500000 0.878050
C94   C     C_R   0.418955 0.000222 0.418876 0.919034
C95   C     C_R   0.581045 0.000224 0.581124 0.918995
C96   C     C_R   0.918955 0.500224 0.418875 0.918941
C97   C     C_3   0.726209 0.039387 0.780884 -0.154274
C98   C     C_R   0.081045 0.500222 0.581124 0.919073
C99   C     C_R   0.500000 0.120184 0.500000 1.012670
C100  C     C_R   1.000000 0.620183 0.500000 1.012833
C101  C     C_R   1.000000 0.879349 0.500000 0.923782
C102  C     C_R   0.500000 0.379350 0.500000 0.923789
C103  C     C_R   0.999889 0.001732 0.379536 0.902215
C104  C     C_R   0.000111 0.001732 0.620464 0.902260
C105  C     C_R   0.499889 0.501733 0.379536 0.902274
C106  C     C_R   0.500111 0.501732 0.620464 0.902254
C107  C     C_R   0.000000 0.120021 0.500000 0.876128
C108  C     C_3   0.773799 0.541701 0.220858 -0.154129
C109  C     C_R   0.500000 0.620021 0.500000 0.876142
C110  C     C_R   0.512564 0.781566 0.459518 -0.194625
C111  C     C_R   0.487437 0.781566 0.540483 -0.194521
C112  C     C_R   0.012561 0.281566 0.459514 -0.194464
C113  C     C_R   0.987439 0.281566 0.540486 -0.194808
C114  C     C_R   0.012810 0.217668 0.459520 -0.013209
C115  C     C_R   0.987190 0.217667 0.540480 -0.013084
C116  C     C_R   0.512813 0.717668 0.459525 -0.013136
C117  C     C_R   0.487188 0.717667 0.540477 -0.013179
C118  C     C_3   0.224772 0.930512 0.217221 0.176429
C119  C     C_3   0.226211 0.538709 0.781367 -0.154276
C120  C     C_3   0.775229 0.930650 0.783967 0.176402
C121  C     C_3   0.724763 0.431088 0.213020 0.176317
C122  C     C_3   0.275229 0.430549 0.783117 0.176422
C123  C     C_R   0.000000 0.185953 0.500000 -0.092873
C124  C     C_R   0.500000 0.685953 0.500000 -0.092880
C125  C     C_R   0.500000 0.813330 0.500000 -0.057717
C126  C     C_R   1.000000 0.313330 0.500000 -0.057715
C127  C     C_R   0.466328 0.217280 0.438718 0.377504
C128  C     C_R   0.533672 0.217280 0.561281 0.377574
C129  C     C_R   0.966306 0.717277 0.438756 0.377721
C130  C     C_3   0.225091 0.037204 0.169921 -0.551320
C131  C     C_R   0.033692 0.717277 0.561248 0.377467
C132  C     C_R   0.966404 0.781533 0.439513 -0.289110
C133  C     C_R   0.033594 0.781533 0.560491 -0.289244
C134  C     C_R   0.466425 0.281536 0.439476 -0.289282
C135  C     C_R   0.533575 0.281536 0.560523 -0.289242
C136  C     C_R   0.999999 0.813121 0.500001 -0.113808
C137  C     C_R   0.500000 0.313123 0.500000 -0.113735
C138  C     C_3   0.225869 0.025949 0.286532 -0.360503
C139  C     C_3   0.774132 0.024904 0.713034 -0.360491
C140  C     C_3   0.725869 0.522231 0.287967 -0.360449
H1    H     H_    0.212713 0.912932 0.159951 0.099453
H2    H     H_    0.477552 0.806459 0.571522 0.167297
H3    H     H_    0.022444 0.306460 0.428471 0.167310
H4    H     H_    0.977556 0.306459 0.571528 0.167179
H5    H     H_    0.940683 0.806804 0.392836 0.164186
H6    H     H_    0.059315 0.806804 0.607168 0.164174
H7    H     H_    0.440721 0.306808 0.392774 0.164142
H8    H     H_    0.559280 0.306809 0.607225 0.164164
H9    H     H_    0.214333 0.074207 0.280499 0.178613
H10   H     H_    0.785668 0.073059 0.718243 0.178549
H11   H     H_    0.714334 0.570064 0.284836 0.178498
H12   H     H_    0.787286 0.913846 0.841531 0.099418
H13   H     H_    0.285668 0.573885 0.719146 0.178606
H14   H     H_    0.214262 0.999030 0.315182 0.222556
H15   H     H_    0.785740 0.997296 0.684853 0.222619
H16   H     H_    0.714259 0.492923 0.314914 0.222724
H17   H     H_    0.285738 0.498539 0.684827 0.222566
H18   H     H_    0.286066 0.999243 0.387264 0.187870
H19   H     H_    0.713936 0.997513 0.612763 0.187869
H20   H     H_    0.786062 0.493149 0.387025 0.187773
H21   H     H_    0.213934 0.498756 0.612742 0.187858
H22   H     H_    0.285954 0.074003 0.353224 0.207277
H23   H     H_    0.712710 0.416274 0.154773 0.099447
H24   H     H_    0.714047 0.072843 0.645521 0.207258
H25   H     H_    0.785955 0.569816 0.357536 0.207295
H26   H     H_    0.214047 0.573679 0.646424 0.207282
H27   H     H_    0.213678 0.017177 0.114157 0.172739
H28   H     H_    0.786319 0.018878 0.885533 0.172850
H29   H     H_    0.713684 0.523156 0.115360 0.173094
H30   H     H_    0.286322 0.517659 0.885761 0.172765
H31   H     H_    0.211764 0.084769 0.159445 0.212478
H32   H     H_    0.788231 0.085652 0.839094 0.212445
H33   H     H_    0.711788 0.587771 0.164659 0.212298
H34   H     H_    0.287286 0.413189 0.840472 0.099457
H35   H     H_    0.288233 0.585021 0.840143 0.212462
H36   H     H_    0.285088 0.019625 0.185095 0.149037
H37   H     H_    0.714909 0.021334 0.814551 0.149101
H38   H     H_    0.785095 0.525598 0.186453 0.149179
H39   H     H_    0.214911 0.520103 0.814810 0.149038
H40   H     H_    0.274502 0.918917 0.176582 0.322748
H41   H     H_    0.725495 0.920608 0.824784 0.322746
H42   H     H_    0.774509 0.424952 0.171881 0.322784
H43   H     H_    0.225495 0.419387 0.823805 0.322751
H44   H     H_    0.930571 0.045565 0.075996 0.329333
H45   H     H_    0.053883 0.944468 0.361771 0.171325
H46   H     H_    0.069428 0.045569 0.924002 0.329330
H47   H     H_    0.430574 0.545577 0.076001 0.329338
H48   H     H_    0.569428 0.545568 0.924002 0.329359
H49   H     H_    0.412653 0.213341 0.342022 0.343677
H50   H     H_    0.587349 0.213341 0.657973 0.343671
H51   H     H_    0.912593 0.713336 0.342125 0.343559
H52   H     H_    0.087398 0.713336 0.657888 0.343678
H53   H     H_    0.209066 0.849899 0.233953 0.346986
H54   H     H_    0.790934 0.849492 0.768617 0.346955
H55   H     H_    0.709048 0.348659 0.224816 0.346955
H56   H     H_    0.946118 0.944464 0.638230 0.171356
H57   H     H_    0.290937 0.349780 0.766781 0.346992
H58   H     H_    0.553876 0.444455 0.361765 0.171271
H59   H     H_    0.446118 0.444465 0.638230 0.171319
H60   H     H_    0.522449 0.806460 0.428479 0.167262
N1    N     N_1   0.303352 0.861312 0.387876 -0.204638
N2    N     N_1   0.085462 0.107062 0.747521 -0.176237
N3    N     N_1   0.414545 0.607073 0.252487 -0.176253
N4    N     N_1   0.585463 0.607061 0.747522 -0.176296
N5    N     N_1   0.090068 0.908134 0.253457 -0.168732
N6    N     N_1   0.909934 0.908128 0.746546 -0.169115
N7    N     N_1   0.590056 0.408110 0.253447 -0.170277
N8    N     N_1   0.409934 0.408130 0.746545 -0.168834
N9    N     N_1   0.035739 0.159934 0.382594 -0.190223
N10   N     N_1   0.964260 0.159933 0.617404 -0.190356
N11   N     N_1   0.535747 0.659934 0.382607 -0.190339
N12   N     N_1   0.696652 0.859890 0.614506 -0.204650
N13   N     N_1   0.464254 0.659933 0.617395 -0.190246
N14   N     N_1   0.803318 0.356471 0.379356 -0.204705
N15   N     N_1   0.196652 0.360908 0.612793 -0.204640
N16   N     N_1   0.301335 0.153334 0.250118 -0.190845
N17   N     N_1   0.698658 0.154189 0.747250 -0.190863
N18   N     N_1   0.801377 0.656130 0.259435 -0.191057
N19   N     N_1   0.198660 0.653576 0.749144 -0.190887
N20   N     N_1   0.914535 0.107056 0.252475 -0.176167
O1    O     O_R   0.999990 0.948250 0.091620 -0.615815
O2    O     O_R   0.965310 0.999930 0.556910 -0.615397
O3    O     O_R   0.534690 0.499930 0.443090 -0.615464
O4    O     O_R   0.465310 0.499930 0.556910 -0.615421
O5    O     O_R   0.965300 0.091560 0.465360 -0.613355
O6    O     O_R   0.034700 0.091560 0.534640 -0.613336
O7    O     O_R   0.465300 0.591560 0.465360 -0.613333
O8    O     O_R   0.534700 0.591560 0.534640 -0.613359
O9    O     O_R   0.999990 0.051750 0.091660 -0.600587
O10   O     O_R   0.000010 0.051750 0.908340 -0.600633
O11   O     O_R   0.499990 0.551750 0.091660 -0.600664
O12   O     O_R   0.000010 0.948250 0.908380 -0.615791
O13   O     O_R   0.500010 0.551750 0.908340 -0.600620
O14   O     O_R   0.061430 0.948250 0.061430 -0.603301
O15   O     O_R   0.938570 0.948250 0.938570 -0.603146
O16   O     O_R   0.561430 0.448250 0.061430 -0.602735
O17   O     O_R   0.438570 0.448250 0.938570 -0.603266
O18   O     O_R   0.061430 0.051750 0.061470 -0.616761
O19   O     O_R   0.938570 0.051750 0.938530 -0.616803
O20   O     O_R   0.561430 0.551750 0.061470 -0.616917
O21   O     O_R   0.438570 0.551750 0.938530 -0.616776
O22   O     O_R   0.500000 0.908530 0.551740 -0.628204
O23   O     O_R   0.499990 0.448250 0.091620 -0.615717
O24   O     O_R   0.500000 0.908530 0.448260 -0.628251
O25   O     O_R   0.000000 0.408530 0.551740 -0.628315
O26   O     O_R   0.000000 0.408530 0.448260 -0.628148
O27   O     O_R   0.438570 0.000200 0.490320 -0.626622
O28   O     O_R   0.561430 0.000200 0.509680 -0.626687
O29   O     O_R   0.938570 0.500200 0.490320 -0.626871
O30   O     O_R   0.061430 0.500200 0.509680 -0.626643
O31   O     O_R   0.438570 0.000170 0.386880 -0.598716
O32   O     O_R   0.561430 0.000170 0.613120 -0.598589
O33   O     O_R   0.938570 0.500170 0.386880 -0.598286
O34   O     O_R   0.500010 0.448250 0.908380 -0.615736
O35   O     O_R   0.061430 0.500170 0.613120 -0.598697
O36   O     O_R   0.500000 0.091870 0.551750 -0.602665
O37   O     O_R   0.500000 0.091870 0.448250 -0.602626
O38   O     O_R   0.000000 0.591870 0.551750 -0.602633
O39   O     O_R   0.000000 0.591870 0.448250 -0.602783
O40   O     O_R   0.965340 0.908230 0.465340 -0.626393
O41   O     O_R   0.034660 0.908230 0.534660 -0.626464
O42   O     O_R   0.465340 0.408230 0.465340 -0.626443
O43   O     O_R   0.534660 0.408230 0.534660 -0.626439
O44   O     O_3   0.289870 0.902208 0.228133 -0.780287
O45   O     O_R   0.965330 0.999890 0.373740 -0.628360
O46   O     O_3   0.710129 0.903280 0.773526 -0.780227
O47   O     O_3   0.789868 0.406096 0.222360 -0.779937
O48   O     O_3   0.210129 0.402504 0.772335 -0.780257
O49   O     O_3   0.935130 0.064498 0.121624 -0.753761
O50   O     O_3   0.064868 0.064502 0.878374 -0.753816
O51   O     O_3   0.435136 0.564511 0.121631 -0.753806
O52   O     O_3   0.564868 0.564502 0.878374 -0.753834
O53   O     O_3   0.433713 0.184102 0.380011 -0.760250
O54   O     O_3   0.566289 0.184103 0.619986 -0.760235
O55   O     O_3   0.933669 0.684098 0.380086 -0.760312
O56   O     O_R   0.034670 0.999890 0.626260 -0.628351
O57   O     O_3   0.066326 0.684099 0.619920 -0.760304
O58   O     O_3   0.207719 0.893339 0.247317 -0.758123
O59   O     O_3   0.792283 0.892674 0.754517 -0.758111
O60   O     O_3   0.707697 0.391131 0.240766 -0.758120
O61   O     O_3   0.292283 0.393147 0.753205 -0.758118
O62   O     O_R   0.465330 0.499890 0.373740 -0.628342
O63   O     O_R   0.534670 0.499890 0.626260 -0.628333
O64   O     O_R   0.034690 0.999930 0.443090 -0.615412
Zn1   Zn    Zn3+2 1.000000 0.930890 0.000000 1.007002
Zn2   Zn    Zn3+2 0.046310 0.999890 0.546280 0.992424
Zn3   Zn    Zn3+2 0.453690 0.499890 0.453720 0.992410
Zn4   Zn    Zn3+2 0.546310 0.499890 0.546280 0.992342
Zn5   Zn    Zn3+2 0.500000 0.430890 0.000000 1.007464
Zn6   Zn    Zn3+2 1.000000 0.069110 0.000000 1.015201
Zn7   Zn    Zn3+2 0.500000 0.569110 0.000000 1.015168
Zn8   Zn    Zn3+2 0.499990 0.000210 0.569090 1.014102
Zn9   Zn    Zn3+2 0.500010 0.000210 0.430910 1.013955
Zn10  Zn    Zn3+2 0.999990 0.500210 0.569090 1.013754
Zn11  Zn    Zn3+2 0.000010 0.500210 0.430910 1.014244
Zn12  Zn    Zn3+2 0.953690 0.999890 0.453720 0.992510

loop_
_geom_bond_atom_site_label_1
_geom_bond_atom_site_label_2
_ccdc_geom_bond_type
C78   C87   A    
O23   Zn5   S    
C47   C117  S    
C62   C89   A    
C42   C80   S    
C9    C95   S    
C101  O41   A    
C75   O13   A    
C103  O64   A    
C84   O17   A    
C68   C103  S    
C107  C123  S    
O12   Zn1   S    
O10   Zn6   S    
C75   O34   A    
C92   C125  S    
C20   O48   S    
C134  C137  A    
C112  C114  A    
O18   Zn6   S    
C64   O23   A    
O56   Zn2   S    
C13   H33   S    
C134  H7    S    
C7    H21   S    
C72   C77   A    
C12   C130  S    
C62   C67   A    
C11   C98   S    
C17   C26   S    
C39   C77   S    
C112  H3    S    
O9    Zn6   S    
O33   Zn11  S    
C117  C124  A    
C96   O33   A    
C51   C56   T    
C3    C7    S    
C119  H39   S    
C43   C114  S    
C54   C58   T    
C71   C76   A    
H40   O44   S    
C34   N20   T    
O24   Zn9   S    
C29   N15   T    
C67   C71   A    
C91   C131  A    
C20   C25   S    
C99   O37   A    
C121  H23   S    
C101  O40   A    
C25   C119  S    
O26   Zn11  S    
C3    H13   S    
C81   O18   A    
C59   O49   S    
C1    O1    A    
C106  O63   A    
C104  O2    A    
C80   C89   A    
C16   C122  S    
C93   C126  S    
C79   C88   A    
C6    H20   S    
C111  H2    S    
C21   C86   S    
C18   C120  S    
C92   O22   A    
C130  H27   S    
C109  O8    A    
C4    H18   S    
C5    C22   S    
C74   H58   S    
C2    C97   S    
C5    H19   S    
O27   Zn8   S    
C111  C125  A    
C133  C136  A    
C90   C127  A    
C121  O60   S    
C69   C73   A    
C84   O21   A    
O43   Zn4   S    
C139  H15   S    
C91   C100  S    
C30   C86   S    
O34   Zn5   S    
C24   H30   S    
C94   O27   A    
C104  O56   A    
O11   Zn7   S    
C23   C108  S    
C68   C72   A    
C53   O10   A    
C129  C132  A    
C107  O6    A    
C118  H1    S    
C13   H29   S    
O42   Zn3   S    
H55   O60   S    
C6    H25   S    
O39   Zn11  S    
O62   Zn3   S    
C16   C24   S    
C22   C97   S    
C38   N4    T    
C82   O15   A    
C94   O31   A    
C28   N14   T    
C71   C106  S    
O35   Zn10  S    
C36   N2    T    
C96   O29   A    
C127  O53   S    
C13   C108  S    
C102  O42   A    
C61   C66   A    
C2    H32   S    
H51   O55   S    
C98   O35   A    
C101  C136  S    
C60   C87   A    
C5    C139  S    
C40   N6    T    
C20   C29   S    
C33   N19   T    
C138  H9    S    
C109  O7    A    
C100  O38   A    
C120  H12   S    
C115  C123  A    
C110  H60   S    
O31   Zn9   S    
C5    H24   S    
O40   Zn12  S    
O22   Zn8   S    
C26   N1    T    
C8    C94   S    
C38   C67   S    
C44   C115  S    
C57   C83   S    
C52   C57   T    
C128  C135  A    
C18   O46   S    
C98   O30   A    
C132  H5    S    
C36   C65   S    
C86   C130  S    
C120  O59   S    
C106  O4    A    
C113  C126  A    
C110  C125  A    
C122  H34   S    
C73   C78   A    
C4    C138  S    
C76   H59   S    
O45   Zn12  S    
C17   C21   S    
H43   O48   S    
H41   O46   S    
O32   Zn8   S    
C102  C137  S    
C41   N7    T    
C19   C23   S    
C59   C85   A    
C70   C74   A    
C99   O36   A    
C11   C49   T    
C61   C88   A    
O7    Zn3   S    
C95   O28   A    
O21   Zn7   S    
O8    Zn4   S    
C2    H28   S    
C97   H37   S    
C14   C51   S    
C10   C96   S    
C130  H31   S    
C132  C136  A    
C31   N17   T    
C82   O19   A    
C86   H36   S    
O13   Zn7   S    
C105  O62   A    
C37   N3    T    
C108  H38   S    
C53   C87   S    
C45   N11   T    
C15   C52   S    
C83   O16   A    
O1    Zn1   S    
C19   C28   S    
C140  H11   S    
C128  O54   S    
C116  C124  A    
C93   O25   A    
C17   C118  S    
C140  H16   S    
C112  C126  A    
C12   C118  S    
C114  C123  A    
C4    H22   S    
O38   Zn10  S    
C22   C46   S    
C7    H26   S    
C60   C65   A    
C33   C119  S    
C14   C120  S    
C74   C79   A    
C13   C15   S    
C10   C48   T    
C40   C78   S    
C16   C54   S    
C129  O55   S    
C1    C85   S    
C55   C81   S    
H44   O49   S    
C61   O51   S    
O14   Zn1   S    
C110  C116  A    
C90   C99   S    
O36   Zn8   S    
C32   N18   T    
C24   C119  S    
C19   O47   S    
C15   C140  S    
O16   Zn5   S    
C69   C104  S    
C2    C14   S    
H53   O58   S    
C135  C137  A    
O20   Zn7   S    
H49   O53   S    
C83   O20   A    
C19   C121  S    
C127  C134  A    
C23   C48   S    
C15   C121  S    
O63   Zn4   S    
C18   C22   S    
C20   C122  S    
C118  O58   S    
C103  O45   A    
C18   C27   S    
O6    Zn2   S    
C42   N8    T    
C131  C133  A    
C70   C105  S    
C95   O32   A    
C41   C79   S    
C64   O11   A    
C12   C50   S    
C76   C80   A    
H47   O51   S    
C109  C124  S    
C56   C82   S    
C91   C129  A    
C1    O9    A    
O37   Zn9   S    
C66   C70   A    
O5    Zn12  S    
H52   O57   S    
C139  H10   S    
C59   C63   A    
C50   C55   T    
C7    C25   S    
C113  H4    S    
C111  C117  A    
O30   Zn11  S    
C30   N16   T    
O64   Zn2   S    
C21   C35   S    
C47   N13   T    
H54   O59   S    
C105  O3    A    
C32   C108  S    
C4    C21   S    
C92   O24   A    
C45   C116  S    
O29   Zn10  S    
O41   Zn2   S    
O19   Zn6   S    
C17   O44   S    
H42   O47   S    
C65   C69   A    
C6    C23   S    
C107  O5    A    
C27   N12   T    
O15   Zn1   S    
C64   C88   S    
O28   Zn9   S    
H57   O61   S    
C34   C63   S    
C44   N10   T    
C31   C97   S    
C37   C66   S    
C6    C140  S    
C58   C84   S    
C43   N9    T    
C122  O61   S    
C25   C49   S    
C72   H45   S    
C131  O57   S    
C93   O26   A    
C75   C89   S    
C53   O12   A    
C77   C85   A    
O3    Zn4   S    
C102  O43   A    
O25   Zn10  S    
C100  O39   A    
C9    C46   T    
O4    Zn3   S    
C81   O14   A    
C14   C139  S    
C135  H8    S    
H50   O54   S    
C73   H56   S    
O2    Zn12  S    
C3    H17   S    
C90   C128  A    
C12   C138  S    
C63   C68   A    
O17   Zn5   S    
C133  H6    S    
H46   O50   S    
C60   O50   S    
C138  H14   S    
C39   N5    T    
C24   H35   S    
C8    C35   T    
H48   O52   S    
C3    C16   S    
C62   O52   S    
C113  C115  A    
