data_mof_unit_49636.cif
_audit_creation_date              2013-03-05T16:30:37-0500
_audit_creation_method            fapswitch 2.2
_symmetry_space_group_name_H-M    P1
_symmetry_Int_Tables_number       1
_space_group_crystal_system       triclinic
_cell_length_a                    14.906245
_cell_length_b                    14.366562
_cell_length_c                    10.748125
_cell_angle_alpha                 89.980063
_cell_angle_beta                  93.619883
_cell_angle_gamma                 90.110664
_cell_volume                      2297.13044685

loop_
_atom_site_label
_atom_site_type_symbol
_atom_site_description
_atom_site_fract_x
_atom_site_fract_y
_atom_site_fract_z
_atom_type_partial_charge
O1    O     O_R   0.369060 0.579480 0.500010 -0.572111
O2    O     O_R   0.630940 0.579480 0.499990 -0.576780
O3    O     O_R   0.369050 0.420520 0.500010 -0.541572
O4    O     O_R   0.630950 0.420520 0.499990 -0.541591
C1    C     C_R   0.328514 0.500040 0.501066 0.858355
C2    C     C_R   0.671526 0.500234 0.499576 0.863180
O5    O     O_R   0.500000 0.579460 0.319080 -0.579330
O6    O     O_R   0.500000 0.579460 0.680920 -0.577072
O7    O     O_R   0.499990 0.420500 0.319080 -0.521934
O8    O     O_R   0.500010 0.420500 0.680920 -0.535885
C3    C     C_R   0.501777 0.499640 0.263103 1.006963
C4    C     C_R   0.498539 0.499554 0.736987 0.998668
Zn1   Zn    Zn3+2 0.500000 0.606140 0.500000 1.096969
Zn2   Zn    Zn3+2 0.500000 0.393860 0.500000 1.162112
C5    C     C_2   0.488214 0.422124 0.935707 0.383778
C6    C     C_2   0.517684 0.423480 0.065376 0.397867
C7    C     C_2   0.509037 0.497290 0.869041 -0.493644
C8    C     C_2   0.492407 0.497278 0.131063 -0.496736
H1    H     H_    0.544552 0.556157 0.912989 0.168495
H2    H     H_    0.453816 0.553763 0.086525 0.165222
C9    C     C_R   0.099834 0.539065 0.608819 -0.147062
C10   C     C_R   0.901605 0.543695 0.399420 -0.145673
H3    H     H_    0.067389 0.566465 0.688559 0.154188
H4    H     H_    0.934953 0.573606 0.321895 0.152954
C11   C     C_R   0.192786 0.536100 0.610257 0.004537
C12   C     C_R   0.808652 0.540607 0.395941 0.009247
C13   C     C_R   0.233122 0.500860 0.505452 -0.004979
C14   C     C_R   0.767069 0.501683 0.497578 0.005156
C15   C     C_R   0.181777 0.469962 0.400705 -0.114205
C16   C     C_R   0.817263 0.467965 0.601807 -0.162140
H5    H     H_    0.213092 0.445239 0.319047 0.156442
H6    H     H_    0.784880 0.440286 0.681265 0.193627
C17   C     C_R   0.089388 0.472618 0.399954 -0.132787
C18   C     C_R   0.909799 0.470614 0.604401 -0.152746
H7    H     H_    0.049807 0.447248 0.318915 0.157631
H8    H     H_    0.948557 0.442471 0.684399 0.161324
C19   C     C_R   0.048508 0.507218 0.503817 0.088858
C20   C     C_R   0.951834 0.508119 0.503101 0.100044
C21   C     C_R   0.440330 0.103052 0.422377 -0.202064
C22   C     C_R   0.560486 0.103315 0.576717 -0.176980
H9    H     H_    0.394020 0.064408 0.360628 0.238749
H10   H     H_    0.607080 0.064998 0.638290 0.235674
C23   C     C_R   0.435618 0.201253 0.428614 0.484046
C24   C     C_R   0.564271 0.201591 0.571628 0.484564
N1    N     N_R   0.500000 0.252470 0.500000 -0.207028
C25   C     C_R   0.500535 0.052578 0.499392 0.129915
C26   C     C_R   0.580166 0.895377 0.492037 0.231564
C27   C     C_R   0.420428 0.895404 0.507515 0.228110
C28   C     C_R   0.578878 0.798700 0.520914 0.350515
C29   C     C_R   0.421302 0.798670 0.479045 0.352702
N2    N     N_R   0.500000 0.747550 0.500000 -0.221815
C30   C     C_R   0.500391 0.947101 0.499579 -0.177549
S1    S     S_3+6 0.418928 0.327597 0.881343 0.103509
O9    O     O_2   0.344919 0.361848 0.791419 -0.321479
O10   O     O_2   0.474759 0.257224 0.817851 -0.216251
O11   O     O_3   0.373306 0.276110 0.002821 -0.488525
H11   H     H_    0.338249 0.223019 0.966339 0.404514
S2    S     S_3+6 0.592714 0.334538 0.121536 0.120847
O12   O     O_2   0.638565 0.292677 0.014277 -0.190814
O13   O     O_2   0.662592 0.374160 0.213813 -0.329661
O14   O     O_3   0.534571 0.250764 0.190352 -0.462826
H12   H     H_    0.580817 0.209150 0.230291 0.382257
S3    S     S_3+6 0.674016 0.757093 0.613058 0.120878
O15   O     O_2   0.744221 0.723064 0.529741 -0.259528
O16   O     O_2   0.713500 0.835757 0.690823 -0.208639
O17   O     O_3   0.647501 0.672500 0.711911 -0.532753
H13   H     H_    0.705924 0.648546 0.747547 0.367181
S4    S     S_3+6 0.325803 0.756750 0.387669 0.119290
O18   O     O_2   0.256039 0.722163 0.471567 -0.257139
O19   O     O_2   0.285878 0.835294 0.310313 -0.211905
O20   O     O_3   0.352161 0.672451 0.288479 -0.534798
H14   H     H_    0.293705 0.649155 0.251749 0.364252
C31   C     C_1   0.245234 0.568808 0.719342 0.261755
N3    N     N_1   0.287242 0.594989 0.806644 -0.149355
C32   C     C_1   0.757472 0.576866 0.287871 0.274152
N4    N     N_1   0.716431 0.605928 0.201467 -0.139221
S5    S     S_3+6 0.335504 0.248105 0.353946 0.109511
O21   O     O_2   0.291235 0.176252 0.268574 -0.255870
O22   O     O_2   0.271529 0.270518 0.452209 -0.258171
O23   O     O_3   0.352507 0.342950 0.267816 -0.523660
H15   H     H_    0.301409 0.344818 0.204381 0.379473
S6    S     S_3+6 0.662846 0.249384 0.649160 0.101807
O24   O     O_2   0.645911 0.336524 0.720112 -0.269293
O25   O     O_2   0.703998 0.179744 0.740423 -0.239684
O26   O     O_3   0.737085 0.270541 0.540896 -0.538154
H16   H     H_    0.797137 0.263290 0.584750 0.387117
S7    S     S_3+6 0.677936 0.946955 0.433546 0.113774
O27   O     O_2   0.737583 0.986295 0.538687 -0.212187
O28   O     O_2   0.729329 0.875083 0.365766 -0.195965
O29   O     O_3   0.648028 0.032954 0.333106 -0.550244
H17   H     H_    0.704227 0.067902 0.321351 0.403070
S8    S     S_3+6 0.323069 0.947027 0.566560 0.117088
O30   O     O_2   0.263267 0.986379 0.461731 -0.202069
O31   O     O_2   0.271631 0.875150 0.634698 -0.202168
O32   O     O_3   0.353616 0.033057 0.666772 -0.525035
H18   H     H_    0.297188 0.066526 0.681358 0.405147

loop_
_geom_bond_atom_site_label_1
_geom_bond_atom_site_label_2
_geom_bond_distance
_ccdc_geom_bond_type
O5    Zn1   1.982098 S    
S7    O27   1.502877 D    
S3    O16   1.502727 D    
C3    C8    1.417643 S    
O6    Zn1   1.981836 S    
C28   S3    1.781796 S    
C25   C30   1.515344 S    
C13   C15   1.393045 A    
C31   N3    1.157236 T    
O32   H18   0.990734 S    
O7    Zn2   1.981717 S    
C21   H9    1.079874 S    
S1    O9    1.503483 D    
C22   C25   1.387356 A    
O1    C1    1.290785 A    
C5    S1    1.780798 S    
C11   C31   1.445649 S    
C24   S6    1.779558 S    
O26   H16   0.990640 S    
S5    O23   1.674909 S    
S2    O13   1.503429 D    
C5    C6    1.434725 S    
C10   C20   1.399787 A    
C15   C17   1.377287 A    
O11   H11   0.990659 S    
O2    Zn1   1.989781 S    
C17   H7    1.083569 S    
C1    C13   1.425765 S    
C2    C14   1.425819 S    
S4    O18   1.502522 D    
C28   N2    1.391535 A    
C4    C7    1.418448 S    
C18   H8    1.083735 S    
S2    O14   1.680192 S    
C27   C29   1.423385 A    
O17   H13   0.991209 S    
S3    O17   1.677002 S    
Zn1   N2    2.031577 S    
O2    C2    1.290431 A    
C26   C28   1.423437 A    
C29   N2    1.391438 A    
Zn2   N1    2.031288 S    
S1    O10   1.501973 D    
C16   C18   1.378343 A    
O4    C2    1.294226 A    
O8    Zn2   1.981977 S    
C21   C23   1.414516 A    
S2    O12   1.503130 D    
S5    O21   1.504861 D    
S8    O32   1.682811 S    
C17   C19   1.397164 A    
C26   S7    1.783092 S    
O1    Zn1   1.988331 S    
O5    C3    1.296265 A    
C32   N4    1.157593 T    
C19   C20   1.440656 S    
O7    C3    1.287181 A    
C22   C24   1.414085 A    
O6    C4    1.297127 A    
S8    O31   1.502627 D    
C12   C32   1.446303 S    
S5    O22   1.502360 D    
C6    S2    1.779808 S    
C23   N1    1.398501 A    
O3    Zn2   1.989927 S    
O8    C4    1.286766 A    
C21   C25   1.387333 A    
S4    O19   1.502739 D    
S6    O25   1.505034 D    
C9    H3    1.084760 S    
C10   C12   1.384343 A    
C10   H4    1.085026 S    
C11   C13   1.404933 A    
C24   N1    1.397862 A    
S1    O11   1.680428 S    
C5    C7    1.342443 D    
C9    C11   1.385405 A    
C18   C20   1.397429 A    
O23   H15   0.990069 S    
O3    C1    1.293798 A    
C26   C30   1.410120 A    
C23   S5    1.782270 S    
S6    O26   1.682892 S    
C12   C14   1.404989 A    
C14   C16   1.394505 A    
O20   H14   0.991288 S    
C15   H5    1.080250 S    
C16   H6    1.082387 S    
O29   H17   0.990708 S    
S4    O20   1.677288 S    
C22   H10   1.080081 S    
S8    O30   1.502813 D    
C7    H1    1.088850 S    
C8    H2    1.088733 S    
O4    Zn2   1.988474 S    
O14   H12   0.990427 S    
S3    O15   1.502237 D    
C27   C30   1.410323 A    
C9    C19   1.399406 A    
C6    C8    1.341698 D    
S6    O24   1.496250 D    
C27   S8    1.783174 S    
S7    O29   1.682578 S    
S7    O28   1.502609 D    
C29   S4    1.781651 S    
