data_mof_unit_23789.cif
_audit_creation_date              2012-12-10T18:01:44-0500
_audit_creation_method            fapswitch 2.2
_symmetry_space_group_name_H-M    P1
_symmetry_Int_Tables_number       1
_space_group_crystal_system       triclinic
_cell_length_a                    10.778896
_cell_length_b                    9.886887
_cell_length_c                    19.215745
_cell_angle_alpha                 90.094511
_cell_angle_beta                  96.743934
_cell_angle_gamma                 89.564462
_cell_volume                      2033.58828911

loop_
_atom_site_label
_atom_site_type_symbol
_atom_type_description
_atom_site_fract_x
_atom_site_fract_y
_atom_site_fract_z
_atom_type_partial_charge
C1    C     C_R   0.263544 0.501377 0.504467 0.810580
C2    C     C_R   0.734742 0.499865 0.492490 0.821831
C3    C     C_R   0.506275 0.524129 0.929828 0.384523
C4    C     C_R   0.514866 0.519033 0.070968 0.378325
C5    C     C_R   0.501944 0.500071 0.368294 0.756976
C6    C     C_R   0.498762 0.500232 0.631483 0.769696
C7    C     C_R   0.063039 0.383309 0.510351 0.104629
C8    C     C_R   0.930054 0.624411 0.477346 0.132290
C9    C     C_R   0.936093 0.379634 0.488030 0.112097
C10   C     C_R   0.059480 0.628876 0.494779 0.127352
C11   C     C_R   0.867423 0.500765 0.482116 -0.212247
C12   C     C_R   0.127817 0.505802 0.506973 -0.216200
C13   C     C_R   0.438841 0.074833 0.444053 0.198387
C14   C     C_R   0.537450 0.928860 0.559971 0.154340
C15   C     C_R   0.557635 0.073525 0.556615 0.191836
C16   C     C_R   0.456172 0.928947 0.440388 0.200194
C17   C     C_R   0.583366 0.597250 0.264184 -0.215911
C18   C     C_R   0.584311 0.427053 0.749663 -0.245185
C19   C     C_R   0.410227 0.583276 0.736237 -0.217359
C20   C     C_R   0.442696 0.408754 0.249115 -0.228591
C21   C     C_R   0.585210 0.606301 0.191735 0.082248
C22   C     C_R   0.588071 0.431358 0.822393 0.097691
C23   C     C_R   0.412320 0.593212 0.808987 0.073755
C24   C     C_R   0.453313 0.403938 0.177502 0.103590
C25   C     C_R   0.519223 0.508886 0.147416 0.008999
C26   C     C_R   0.502460 0.516834 0.853103 0.002455
C27   C     C_R   0.509858 0.501368 0.292809 -0.074287
C28   C     C_R   0.496431 0.501841 0.706913 -0.047258
Cu1   Cu    Cu3+1 0.500000 0.640660 0.500000 0.951869
Cu2   Cu    Cu3+1 0.500000 0.359340 0.500000 0.960149
H1    H     H_    0.637704 0.667642 0.298258 0.163355
H2    H     H_    0.652366 0.366709 0.726395 0.141486
H3    H     H_    0.342195 0.641244 0.702194 0.149133
H4    H     H_    0.380516 0.340093 0.270458 0.144549
N1    N     N_R   0.500000 0.852070 0.500000 -0.183430
N2    N     N_R   0.500000 0.147930 0.500000 -0.176917
N3    N     N_R   0.403909 0.512159 0.029834 -0.253798
N4    N     N_R   0.616732 0.536325 0.971064 -0.249089
N5    N     N_R   0.399876 0.512718 0.960490 -0.248968
N6    N     N_R   0.621199 0.532279 0.040431 -0.244877
O1    O     O_R   0.319640 0.618740 0.500000 -0.563087
O2    O     O_R   0.680360 0.381260 0.500000 -0.571102
O3    O     O_R   0.680360 0.618740 0.500000 -0.551488
O4    O     O_R   0.319640 0.381260 0.500000 -0.565736
O5    O     O_R   0.499980 0.618820 0.400140 -0.601666
O6    O     O_R   0.500020 0.381180 0.599860 -0.574294
O7    O     O_R   0.500020 0.618820 0.599860 -0.591195
O8    O     O_R   0.499980 0.381180 0.400140 -0.572951
I1    I     I_    0.140615 0.213916 0.570299 -0.347930
I2    I     I_    0.836568 0.797270 0.426351 -0.341893
I3    I     I_    0.867078 0.203097 0.432418 -0.331226
I4    I     I_    0.138269 0.826217 0.517291 -0.308351
C29   C     C_3   0.654577 0.724524 0.164811 -0.411146
C30   C     C_3   0.795622 0.696242 0.172359 -0.307337
C31   C     C_3   0.866561 0.815489 0.146436 -0.827422
H5    H     H_    0.835740 0.834749 0.090091 0.257497
H6    H     H_    0.850350 0.907850 0.177219 0.259459
H7    H     H_    0.968234 0.792301 0.152860 0.240960
H8    H     H_    0.830463 0.677366 0.228316 0.226583
H9    H     H_    0.815124 0.604658 0.141721 0.236924
H10   H     H_    0.636190 0.816579 0.195516 0.193533
H11   H     H_    0.619883 0.749408 0.109660 0.212354
C32   C     C_3   0.683562 0.340436 0.863975 -0.394583
C33   C     C_3   0.813703 0.404566 0.870386 -0.333424
C34   C     C_3   0.910655 0.315261 0.912864 -0.825746
H12   H     H_    0.885447 0.301039 0.966779 0.261748
H13   H     H_    0.916727 0.215034 0.887210 0.249414
H14   H     H_    0.003601 0.364162 0.916269 0.245413
H15   H     H_    0.842896 0.419764 0.817354 0.211316
H16   H     H_    0.811398 0.505037 0.896210 0.239965
H17   H     H_    0.656533 0.316006 0.916406 0.213654
H18   H     H_    0.686840 0.241264 0.836728 0.182625
C35   C     C_3   0.319878 0.690406 0.836347 -0.397537
C36   C     C_3   0.189915 0.626380 0.832482 -0.309570
C37   C     C_3   0.096304 0.721494 0.861438 -0.839380
H19   H     H_    0.126863 0.744892 0.917363 0.263235
H20   H     H_    0.087258 0.817045 0.830863 0.255730
H21   H     H_    0.003394 0.672417 0.857588 0.235688
H22   H     H_    0.155448 0.602070 0.777087 0.217766
H23   H     H_    0.195190 0.530700 0.862991 0.237380
H24   H     H_    0.351620 0.724018 0.890564 0.211237
H25   H     H_    0.313966 0.784150 0.804117 0.192070
C38   C     C_3   0.393677 0.284386 0.136418 -0.399779
C39   C     C_3   0.449906 0.148854 0.164605 -0.357955
C40   C     C_3   0.389409 0.029512 0.123448 -0.850922
H26   H     H_    0.287252 0.028732 0.126904 0.256244
H27   H     H_    0.406001 0.035671 0.067573 0.257585
H28   H     H_    0.430392 0.933375 0.145741 0.240343
H29   H     H_    0.552026 0.147185 0.160722 0.230874
H30   H     H_    0.435753 0.135529 0.220453 0.211849
H31   H     H_    0.291529 0.286127 0.140214 0.198489
H32   H     H_    0.406493 0.288221 0.080219 0.222797
C41   C     C_3   0.368978 0.145142 0.378225 -0.384169
C42   C     C_3   0.252415 0.234038 0.383983 -0.273621
C43   C     C_3   0.149911 0.223331 0.321489 -0.914789
H33   H     H_    0.189812 0.230300 0.270947 0.245224
H34   H     H_    0.098441 0.127138 0.323083 0.288806
H35   H     H_    0.081340 0.307168 0.323969 0.267987
H36   H     H_    0.209917 0.204925 0.431140 0.284349
H37   H     H_    0.279016 0.341433 0.383884 0.235808
H38   H     H_    0.438186 0.188531 0.347349 0.185421
H39   H     H_    0.328137 0.072149 0.341135 0.209887
C44   C     C_3   0.542117 0.870022 0.633525 -0.298513
C45   C     C_3   0.673140 0.809367 0.660248 -0.284133
C46   C     C_3   0.694925 0.802764 0.740151 -0.895998
H40   H     H_    0.696161 0.906240 0.762787 0.247514
H41   H     H_    0.620487 0.743964 0.760932 0.275363
H42   H     H_    0.786310 0.753127 0.756924 0.246798
H43   H     H_    0.689416 0.707959 0.638810 0.241138
H44   H     H_    0.748532 0.871326 0.642024 0.212708
H45   H     H_    0.516309 0.947882 0.670993 0.133379
H46   H     H_    0.458073 0.811771 0.640309 0.215453
C47   C     C_3   0.630401 0.141075 0.622608 -0.388144
C48   C     C_3   0.750066 0.219852 0.614161 -0.280676
C49   C     C_3   0.856441 0.194401 0.673267 -0.895289
H47   H     H_    0.823642 0.210345 0.725339 0.241728
H48   H     H_    0.892664 0.089310 0.670242 0.283375
H49   H     H_    0.933778 0.265815 0.668210 0.274310
H50   H     H_    0.784671 0.189523 0.564853 0.283823
H51   H     H_    0.730244 0.329492 0.616013 0.229992
H52   H     H_    0.566048 0.193103 0.654253 0.199349
H53   H     H_    0.666980 0.066637 0.661396 0.193212
C50   C     C_3   0.446406 0.868287 0.366310 -0.317482
C51   C     C_3   0.326276 0.784041 0.343108 -0.293453
C52   C     C_3   0.207769 0.861847 0.316822 -0.866753
H54   H     H_    0.176770 0.922917 0.360090 0.297589
H55   H     H_    0.222089 0.924970 0.270717 0.249256
H56   H     H_    0.132160 0.789001 0.299916 0.253194
H57   H     H_    0.346259 0.716358 0.299616 0.205719
H58   H     H_    0.301758 0.720812 0.386581 0.269389
H59   H     H_    0.462218 0.939847 0.324073 0.122674
H60   H     H_    0.535590 0.816788 0.361740 0.204345

loop_
_geom_bond_atom_site_label_1
_geom_bond_atom_site_label_2
_ccdc_geom_bond_type
C45   H44   S    
C31   H5    S    
C41   C42   S    
C50   H60   S    
C35   C36   S    
C15   N2    A    
C43   H33   S    
C9    I3    S    
C10   I4    S    
C48   C49   S    
C43   H35   S    
C50   C51   S    
C30   H9    S    
C29   C30   S    
C38   H32   S    
C46   H41   S    
Cu1   O7    S    
Cu2   O8    S    
N4    N6    A    
C16   C50   S    
C16   N1    A    
C45   H43   S    
C49   H47   S    
C44   H45   S    
C23   C26   A    
C22   C32   S    
C5    C27   S    
C29   H10   S    
C6    C28   S    
C47   H53   S    
C20   C24   A    
C3    N4    A    
C34   H13   S    
C52   H56   S    
C15   C47   S    
C33   H16   S    
C48   H50   S    
C50   H59   S    
C34   H14   S    
C3    N5    A    
C36   H23   S    
Cu1   O3    S    
Cu2   O4    S    
C1    C12   S    
C39   H30   S    
C23   C35   S    
C2    C11   S    
C35   H24   S    
C45   C46   S    
C46   H42   S    
Cu2   O6    S    
C4    C25   S    
C30   H8    S    
C40   H27   S    
C7    C12   A    
C5    O8    A    
C6    O7    A    
C17   C27   A    
C4    N6    A    
C18   C28   A    
C24   C25   A    
C7    I1    S    
C13   N2    A    
C19   H3    S    
C41   H38   S    
C14   N1    A    
C49   H48   S    
C40   H26   S    
C5    O5    A    
C17   C21   A    
Cu1   O5    S    
C44   H46   S    
C19   C23   A    
C37   H19   S    
Cu1   Cu2   S    
C9    C11   A    
C29   H11   S    
C1    O4    A    
C38   C39   S    
C42   H37   S    
C2    O3    A    
C49   H49   S    
C51   H58   S    
C33   H15   S    
C39   C40   S    
C19   C28   A    
C37   H20   S    
C10   C12   A    
C1    O1    A    
C32   H17   S    
C36   H22   S    
C31   H6    S    
C52   H54   S    
C17   H1    S    
C13   C16   A    
C18   H2    S    
C39   H29   S    
C8    I2    S    
C35   H25   S    
C47   C48   S    
C40   H28   S    
C7    C9    A    
C21   C25   A    
C30   C31   S    
C6    O6    A    
Cu1   O1    S    
C18   C22   A    
C24   C38   S    
C3    C26   S    
C41   H39   S    
C43   H34   S    
C20   C27   A    
C38   H31   S    
C46   H40   S    
Cu1   N1    S    
Cu2   N2    S    
C33   C34   S    
C20   H4    S    
N3    N5    A    
C21   C29   S    
C14   C44   S    
C42   H36   S    
C2    O2    A    
C8    C11   A    
C32   H18   S    
C51   H57   S    
C42   C43   S    
C37   H21   S    
C32   C33   S    
C47   H52   S    
C4    N3    A    
C8    C10   A    
C34   H12   S    
C22   C26   A    
C31   H7    S    
C13   C41   S    
C44   C45   S    
C52   H55   S    
C14   C15   A    
Cu2   O2    S    
C48   H51   S    
C36   C37   S    
C51   C52   S    
