data_mof_unit_38090.cif
_audit_creation_date              2013-03-05T16:26:13-0500
_audit_creation_method            fapswitch 2.2
_symmetry_space_group_name_H-M    P1
_symmetry_Int_Tables_number       1
_space_group_crystal_system       triclinic
_cell_length_a                    18.320049
_cell_length_b                    18.303039
_cell_length_c                    18.377734
_cell_angle_alpha                 119.937939
_cell_angle_beta                  89.886332
_cell_angle_gamma                 60.103121
_cell_volume                      4363.94049256

loop_
_atom_site_label
_atom_site_type_symbol
_atom_site_description
_atom_site_fract_x
_atom_site_fract_y
_atom_site_fract_z
_atom_type_partial_charge
Zn1   Zn    Zn3+2 0.043370 0.413240 0.543370 0.982041
Zn2   Zn    Zn3+2 0.869870 0.586760 0.543380 1.068440
Zn3   Zn    Zn3+2 0.043360 0.413260 0.369880 0.964060
Zn4   Zn    Zn3+2 0.043390 0.586740 0.543370 1.038032
O1    O     O_3   1.000000 0.500000 0.500000 -0.501513
O2    O     O_R   0.944950 0.731580 0.615800 -0.589319
O3    O     O_R   0.115780 0.268410 0.444920 -0.637864
O4    O     O_R   0.823470 0.560720 0.615800 -0.574411
O5    O     O_R   0.115800 0.439290 0.323490 -0.662558
O6    O     O_R   0.823460 0.560740 0.444930 -0.620440
O7    O     O_R   0.115830 0.560690 0.615790 -0.634734
O8    O     O_R   0.944900 0.439310 0.323490 -0.669898
O9    O     O_R   0.115810 0.439260 0.615790 -0.645056
O10   O     O_R   0.944910 0.439280 0.615800 -0.673097
O11   O     O_R   0.115820 0.560710 0.444920 -0.632132
O12   O     O_R   0.823500 0.731590 0.615800 -0.622660
O13   O     O_R   0.115770 0.268420 0.323490 -0.654489
C1    C     C_R   0.860050 0.780103 0.638939 0.800959
C2    C     C_R   0.142595 0.220275 0.359954 0.788494
C3    C     C_R   0.859914 0.498657 0.638602 0.810518
C4    C     C_R   0.139967 0.499877 0.360063 0.795158
C5    C     C_R   0.860277 0.501958 0.359455 0.812502
C6    C     C_R   0.138651 0.502837 0.642901 0.850109
H1    H     H_    0.062967 0.412272 0.832233 0.149116
C7    C     C_R   0.223419 0.619159 0.687631 -0.104594
C8    C     C_R   0.238500 0.696675 0.724455 0.022645
C9    C     C_R   0.252762 0.730135 0.805905 -0.230220
C10   C     C_R   0.259009 0.681626 0.846506 -0.065121
C11   C     C_R   0.250135 0.598821 0.806860 0.058250
C12   C     C_R   0.217531 0.578625 0.734788 0.012377
C13   C     C_R   0.272030 0.536396 0.838001 -0.162059
C14   C     C_R   0.218196 0.500699 0.835810 0.047470
C15   C     C_R   0.165598 0.500631 0.778251 0.057674
C16   C     C_R   0.177726 0.523309 0.716468 -0.152476
C17   C     C_R   0.207693 0.474359 0.894571 0.012672
C18   C     C_R   0.163126 0.427499 0.881027 -0.213341
C19   C     C_R   0.108436 0.432970 0.829279 -0.216478
C20   C     C_R   0.099908 0.482751 0.788683 0.018124
H2    H     H_    0.218524 0.591525 0.622011 0.195043
H3    H     H_    0.260388 0.793005 0.837686 0.172134
C21   C     C_R   0.210115 0.052180 0.334985 0.075072
C22   C     C_R   0.204774 0.108828 0.303313 -0.136207
C23   C     C_R   0.259836 0.052516 0.213861 -0.041915
C24   C     C_R   0.309685 0.943627 0.160005 -0.196908
C25   C     C_R   0.309262 0.890410 0.194676 -0.108004
C26   C     C_R   0.260162 0.948233 0.283535 0.074406
C27   C     C_3   0.230176 0.942295 0.355109 -0.073604
C28   C     C_3   0.171893 0.061761 0.413604 -0.558229
C29   C     C_R   0.226689 0.560071 0.338045 0.054902
C30   C     C_R   0.195615 0.498715 0.303290 -0.053990
C31   C     C_R   0.220943 0.434115 0.209606 -0.199802
H4    H     H_    0.199087 0.384025 0.178128 0.186506
C32   C     C_R   0.275493 0.433608 0.155344 -0.218044
H5    H     H_    0.294213 0.382903 0.083761 0.173048
C33   C     C_R   0.305188 0.498002 0.193990 -0.062921
C34   C     C_R   0.279470 0.559275 0.286105 0.147114
C35   C     C_3   0.286618 0.637068 0.363633 -0.230391
C36   C     C_3   0.227470 0.636020 0.422478 -0.453446
H6    H     H_    0.253431 0.711394 0.370733 0.185549
H7    H     H_    0.160216 0.709968 0.464056 0.246423
C37   C     C_R   0.832740 0.947175 0.748337 0.176273
C38   C     C_R   0.805350 0.891781 0.686343 -0.173252
C39   C     C_R   0.728155 0.945549 0.668196 -0.081115
C40   C     C_R   0.675327 0.055396 0.720327 -0.030373
C41   C     C_R   0.696216 0.108671 0.794933 -0.120779
C42   C     C_R   0.778170 0.052953 0.802962 -0.019402
C43   C     C_3   0.804876 0.058513 0.881910 -0.151844
C44   C     C_3   0.866308 0.939251 0.820413 -0.273853
H8    H     H_    0.846170 0.900878 0.838818 0.194211
C45   C     C_R   0.714665 0.549632 0.337810 0.030174
C46   C     C_R   0.806266 0.499738 0.300947 -0.095386
C47   C     C_R   0.844764 0.439017 0.206309 -0.036203
C48   C     C_R   0.789542 0.433689 0.154202 -0.176244
C49   C     C_R   0.697009 0.491253 0.193810 -0.088259
C50   C     C_R   0.661583 0.542689 0.285166 0.120458
C51   C     C_3   0.581679 0.649571 0.352825 -0.560923
C52   C     C_3   0.640940 0.660690 0.409861 -0.106734
C53   C     C_R   0.719442 0.579791 0.746652 0.114096
C54   C     C_R   0.803098 0.490774 0.685463 -0.243026
C55   C     C_R   0.827466 0.394960 0.667417 -0.068210
C56   C     C_R   0.771847 0.394514 0.721428 -0.065181
C57   C     C_R   0.695424 0.490243 0.794155 -0.203307
C58   C     C_R   0.666778 0.579232 0.799180 0.191716
C59   C     C_3   0.629938 0.686965 0.877525 -0.410144
C60   C     C_3   0.688745 0.688401 0.818591 -0.195229
H9    H     H_    0.650599 0.688223 0.934840 0.123454
Zn5   Zn    Zn3+2 0.456670 0.586670 0.956580 1.026276
Zn6   Zn    Zn3+2 0.456680 0.586650 0.130080 1.050017
Zn7   Zn    Zn3+2 0.630180 0.413150 0.956570 0.953767
Zn8   Zn    Zn3+2 0.456650 0.413170 0.956580 0.999222
O14   O     O_3   0.500040 0.499910 0.999960 -0.498974
O15   O     O_R   0.384230 0.439200 0.055040 -0.661050
O16   O     O_R   0.555130 0.560630 0.884160 -0.587886
O17   O     O_R   0.384270 0.731490 0.176470 -0.623118
O18   O     O_R   0.676550 0.268320 0.884150 -0.661023
O19   O     O_R   0.555150 0.560600 0.176460 -0.621919
O20   O     O_R   0.384220 0.439220 0.884170 -0.651746
O21   O     O_R   0.676580 0.439170 0.055020 -0.657384
O22   O     O_R   0.384230 0.560650 0.884170 -0.644282
O23   O     O_R   0.384260 0.731500 0.055040 -0.644658
O24   O     O_R   0.555100 0.268330 0.884160 -0.651153
O25   O     O_R   0.384250 0.560620 0.176470 -0.596388
O26   O     O_R   0.676570 0.439190 0.884150 -0.677202
C61   C     C_R   0.360363 0.499500 0.139558 0.876884
C62   C     C_R   0.640123 0.497874 0.858022 0.795730
C63   C     C_R   0.360566 0.779500 0.139693 0.855436
C64   C     C_R   0.639915 0.220046 0.858214 0.782086
C65   C     C_R   0.640105 0.498413 0.139642 0.815265
C66   C     C_R   0.351118 0.509377 0.869204 0.872895
H10   H     H_    0.350968 0.900263 0.091885 0.205073
C67   C     C_2   0.175562 0.898471 0.335610 0.527975
H11   H     H_    0.135594 0.911218 0.389810 0.079369
O27   O     O_2   0.176049 0.848344 0.260008 -0.554696
C68   C     C_2   0.305303 0.895654 0.386594 0.411615
H12   H     H_    0.347253 0.923455 0.403580 0.068040
O28   O     O_2   0.320337 0.826484 0.392911 -0.595637
H13   H     H_    0.098728 0.098646 0.429499 0.225361
H14   H     H_    0.192100 0.097688 0.471119 0.215228
C69   C     C_2   0.378940 0.597197 0.370535 0.521886
H15   H     H_    0.387162 0.643514 0.431507 0.072236
O29   O     O_2   0.444606 0.514294 0.308913 -0.571266
H16   H     H_    0.262267 0.599805 0.456620 0.234628
C70   C     C_2   0.701180 0.887483 0.597953 0.588240
H17   H     H_    0.751491 0.814205 0.536571 0.069978
O30   O     O_2   0.622691 0.919524 0.609640 -0.524735
C71   C     C_2   0.603499 0.113087 0.693515 0.465984
H18   H     H_    0.542105 0.187015 0.742360 0.092791
O31   O     O_2   0.613702 0.079236 0.615018 -0.540697
C72   C     C_2   0.851144 0.112433 0.911058 0.368740
H19   H     H_    0.855816 0.148052 0.880175 0.120048
O32   O     O_2   0.884171 0.115997 0.969372 -0.550111
C73   C     C_2   0.728864 0.102505 0.958020 0.453722
H20   H     H_    0.712684 0.166380 0.024665 0.091006
O33   O     O_2   0.684276 0.067896 0.945660 -0.542143
C74   C     C_2   0.965460 0.890602 0.800063 0.489548
H21   H     H_    0.994808 0.889104 0.850935 0.100859
O34   O     O_2   0.013300 0.852425 0.727452 -0.506987
C75   C     C_2   0.939141 0.389680 0.159396 0.469498
H22   H     H_    0.973681 0.424690 0.190176 0.088912
O35   O     O_2   0.978733 0.310339 0.084019 -0.538355
H23   H     H_    0.818187 0.391267 0.082760 0.209745
H24   H     H_    0.559130 0.699363 0.328294 0.208154
C76   C     C_2   0.235625 0.747305 0.681205 0.443372
H25   H     H_    0.257404 0.798094 0.705701 0.078615
O36   O     O_2   0.206665 0.735495 0.619548 -0.566951
H26   H     H_    0.527714 0.648966 0.379804 0.219455
C77   C     C_2   0.654676 0.740394 0.421177 0.513461
H27   H     H_    0.598253 0.820827 0.460086 0.123717
O37   O     O_2   0.726781 0.716312 0.385893 -0.612145
C78   C     C_2   0.611070 0.675789 0.495756 0.466047
H28   H     H_    0.599994 0.622126 0.494312 0.068613
O38   O     O_2   0.598964 0.747643 0.567338 -0.477440
C79   C     C_2   0.910973 0.297174 0.593899 0.530764
H29   H     H_    0.931903 0.288251 0.533055 0.038531
O39   O     O_2   0.958512 0.227133 0.601614 -0.560448
C80   C     C_2   0.789981 0.295420 0.698539 0.497208
H30   H     H_    0.788522 0.281317 0.748941 0.091868
O40   O     O_2   0.805591 0.228361 0.622038 -0.533729
C81   C     C_2   0.530129 0.762169 0.904751 0.471459
H31   H     H_    0.498509 0.843197 0.956974 0.073232
O41   O     O_2   0.484395 0.733828 0.869393 -0.516312
C82   C     C_2   0.638191 0.764236 0.794731 0.589382
H32   H     H_    0.602968 0.846303 0.845816 0.070388
O42   O     O_2   0.636212 0.734923 0.719239 -0.490536
C83   C     C_2   0.762380 0.693666 0.852446 0.379154
H33   H     H_    0.803735 0.641783 0.870325 0.066916
O43   O     O_2   0.776347 0.755464 0.860249 -0.519690
H34   H     H_    0.267225 0.712604 0.911155 0.189609
C84   C     C_2   0.222574 0.513664 0.981602 0.460037
H35   H     H_    0.234309 0.473162 0.012353 0.049190
O44   O     O_2   0.215581 0.595035 0.022639 -0.573986
H36   H     H_    0.158767 0.401791 0.921719 0.147424
C85   C     C_2   0.010994 0.535855 0.779931 0.466972
H37   H     H_    0.970613 0.506591 0.772990 0.044968
O45   O     O_2   0.979753 0.615898 0.785811 -0.561899
C86   C     C_2   0.271341 0.103221 0.176456 0.453577
H38   H     H_    0.257784 0.179037 0.219804 0.079469
O46   O     O_2   0.298534 0.059427 0.096027 -0.558928

loop_
_geom_bond_atom_site_label_1
_geom_bond_atom_site_label_2
_geom_bond_distance
_ccdc_geom_bond_type
O24   C64   1.276827 A    
C27   C68   1.510877 S    
C33   C34   1.385872 A    
Zn6   O19   1.939710 S    
C71   H18   1.080845 S    
Zn5   O14   1.948551 S    
C48   C49   1.400996 A    
C32   C33   1.412341 A    
C43   C73   1.514713 S    
C23   C24   1.413789 A    
C68   H12   1.085932 S    
C35   C36   1.543001 S    
C55   C79   1.489241 S    
C83   H33   1.085786 S    
C48   H23   1.084259 S    
C32   H5    1.082524 S    
O6    C5    1.290554 A    
C8    C9    1.389247 A    
C38   C39   1.421890 A    
C56   C80   1.488027 S    
C58   C59   1.500818 S    
Zn1   O1    1.948402 S    
C10   C11   1.413582 A    
C77   O37   1.220884 D    
C19   C20   1.395799 A    
C59   H9    1.113258 S    
Zn5   O23   1.938609 S    
C81   H31   1.084808 S    
C55   C56   1.426848 A    
C70   O30   1.220698 D    
C36   H7    1.111498 S    
C76   H25   1.085708 S    
O22   C66   1.278610 A    
O8    C5    1.273757 A    
O21   C65   1.277197 A    
C34   C35   1.495411 S    
O9    C6    1.298071 A    
C74   O34   1.221159 D    
C21   C22   1.387384 A    
C57   C62   1.454003 S    
Zn3   O8    1.939667 S    
O16   C62   1.279834 A    
Zn8   O15   1.939403 S    
C53   C58   1.370723 A    
O26   C62   1.277194 A    
O17   C63   1.277146 A    
C77   H27   1.084633 S    
C44   H8    1.112972 S    
C27   C28   1.548767 S    
C21   C26   1.347760 A    
C81   O41   1.221587 D    
C45   C46   1.399752 A    
Zn7   O14   1.948375 S    
Zn2   O12   1.936267 S    
C52   C77   1.515951 S    
Zn8   O20   1.941264 S    
Zn5   O22   1.939936 S    
C3    C54   1.454684 S    
C2    C22   1.449692 S    
C35   C69   1.507343 S    
C86   O46   1.221438 D    
C42   C43   1.503272 S    
O19   C65   1.279380 A    
C51   H26   1.112581 S    
C83   O43   1.221564 D    
Zn7   O26   1.937321 S    
C45   C52   1.509623 S    
C60   C82   1.517958 S    
C84   O44   1.221309 D    
C43   C72   1.512435 S    
C37   C42   1.371910 A    
C4    C30   1.442362 S    
C59   C81   1.512729 S    
C56   C57   1.423460 A    
C82   O42   1.220903 D    
C85   O45   1.221251 D    
O2    C1    1.277548 A    
Zn6   O17   1.936066 S    
C18   H36   1.084195 S    
C36   H16   1.111257 S    
C49   C50   1.391114 A    
C12   C16   1.437682 A    
C31   H4    1.083050 S    
C84   H35   1.083924 S    
O10   C3    1.279535 A    
C70   H17   1.083650 S    
C59   C60   1.544809 S    
C35   H6    1.111446 S    
Zn4   O2    1.937622 S    
C10   H34   1.081272 S    
C53   C54   1.393961 A    
C73   H20   1.085655 S    
C20   C85   1.484147 S    
C28   H14   1.112286 S    
C7    C8    1.407268 A    
C85   H37   1.085181 S    
C33   C61   1.440193 S    
C29   C36   1.485688 S    
C43   C44   1.546726 S    
C68   O28   1.221211 D    
C31   C32   1.403851 A    
C17   C18   1.396423 A    
C80   H30   1.081995 S    
Zn7   O18   1.936267 S    
C50   C51   1.491999 S    
C14   C17   1.430713 A    
Zn8   O24   1.937669 S    
C11   C12   1.407951 A    
Zn3   O5    1.935520 S    
O20   C66   1.291981 A    
C23   C86   1.486434 S    
Zn6   O25   1.935373 S    
C13   C14   1.420371 A    
Zn6   O14   1.953409 S    
O11   C4    1.280838 A    
C9    H3    1.083754 S    
C6    C16   1.498768 S    
C30   C31   1.412666 A    
C13   C66   1.498240 S    
C67   O27   1.221353 D    
O4    C3    1.277464 A    
C51   C52   1.526645 S    
Zn4   O7    1.941515 S    
O25   C61   1.278620 A    
C69   O29   1.221415 D    
O18   C64   1.276861 A    
C53   C60   1.508387 S    
C73   O33   1.221917 D    
C86   H38   1.083583 S    
C57   C58   1.390825 A    
O3    C2    1.283798 A    
C25   C63   1.439492 S    
C17   C84   1.482851 S    
C78   O38   1.220899 D    
C54   C55   1.422374 A    
Zn2   O1    1.948228 S    
C79   O39   1.221040 D    
C22   C23   1.431134 A    
C8    C76   1.476475 S    
Zn2   O6    1.942404 S    
C5    C46   1.462040 S    
C45   C50   1.379160 A    
C24   C25   1.407731 A    
C72   H19   1.085917 S    
C7    C12   1.426282 A    
C76   O36   1.218343 D    
H1    C19   1.084094 S    
C26   C27   1.497711 S    
C18   C19   1.384593 A    
C71   O31   1.221173 D    
C67   H11   1.085157 S    
Zn1   O3    1.938562 S    
O23   C63   1.278088 A    
C44   C74   1.511557 S    
Zn2   O4    1.937424 S    
C47   C48   1.399640 A    
Zn3   O1    1.953407 S    
C52   C78   1.509327 S    
C39   C70   1.482186 S    
C69   H15   1.084798 S    
C28   H13   1.112316 S    
C75   O35   1.221474 D    
C82   H32   1.085275 S    
C29   C34   1.347127 A    
C40   C71   1.492003 S    
C15   C20   1.430546 A    
Zn7   O21   1.942303 S    
C60   C83   1.513024 S    
C14   C15   1.432265 A    
Zn4   O11   1.939358 S    
C80   O40   1.221058 D    
C46   C47   1.428954 A    
C11   C13   1.410873 A    
C7    H2    1.074714 S    
C37   C44   1.503291 S    
O5    C4    1.274423 A    
Zn8   O14   1.945562 S    
C27   C67   1.512435 S    
Zn5   O16   1.937132 S    
C40   C41   1.420137 A    
O7    C6    1.276864 A    
O13   C2    1.275189 A    
C21   C28   1.493097 S    
C15   C16   1.439505 A    
Zn3   O13   1.936065 S    
C41   C42   1.393087 A    
C37   C38   1.390768 A    
C47   C75   1.486189 S    
C74   H21   1.084801 S    
C75   H22   1.083897 S    
O15   C61   1.275547 A    
C49   C65   1.446758 S    
C39   C40   1.425057 A    
C25   C26   1.384223 A    
Zn4   O1    1.945561 S    
Zn1   O9    1.940042 S    
O12   C1    1.278511 A    
C29   C30   1.384192 A    
C9    C10   1.385067 A    
C78   H28   1.085940 S    
C1    C38   1.455495 S    
Zn1   O10   1.937233 S    
C79   H29   1.085174 S    
C41   C64   1.450792 S    
C51   H24   1.113536 S    
C72   O32   1.221059 D    
C24   H10   1.084108 S    
