data_mof_unit_28737.cif
_audit_creation_date              2012-10-26T21:07:46-0400
_audit_creation_method            fapswitch 2.2
_symmetry_space_group_name_H-M    P1
_symmetry_Int_Tables_number       1
_space_group_crystal_system       triclinic
_cell_length_a                    10.869317
_cell_length_b                    9.095554
_cell_length_c                    7.775499
_cell_angle_alpha                 89.999876
_cell_angle_beta                  100.922012
_cell_angle_gamma                 89.99989
_cell_volume                      754.78062984

loop_
_atom_site_label
_atom_site_type_symbol
_atom_type_description
_atom_site_fract_x
_atom_site_fract_y
_atom_site_fract_z
_atom_type_partial_charge
C1    C     C_R   0.500000 0.219970 0.500000 0.559323
C2    C     C_1   0.500000 0.934616 0.500000 -0.069007
C3    C     C_3   0.856670 0.690202 0.324428 -0.221444
C4    C     C_3   0.931232 0.805617 0.242268 -0.318741
C5    C     C_3   0.845591 0.888428 0.095427 -0.449132
C6    C     C_3   0.143320 0.690265 0.675489 -0.221447
C7    C     C_3   0.068747 0.805713 0.757578 -0.318749
C8    C     C_3   0.154389 0.888645 0.904307 -0.449128
C9    C     C_R   0.500000 0.780023 0.500000 0.534796
C10   C     C_R   0.261541 0.509572 0.432857 0.535706
C11   C     C_R   0.738459 0.509580 0.567142 0.535706
C12   C     C_2   0.125569 0.532900 0.403173 -0.131750
C13   C     C_2   0.874430 0.532925 0.596821 -0.131760
C14   C     C_2   0.069118 0.610391 0.515996 -0.019518
C15   C     C_2   0.930876 0.610385 0.483966 -0.019520
C16   C     C_1   0.500000 0.065330 0.500000 -0.062819
Cu1   Cu    Cu3+1 0.500010 0.500000 0.669080 0.984970
Cu2   Cu    Cu3+1 0.499990 0.500000 0.330920 0.984973
H1    H     H_    0.930573 0.485305 0.714221 0.091040
H2    H     H_    0.195013 0.811737 0.011090 0.162454
H3    H     H_    0.231489 0.943525 0.853345 0.165093
H4    H     H_    0.100155 0.974297 0.958910 0.142537
H5    H     H_    0.025367 0.885996 0.656508 0.163628
H6    H     H_    0.993451 0.751844 0.813392 0.164517
H7    H     H_    0.180899 0.607774 0.777452 0.171585
H8    H     H_    0.223049 0.748505 0.634522 0.163528
H9    H     H_    0.069429 0.485243 0.285795 0.091038
H10   H     H_    0.804983 0.811431 0.988728 0.162459
H11   H     H_    0.768473 0.943356 0.146308 0.165095
H12   H     H_    0.899824 0.974029 0.040735 0.142545
H13   H     H_    0.974558 0.885981 0.343277 0.163614
H14   H     H_    0.006570 0.751740 0.186547 0.164524
H15   H     H_    0.819093 0.607671 0.222511 0.171598
H16   H     H_    0.776939 0.748466 0.365365 0.163535
N1    N     N_1   0.499980 0.500000 0.076820 -0.089810
N2    N     N_1   0.500020 0.500000 0.923180 -0.089809
O1    O     O_R   0.500010 0.288400 0.642760 -0.488860
O2    O     O_R   0.499990 0.711600 0.357240 -0.504168
O3    O     O_R   0.499990 0.288400 0.357240 -0.488858
O4    O     O_R   0.500010 0.711600 0.642760 -0.504169
O5    O     O_R   0.320690 0.500000 0.590310 -0.505591
O6    O     O_R   0.679310 0.500000 0.409690 -0.505600
O7    O     O_R   0.320680 0.500000 0.304730 -0.497186
O8    O     O_R   0.679320 0.500000 0.695270 -0.497194

loop_
_geom_bond_atom_site_label_1
_geom_bond_atom_site_label_2
_ccdc_geom_bond_type
C8    H4    S    
Cu2   O3    S    
C6    C7    S    
Cu1   N2    S    
C6    C14   S    
C5    H10   S    
C2    C16   T    
Cu2   N1    S    
N1    N2    T    
C1    O1    A    
C13   C15   D    
Cu1   Cu2   S    
Cu2   O2    S    
Cu1   O8    S    
C11   O8    A    
C1    C16   S    
C4    H14   S    
Cu2   O7    S    
C10   O5    A    
C11   C13   S    
C6    H8    S    
C10   C12   S    
C8    H2    S    
C7    H5    S    
C9    O2    A    
C12   C14   D    
C8    H3    S    
C5    H11   S    
Cu2   O6    S    
Cu1   O5    S    
C4    H13   S    
C1    O3    A    
C12   H9    S    
C3    C4    S    
C6    H7    S    
C7    C8    S    
C3    C15   S    
C11   O6    A    
C5    H12   S    
C3    H15   S    
C14   C15   S    
C13   H1    S    
Cu1   O1    S    
C3    H16   S    
C10   O7    A    
C2    C9    S    
C9    O4    A    
C7    H6    S    
C4    C5    S    
Cu1   O4    S    
