data_mof_unit_14989.cif
_audit_creation_date              2012-12-11T15:22:39-0500
_audit_creation_method            fapswitch 2.2
_symmetry_space_group_name_H-M    P1
_symmetry_Int_Tables_number       1
_space_group_crystal_system       triclinic
_cell_length_a                    22.783425
_cell_length_b                    7.226532
_cell_length_c                    20.832325
_cell_angle_alpha                 89.995058
_cell_angle_beta                  93.305137
_cell_angle_gamma                 89.993834
_cell_volume                      3424.23604897

loop_
_atom_site_label
_atom_site_type_symbol
_atom_type_description
_atom_site_fract_x
_atom_site_fract_y
_atom_site_fract_z
_atom_type_partial_charge
O1    O     O_R   0.438030 0.494310 0.439340 -0.538304
O2    O     O_R   0.561970 0.994310 0.560660 -0.538451
O3    O     O_R   0.556900 0.822900 0.435960 -0.534822
O4    O     O_R   0.443100 0.322900 0.564040 -0.534471
C1    C     C_R   0.575872 0.655465 0.421127 0.714703
C2    C     C_R   0.424125 0.155470 0.578871 0.716471
O5    O     O_R   0.438170 0.823950 0.431660 -0.540375
O6    O     O_R   0.561830 0.323950 0.568340 -0.538848
O7    O     O_R   0.442390 0.995390 0.556340 -0.532870
O8    O     O_R   0.557610 0.495390 0.443660 -0.533581
C3    C     C_R   0.418532 0.655270 0.415737 0.693691
C4    C     C_R   0.581503 0.155240 0.584214 0.698154
O9    O     O_3   0.501520 0.661170 0.540910 -0.373292
O10   O     O_3   0.498480 0.161170 0.459090 -0.375319
V1    V     V_3+5 0.499720 0.935580 0.492410 1.420775
V2    V     V_3+5 0.500280 0.435580 0.507590 1.422385
C5    C     C_R   0.824147 0.961477 0.864615 -0.175575
C6    C     C_R   0.175268 0.459028 0.136129 -0.177309
C7    C     C_R   0.871517 0.085467 0.862941 -0.152550
C8    C     C_R   0.128517 0.585567 0.137031 -0.148388
C9    C     C_R   0.871830 0.219162 0.812803 0.249025
C10   C     C_R   0.128991 0.722260 0.186234 0.249523
C11   C     C_R   0.823612 0.230375 0.766899 0.124838
C12   C     C_R   0.177442 0.734036 0.231790 0.126254
C13   C     C_R   0.775851 0.106050 0.770113 -0.079412
C14   C     C_R   0.224693 0.607475 0.229196 -0.078631
C15   C     C_R   0.776286 0.971080 0.819034 -0.058789
C16   C     C_R   0.223359 0.469279 0.181382 -0.086846
C17   C     C_R   0.821901 0.365118 0.717902 -0.150576
C18   C     C_R   0.179879 0.871597 0.279809 -0.153697
C19   C     C_R   0.774082 0.376837 0.673104 -0.220098
C20   C     C_R   0.227811 0.883526 0.324395 -0.226082
C21   C     C_R   0.726779 0.254016 0.675755 0.136001
C22   C     C_R   0.274557 0.758361 0.322429 0.136700
C23   C     C_R   0.727471 0.117314 0.724342 0.005784
C24   C     C_R   0.273382 0.619498 0.274551 0.024462
C25   C     C_R   0.679571 0.993611 0.727468 -0.017031
C26   C     C_R   0.320956 0.493990 0.271877 -0.062863
C27   C     C_R   0.680137 0.859883 0.777074 0.169283
C28   C     C_R   0.319813 0.358801 0.222434 0.169741
C29   C     C_R   0.728383 0.849470 0.822293 0.562424
C30   C     C_R   0.270856 0.346104 0.178473 0.618087
C31   C     C_R   0.678555 0.267446 0.630919 -0.233885
C32   C     C_R   0.322618 0.771357 0.367402 -0.235270
C33   C     C_R   0.631092 0.144676 0.633238 -0.093838
C34   C     C_R   0.369205 0.645053 0.366369 -0.071842
C35   C     C_R   0.631891 0.008243 0.681349 -0.150262
C36   C     C_R   0.367901 0.506143 0.319100 -0.172462
H1    H     H_    0.824144 0.859427 0.902765 0.188919
H2    H     H_    0.174707 0.354690 0.098706 0.188128
H3    H     H_    0.857370 0.463486 0.714090 0.159322
H4    H     H_    0.144845 0.971786 0.283094 0.159998
H5    H     H_    0.774043 0.482953 0.636340 0.122957
H6    H     H_    0.228328 0.991468 0.360536 0.124996
H7    H     H_    0.678217 0.372232 0.593627 0.116583
H8    H     H_    0.323339 0.878059 0.404048 0.116601
H9    H     H_    0.594703 0.915326 0.682948 0.165671
H10   H     H_    0.403924 0.408562 0.319749 0.132513
C37   C     C_3   0.236772 0.295295 0.794050 -0.421007
C38   C     C_3   0.763217 0.795307 0.205945 -0.421304
C39   C     C_3   0.254967 0.956122 0.806240 -0.348777
C40   C     C_3   0.745007 0.456169 0.193728 -0.348802
C41   C     C_3   0.304120 0.965863 0.757305 0.536107
C42   C     C_3   0.695853 0.465906 0.242663 0.534357
H11   H     H_    0.328508 0.343066 0.771744 0.214341
H12   H     H_    0.671481 0.843146 0.228248 0.213257
H13   H     H_    0.256100 0.319778 0.843612 0.192184
H14   H     H_    0.743892 0.819866 0.156384 0.190972
H15   H     H_    0.235770 0.814998 0.806963 0.126565
H16   H     H_    0.764198 0.315024 0.192993 0.126341
H17   H     H_    0.274504 0.981164 0.855685 0.198358
H18   H     H_    0.725472 0.481290 0.144285 0.196939
H19   H     H_    0.306162 0.831620 0.731408 0.036616
H20   H     H_    0.693805 0.331638 0.268551 0.036311
C43   C     C_1   0.378313 0.146264 0.624423 -0.161065
C44   C     C_1   0.621675 0.646250 0.375565 -0.164017
C45   C     C_3   0.206467 0.102526 0.790157 0.162419
C46   C     C_3   0.793513 0.602501 0.209825 0.163410
C47   C     C_3   0.286011 0.308824 0.745438 -0.309773
C48   C     C_3   0.713975 0.808835 0.254554 -0.310396
C49   C     C_3   0.291750 0.124558 0.707905 0.129966
C50   C     C_3   0.708229 0.624536 0.292075 0.131840
C51   C     C_3   0.231756 0.084519 0.671260 -0.469315
C52   C     C_3   0.768219 0.584400 0.328719 -0.468957
C53   C     C_3   0.181153 0.075739 0.719372 0.208893
C54   C     C_3   0.818822 0.575604 0.280609 0.208883
C55   C     C_1   0.339559 0.137122 0.662072 -0.003556
C56   C     C_1   0.660422 0.637104 0.337910 -0.005046
C57   C     C_1   0.159307 0.092135 0.836865 -0.016463
C58   C     C_1   0.840678 0.592120 0.163120 -0.017306
C59   C     C_1   0.121044 0.083679 0.875082 -0.168557
C60   C     C_1   0.878946 0.583677 0.124908 -0.169548
H21   H     H_    0.152539 0.198247 0.708192 0.076676
H22   H     H_    0.847444 0.698063 0.291800 0.076639
H23   H     H_    0.221827 0.197195 0.635826 0.143928
H24   H     H_    0.778152 0.697035 0.364159 0.143786
H25   H     H_    0.203774 0.406494 0.783791 0.148437
H26   H     H_    0.796219 0.906458 0.216213 0.148444
H27   H     H_    0.275826 0.423966 0.711125 0.130234
H28   H     H_    0.724163 0.923931 0.288875 0.130161
H29   H     H_    0.235569 0.956975 0.642320 0.159035
H30   H     H_    0.764399 0.456837 0.357654 0.158910
O11   O     O_R   0.942420 0.735670 0.056390 -0.531544
O12   O     O_R   0.057580 0.235670 0.943610 -0.531454
O13   O     O_R   0.061840 0.404850 0.068350 -0.542091
O14   O     O_R   0.938160 0.904850 0.931650 -0.541487
C61   C     C_R   0.080555 0.574183 0.085510 0.712075
C62   C     C_R   0.919442 0.074179 0.914500 0.712457
O15   O     O_R   0.943100 0.406010 0.064050 -0.533118
O16   O     O_R   0.056900 0.906010 0.935950 -0.533164
O17   O     O_R   0.938020 0.234710 0.939330 -0.535688
O18   O     O_R   0.061980 0.734710 0.060670 -0.535372
C63   C     C_R   0.924291 0.574511 0.078867 0.713357
C64   C     C_R   0.075705 0.074510 0.921130 0.713893
O19   O     O_3   0.998500 0.567790 0.959120 -0.379228
O20   O     O_3   0.001500 0.067790 0.040880 -0.379523
V3    V     V_3+5 0.000280 0.293330 0.007580 1.425099
V4    V     V_3+5 0.999720 0.793330 0.992420 1.425951
F1    F     F_    0.358196 0.992448 0.790061 -0.660248
F2    F     F_    0.641778 0.492582 0.209908 -0.663926
N1    N     N_2   0.143080 0.912455 0.712805 -0.505278
H31   H     H_    0.099690 0.940048 0.699249 0.249441
C65   C     C_3   0.163813 0.736114 0.689899 -0.559005
H32   H     H_    0.135210 0.623979 0.706826 0.192573
H33   H     H_    0.209395 0.707006 0.708146 0.184181
H34   H     H_    0.161300 0.734357 0.636515 0.188123
N2    N     N_2   0.856883 0.412262 0.287168 -0.505291
H35   H     H_    0.900272 0.439785 0.300742 0.249344
C66   C     C_3   0.836136 0.235925 0.310060 -0.559335
H36   H     H_    0.864734 0.123770 0.293130 0.192504
H37   H     H_    0.790554 0.206896 0.291805 0.184250
H38   H     H_    0.838642 0.234109 0.363444 0.188099
N3    N     N_2   0.920838 0.339062 0.806410 -0.535694
H39   H     H_    0.931778 0.421639 0.845516 0.286883
C67   C     C_3   0.970587 0.255293 0.777548 -0.560200
H40   H     H_    0.989879 0.144145 0.808933 0.178795
H41   H     H_    0.004754 0.361961 0.770768 0.196602
H42   H     H_    0.956803 0.196431 0.729758 0.200543
N4    N     N_2   0.080588 0.844993 0.192034 -0.536106
H43   H     H_    0.070389 0.927792 0.152780 0.287051
C68   C     C_3   0.030237 0.765054 0.220908 -0.557015
H44   H     H_    0.010339 0.654436 0.189744 0.178284
H45   H     H_    0.996715 0.874031 0.227305 0.196576
H46   H     H_    0.043524 0.706444 0.268880 0.199670
N5    N     N_2   0.631452 0.738737 0.782871 -0.502050
H47   H     H_    0.621101 0.715419 0.829747 0.312912
C69   C     C_3   0.635475 0.568468 0.747047 -0.470131
H48   H     H_    0.594183 0.488240 0.750171 0.205196
H49   H     H_    0.672726 0.483663 0.767423 0.225225
H50   H     H_    0.641760 0.598136 0.695575 0.188816
N6    N     N_2   0.368494 0.239703 0.213671 -0.463543
H51   H     H_    0.409302 0.300263 0.220762 0.262965
C70   C     C_3   0.364271 0.060355 0.243640 -0.428544
H52   H     H_    0.364432 0.075892 0.296690 0.165347
H53   H     H_    0.402413 0.973827 0.231723 0.200621
H54   H     H_    0.323446 0.988894 0.225553 0.234509
F3    F     F_    0.728395 0.719279 0.869411 -0.686726
F4    F     F_    0.270664 0.215454 0.131503 -0.663950

loop_
_geom_bond_atom_site_label_1
_geom_bond_atom_site_label_2
_ccdc_geom_bond_type
C67   H42   S    
C26   C28   A    
H11   C47   S    
C52   H30   S    
C61   O18   A    
C69   H48   S    
O1    C3    A    
O2    C4    A    
C37   C45   S    
C2    O7    A    
N5    H47   S    
O15   V3    S    
C65   H32   S    
C27   C29   A    
C46   C58   S    
O5    C3    A    
O13   C61   A    
C45   C57   S    
C41   C49   S    
C11   C17   A    
C47   H27   S    
O11   C63   A    
C12   C14   A    
C66   H36   S    
C38   H26   S    
C68   H45   S    
C43   C55   T    
C65   H33   S    
C39   H15   S    
O20   V3    S    
C40   H16   S    
C52   H24   S    
C9    N3    S    
C39   C41   S    
C32   H8    S    
C40   C42   S    
C54   H22   S    
C37   H13   S    
C53   H21   S    
C39   C45   S    
N6    H51   S    
C19   C21   A    
C53   N1    S    
C25   C35   A    
C60   C63   S    
O16   C64   A    
C26   C36   A    
O15   C63   A    
C66   H38   S    
C7    C62   S    
C39   H17   S    
C28   C30   A    
C45   C53   S    
O6    V2    S    
C48   H28   S    
O13   V3    S    
O16   V4    S    
C30   F4    S    
C20   H6    S    
N5    C69   S    
C32   C34   A    
C33   C35   A    
C34   C36   A    
C21   C31   A    
C67   H40   S    
C69   H50   S    
C6    C16   A    
C48   C50   S    
C29   F3    S    
C68   H46   S    
C5    H1    S    
C47   C49   S    
C5    C7    A    
C65   H34   S    
O5    V1    S    
C41   H19   S    
C10   N4    S    
C28   N6    S    
C5    C15   A    
O4    V2    S    
N2    C66   S    
C18   C20   A    
C35   H9    S    
C41   F1    S    
C15   C29   A    
C58   C60   T    
O6    C4    A    
O19   V4    S    
C38   C46   S    
C27   N5    S    
C40   H18   S    
O1    V2    S    
C51   H23   S    
C19   H5    S    
C70   H54   S    
O2    V1    S    
C31   C33   A    
C42   C50   S    
N1    H31   S    
C49   C55   S    
C13   C23   A    
O12   C64   A    
O4    C2    A    
C51   C53   S    
C8    C10   A    
C50   C52   S    
C9    C11   A    
N3    H39   S    
C37   H25   S    
C10   C12   A    
O11   V4    S    
C70   H53   S    
C37   C47   S    
N2    H35   S    
O3    V1    S    
C6    H2    S    
O12   V3    S    
C17   H3    S    
C14   C24   A    
C67   H41   S    
C22   C32   A    
C44   C56   T    
C38   C48   S    
C51   H29   S    
C69   H49   S    
C54   N2    S    
C40   C46   S    
C52   C54   S    
C4    C33   S    
O3    C1    A    
C49   C51   S    
N4    H43   S    
C62   O17   A    
C36   H10   S    
C31   H7    S    
C13   C15   A    
H12   C48   S    
C14   C16   A    
C42   F2    S    
C59   C64   S    
O17   V3    S    
C8    C61   S    
C1    C44   S    
C24   C26   A    
O7    V1    S    
C23   C25   A    
C17   C19   A    
O8    V2    S    
C68   H44   S    
O18   V4    S    
N4    C68   S    
C46   C54   S    
O14   C62   A    
C50   C56   S    
C16   C30   A    
C21   C23   A    
C22   C24   A    
C6    C8    A    
N6    C70   S    
C12   C18   A    
N1    C65   S    
C1    O8    A    
C11   C13   A    
C38   H14   S    
C25   C27   A    
C57   C59   T    
O9    V2    S    
N3    C67   S    
C42   H20   S    
O10   V1    S    
C3    C34   S    
C66   H37   S    
C70   H52   S    
O14   V4    S    
C20   C22   A    
C18   H4    S    
C7    C9    A    
C2    C43   S    
