data_mof_unit_62381.cif
_audit_creation_date              2012-10-26T21:09:30-0400
_audit_creation_method            fapswitch 2.2
_symmetry_space_group_name_H-M    P1
_symmetry_Int_Tables_number       1
_space_group_crystal_system       triclinic
_cell_length_a                    15.997783
_cell_length_b                    14.783484
_cell_length_c                    11.728064
_cell_angle_alpha                 90.000166
_cell_angle_beta                  89.974395
_cell_angle_gamma                 90.000094
_cell_volume                      2773.72167982

loop_
_atom_site_label
_atom_site_type_symbol
_atom_type_description
_atom_site_fract_x
_atom_site_fract_y
_atom_site_fract_z
_atom_type_partial_charge
C1    C     C_R   0.340848 0.500000 0.500008 0.548591
C2    C     C_R   0.441818 0.048063 0.433690 0.228554
C3    C     C_R   0.441818 0.951936 0.433690 0.228555
C4    C     C_R   0.558182 0.048063 0.566310 0.228555
C5    C     C_1   0.500000 0.802575 0.500000 0.276783
C6    C     C_1   0.500000 0.197425 0.500000 0.276783
C7    C     C_1   0.500005 0.499999 0.162015 0.019517
C8    C     C_1   0.499995 0.500000 0.837985 0.019517
C9    C     C_1   0.500002 0.500000 0.059759 0.002937
C10   C     C_1   0.499998 0.500000 0.940241 0.002937
C11   C     C_R   0.956379 0.582099 0.499207 -0.087261
C12   C     C_R   0.659151 0.500000 0.499992 0.548591
C13   C     C_R   0.043621 0.417901 0.500793 -0.087261
C14   C     C_R   0.043622 0.582099 0.499179 -0.087263
C15   C     C_R   0.956378 0.417901 0.500821 -0.087263
C16   C     C_R   0.912786 0.500000 0.500026 0.035800
C17   C     C_R   0.087214 0.500000 0.499974 0.035800
C18   C     C_1   0.823329 0.500000 0.500025 -0.027467
C19   C     C_1   0.176671 0.500000 0.499975 -0.027466
C20   C     C_1   0.251720 0.500000 0.499988 0.012790
C21   C     C_1   0.748280 0.500000 0.500012 0.012790
C22   C     C_R   0.500000 0.902857 0.500000 -0.059892
C23   C     C_R   0.500000 0.097143 0.500000 -0.059892
C24   C     C_R   0.500008 0.500000 0.283451 0.546536
C25   C     C_R   0.499992 0.500000 0.716549 0.546536
C26   C     C_R   0.558182 0.951937 0.566310 0.228554
Cl1   Cl    Cl    0.631789 0.107248 0.650199 -0.458710
Cl2   Cl    Cl    0.368211 0.892752 0.349801 -0.458710
Cl3   Cl    Cl    0.368211 0.107246 0.349801 -0.458665
Cl4   Cl    Cl    0.631789 0.892754 0.650199 -0.458666
Cu1   Cu    Cu3+1 0.500000 0.589220 0.500000 1.085812
Cu2   Cu    Cu3+1 0.500000 0.410780 0.500000 1.085812
H1    H     H_    0.077014 0.645866 0.498543 0.144054
H2    H     H_    0.922986 0.354134 0.501457 0.144054
H3    H     H_    0.922987 0.645867 0.498589 0.143984
H4    H     H_    0.077013 0.354133 0.501411 0.143984
N1    N     N_1   0.500000 0.276710 0.500000 -0.154205
N2    N     N_1   0.500000 0.723290 0.500000 -0.154205
O1    O     O_R   0.380310 0.575320 0.500020 -0.485150
O2    O     O_R   0.619690 0.424680 0.499980 -0.485151
O3    O     O_R   0.619690 0.575320 0.499980 -0.485151
O4    O     O_R   0.380310 0.424680 0.500020 -0.485150
O5    O     O_R   0.500010 0.575340 0.337190 -0.485083
O6    O     O_R   0.499990 0.424660 0.662810 -0.485083
O7    O     O_R   0.499990 0.575340 0.662810 -0.485067
O8    O     O_R   0.500010 0.424660 0.337190 -0.485067

loop_
_geom_bond_atom_site_label_1
_geom_bond_atom_site_label_2
_ccdc_geom_bond_type
C12   O2    A    
C4    C26   A    
C12   O3    A    
C18   C21   T    
C9    C10   S    
C15   H2    S    
C19   C20   T    
Cu1   N2    S    
C13   C17   A    
C24   O8    A    
C14   H1    S    
C11   H3    S    
C2    C3    A    
Cu2   O6    S    
C6    N1    T    
Cu2   N1    S    
C8    C25   S    
C14   C17   A    
Cu1   O5    S    
C2    Cl3   S    
C6    C23   S    
C25   O6    A    
C8    C10   T    
C3    Cl2   S    
C17   C19   S    
Cu1   O1    S    
C26   Cl4   S    
Cu2   O2    S    
C13   C15   A    
Cu1   O7    S    
C11   C14   A    
C11   C16   A    
C1    O1    A    
C15   C16   A    
C25   O7    A    
C1    O4    A    
C4    Cl1   S    
C13   H4    S    
C16   C18   S    
C22   C26   A    
C2    C23   A    
C7    C9    T    
C24   O5    A    
Cu2   O4    S    
C3    C22   A    
Cu1   O3    S    
C4    C23   A    
C5    N2    T    
Cu2   O8    S    
C12   C21   S    
Cu1   Cu2   S    
C5    C22   S    
C7    C24   S    
C1    C20   S    
