data_mof_unit_40440.cif
_audit_creation_date              2012-12-10T17:38:18-0500
_audit_creation_method            fapswitch 2.2
_symmetry_space_group_name_H-M    P1
_symmetry_Int_Tables_number       1
_space_group_crystal_system       triclinic
_cell_length_a                    12.400015
_cell_length_b                    13.213137
_cell_length_c                    19.3499
_cell_angle_alpha                 76.83821
_cell_angle_beta                  101.388634
_cell_angle_gamma                 116.846083
_cell_volume                      2737.96158866

loop_
_atom_site_label
_atom_site_type_symbol
_atom_type_description
_atom_site_fract_x
_atom_site_fract_y
_atom_site_fract_z
_atom_type_partial_charge
C1    C     C_R   0.854886 0.286760 0.505194 0.772338
C2    C     C_R   0.998390 0.497543 0.708504 -0.030073
C3    C     C_R   0.997460 0.495989 0.070400 0.411017
C4    C     C_R   0.996612 0.494760 0.930273 0.411125
C5    C     C_R   0.088959 0.480230 0.197332 -0.157377
C6    C     C_R   0.089695 0.481404 0.269243 -0.189778
C7    C     C_R   0.999668 0.499472 0.291699 -0.026002
C8    C     C_R   0.908985 0.516461 0.240938 -0.189910
C9    C     C_R   0.908250 0.515281 0.169033 -0.156466
C10   C     C_R   0.998198 0.497116 0.146496 0.056957
C11   C     C_R   0.271655 0.027844 0.413363 -0.182156
C12   C     C_R   0.999509 0.499214 0.632372 0.772541
C13   C     C_R   0.227959 0.835676 0.475962 -0.056095
C14   C     C_R   0.814684 0.082188 0.542845 -0.188775
C15   C     C_R   0.735956 0.966485 0.553464 -0.146330
C16   C     C_R   0.612621 0.930766 0.530812 -0.154500
C17   C     C_R   0.565466 0.010712 0.494171 0.072464
C18   C     C_R   0.648658 0.126423 0.475502 0.035779
C19   C     C_R   0.438852 0.979179 0.474720 0.025612
C20   C     C_R   0.397669 0.060538 0.431558 0.144680
C21   C     C_R   0.483195 0.171407 0.406174 0.144988
C22   C     C_R   0.606764 0.201051 0.426290 -0.192996
C23   C     C_R   0.145036 0.713546 0.489763 0.802955
C24   C     C_R   0.351566 0.868931 0.498223 -0.200800
C25   C     C_R   0.187853 0.916149 0.434777 -0.205433
C26   C     C_R   0.772263 0.163796 0.505751 -0.090036
C27   C     C_R   0.345027 0.320860 0.607947 -0.298612
C28   C     C_R   0.759386 0.642462 0.401327 0.073245
C29   C     C_R   0.660062 0.667388 0.375247 -0.290135
C30   C     C_R   0.555610 0.611216 0.410240 -0.137742
C31   C     C_R   0.550708 0.532184 0.473929 0.027466
C32   C     C_R   0.652830 0.504852 0.495925 0.271675
C33   C     C_R   0.447187 0.474585 0.514482 -0.060529
C34   C     C_R   0.000069 0.500147 0.367667 0.771915
C35   C     C_R   0.444781 0.383281 0.569774 0.065694
C36   C     C_R   0.543504 0.355722 0.588663 -0.248706
C37   C     C_R   0.646553 0.417399 0.553872 -0.182053
C38   C     C_R   0.346986 0.504165 0.503827 0.476868
C39   C     C_R   0.245973 0.347818 0.593340 0.325302
C40   C     C_R   0.087062 0.477360 0.759524 -0.187844
C41   C     C_R   0.086271 0.476144 0.831606 -0.157990
C42   C     C_R   0.996707 0.494949 0.854074 0.056918
C43   C     C_R   0.907629 0.514513 0.803014 -0.158290
C44   C     C_R   0.908450 0.515785 0.730919 -0.191206
Cu1   Cu    Cu3+1 0.098280 0.475420 0.516260 0.942626
Cu2   Cu    Cu3+1 0.901720 0.524580 0.483740 0.919415
H1    H     H_    0.157372 0.462702 0.743862 0.157250
H2    H     H_    0.236638 0.086979 0.380838 0.149952
H3    H     H_    0.377207 0.806224 0.534038 0.167626
H4    H     H_    0.908746 0.107841 0.564892 0.154808
H5    H     H_    0.557556 0.839563 0.541318 0.151759
H6    H     H_    0.770152 0.904151 0.581408 0.144965
H7    H     H_    0.670056 0.282714 0.401047 0.179718
H8    H     H_    0.542239 0.286896 0.632061 0.153608
H9    H     H_    0.344439 0.250675 0.650226 0.158946
H10   H     H_    0.156082 0.460649 0.869619 0.153444
H11   H     H_    0.839785 0.685280 0.373416 0.129335
H12   H     H_    0.479045 0.627793 0.383897 0.187215
H13   H     H_    0.663007 0.728526 0.326888 0.152208
H14   H     H_    0.718709 0.392111 0.573503 0.204567
H15   H     H_    0.837251 0.529125 0.818597 0.153070
H16   H     H_    0.838577 0.531115 0.692830 0.156311
H17   H     H_    0.159631 0.466108 0.181698 0.151389
H18   H     H_    0.160908 0.468205 0.307153 0.144231
H19   H     H_    0.838281 0.530461 0.256675 0.149773
H20   H     H_    0.837048 0.528558 0.131200 0.153104
H21   H     H_    0.092173 0.891904 0.417126 0.153314
N1    N     N_R   0.910217 0.512715 0.952309 -0.242564
N2    N     N_R   0.910621 0.513295 0.020996 -0.242046
N3    N     N_R   0.083776 0.477910 0.048373 -0.243009
N4    N     N_R   0.083363 0.477315 0.979689 -0.242258
N5    N     N_R   0.246290 0.438200 0.540910 -0.207437
N6    N     N_R   0.754310 0.561190 0.459520 -0.208062
O1    O     O_R   0.972510 0.318130 0.520450 -0.581703
O2    O     O_R   0.806530 0.359650 0.492990 -0.602008
O3    O     O_R   0.083010 0.479220 0.613590 -0.584043
O4    O     O_R   0.917030 0.520740 0.586130 -0.597479
O5    O     O_R   0.193470 0.640350 0.507010 -0.547511
O6    O     O_R   0.027490 0.681870 0.479550 -0.586852
O7    O     O_R   0.082970 0.479260 0.413870 -0.606652
O8    O     O_R   0.916990 0.520780 0.386410 -0.594286
C45   C     C_3   0.445517 0.260114 0.358068 -0.879145
H22   H     H_    0.525005 0.342352 0.343486 0.236232
H23   H     H_    0.393909 0.227556 0.307910 0.232894
H24   H     H_    0.388144 0.279277 0.385807 0.232419
C46   C     C_3   0.145593 0.274827 0.640365 -0.798791
H25   H     H_    0.069371 0.297645 0.632015 0.271576
H26   H     H_    0.108739 0.183814 0.632897 0.195541
H27   H     H_    0.183409 0.280511 0.697135 0.197701
O9    O     O_3   0.359059 0.607834 0.463925 -0.755377
H28   H     H_    0.288001 0.592411 0.427720 0.344521

loop_
_geom_bond_atom_site_label_1
_geom_bond_atom_site_label_2
_ccdc_geom_bond_type
C40   H1    S    
C41   C42   A    
C19   C20   A    
C25   H21   S    
C16   H5    S    
C2    C12   S    
C7    C8    A    
C14   H4    S    
C28   H11   S    
C5    H17   S    
Cu1   O3    S    
C1    O1    A    
C28   C29   A    
C3    N2    A    
C30   C31   A    
C46   H26   S    
C11   C25   A    
C15   C16   A    
C13   C23   S    
C6    H18   S    
C9    H20   S    
C34   O7    A    
N1    N2    A    
Cu2   O6    S    
C29   H13   S    
C2    C44   A    
C8    C9    A    
C18   C26   A    
C39   N5    A    
C31   C33   A    
Cu1   O5    S    
C34   O8    A    
C9    C10   A    
C8    H19   S    
C21   C22   A    
Cu1   N5    S    
C13   C25   A    
C11   H2    S    
C28   N6    A    
Cu2   O2    S    
C22   H7    S    
C38   N5    A    
C11   C20   A    
C1    O2    A    
C3    N3    A    
C27   C39   A    
C32   N6    A    
C4    N1    A    
C46   H25   S    
C16   C17   A    
C27   C35   A    
C32   C37   A    
C13   C24   A    
Cu1   O1    S    
C35   C36   A    
C43   C44   A    
C41   H10   S    
C29   C30   A    
C2    C40   A    
Cu2   O8    S    
C31   C32   A    
C12   O4    A    
C20   C21   A    
C17   C18   A    
C15   H6    S    
C14   C26   A    
N3    N4    A    
C40   C41   A    
C45   H23   S    
C12   O3    A    
C1    C26   S    
C7    C34   S    
C42   C43   A    
C17   C19   A    
C43   H15   S    
C24   H3    S    
C36   C37   A    
C18   C22   A    
C46   H27   S    
Cu2   O4    S    
C6    C7    A    
C45   H24   S    
C38   O9    S    
C33   C38   A    
C44   H16   S    
C19   C24   A    
C5    C10   A    
C3    C10   S    
O9    H28   S    
C5    C6    A    
C4    C42   S    
C30   H12   S    
C33   C35   A    
Cu1   O7    S    
C27   H9    S    
C4    N4    A    
C23   O5    A    
C37   H14   S    
C36   H8    S    
Cu1   Cu2   S    
C21   C45   S    
C45   H22   S    
C14   C15   A    
C39   C46   S    
C23   O6    A    
Cu2   N6    S    
