data_mof_unit_58448.cif
_audit_creation_date              2013-03-05T15:54:05-0500
_audit_creation_method            fapswitch 2.2
_symmetry_space_group_name_H-M    P1
_symmetry_Int_Tables_number       1
_space_group_crystal_system       triclinic
_cell_length_a                    16.611029
_cell_length_b                    7.059929
_cell_length_c                    15.202385
_cell_angle_alpha                 90.000103
_cell_angle_beta                  95.010653
_cell_angle_gamma                 89.999975
_cell_volume                      1776.01140614

loop_
_atom_site_label
_atom_site_type_symbol
_atom_site_description
_atom_site_fract_x
_atom_site_fract_y
_atom_site_fract_z
_atom_type_partial_charge
O1    O     O_R   0.578230 0.505720 0.424270 -0.561581
O2    O     O_R   0.421770 0.005720 0.575730 -0.561547
O3    O     O_R   0.412470 0.173950 0.404530 -0.596304
O4    O     O_R   0.587530 0.673950 0.595470 -0.596323
C1    C     C_R   0.384061 0.345565 0.382464 0.970924
C2    C     C_R   0.615937 0.845567 0.617539 0.970871
O5    O     O_R   0.577030 0.175880 0.413670 -0.580290
O6    O     O_R   0.422970 0.675880 0.586330 -0.580314
O7    O     O_R   0.587510 0.007580 0.584940 -0.601788
O8    O     O_R   0.412490 0.507580 0.415060 -0.601811
C3    C     C_R   0.603548 0.344770 0.393243 0.968824
C4    C     C_R   0.396452 0.844770 0.606757 0.968820
O9    O     O_3   0.503240 0.339850 0.556180 -0.281145
O10   O     O_3   0.496760 0.839850 0.443820 -0.281140
V1    V     V_3+5 0.499400 0.064230 0.489580 1.215997
V2    V     V_3+5 0.500600 0.564230 0.510420 1.215964
C5    C     C_1   0.333783 0.855054 0.668686 -0.225332
C6    C     C_1   0.666217 0.355054 0.331314 -0.225320
C7    C     C_1   0.281069 0.865752 0.719877 0.106917
C8    C     C_1   0.718931 0.365752 0.280123 0.106930
C9    C     C_1   0.218887 0.879176 0.780015 0.098659
C10   C     C_1   0.781113 0.379176 0.219985 0.098658
C11   C     C_1   0.166262 0.889878 0.831321 -0.243151
C12   C     C_1   0.833738 0.389878 0.168679 -0.243159
C13   C     C_3   0.748010 0.747332 0.839770 -0.386401
C14   C     C_3   0.252006 0.247400 0.160217 -0.386428
H1    H     H_    0.773674 0.602401 0.847258 0.188765
H2    H     H_    0.226362 0.102450 0.152719 0.188752
H3    H     H_    0.730690 0.787737 0.906419 0.149107
H4    H     H_    0.269315 0.287852 0.093569 0.149108
C15   C     C_3   0.672654 0.741898 0.770882 -0.109448
C16   C     C_3   0.327368 0.241998 0.229099 -0.109459
H5    H     H_    0.661745 0.591564 0.751174 0.116403
H6    H     H_    0.338314 0.091651 0.248772 0.116386
H7    H     H_    0.761729 0.621627 0.651583 0.121656
H8    H     H_    0.238301 0.121476 0.348354 0.121615
C17   C     C_3   0.842518 0.828276 0.719944 0.119916
C18   C     C_3   0.157485 0.328174 0.280054 0.119972
C19   C     C_3   0.770131 0.082778 0.796894 -0.473477
C20   C     C_3   0.229841 0.582799 0.203149 -0.473444
C21   C     C_3   0.813277 0.888295 0.811332 -0.105785
C22   C     C_3   0.186720 0.388292 0.188675 -0.105816
H9    H     H_    0.814971 0.195278 0.786307 0.226748
H10   H     H_    0.184987 0.695262 0.213737 0.226815
H11   H     H_    0.741499 0.123476 0.857698 0.170088
H12   H     H_    0.258485 0.623555 0.142359 0.170113
C23   C     C_3   0.688487 0.861086 0.687021 -0.207819
C24   C     C_3   0.311508 0.361079 0.312988 -0.207782
C25   C     C_3   0.768128 0.777887 0.652726 0.077847
C26   C     C_3   0.231879 0.277741 0.347260 0.077806
C27   C     C_3   0.704428 0.073194 0.717668 -0.127569
C28   C     C_3   0.295527 0.573213 0.282393 -0.127610
H13   H     H_    0.647769 0.134361 0.739555 0.130582
H14   H     H_    0.352177 0.634497 0.260538 0.130627
H15   H     H_    0.874094 0.954786 0.696033 0.146394
H16   H     H_    0.125908 0.454657 0.303995 0.146344
O11   O     O_R   0.087480 0.241090 0.084980 -0.571288
O12   O     O_R   0.912520 0.741090 0.915020 -0.571315
O13   O     O_R   0.922960 0.569060 0.086330 -0.589381
O14   O     O_R   0.077040 0.069060 0.913670 -0.589378
C29   C     C_R   0.896253 0.400177 0.106546 0.980503
C30   C     C_R   0.103747 0.900177 0.893454 0.980532
O15   O     O_R   0.087520 0.570920 0.095480 -0.596699
O16   O     O_R   0.912480 0.070920 0.904520 -0.596715
O17   O     O_R   0.078240 0.739160 0.924260 -0.577438
O18   O     O_R   0.921760 0.239160 0.075740 -0.577437
C31   C     C_R   0.116179 0.401826 0.117544 0.934727
C32   C     C_R   0.883819 0.901826 0.882460 0.934728
O19   O     O_3   0.996740 0.404980 0.943840 -0.250889
O20   O     O_3   0.003260 0.904980 0.056160 -0.250860
V3    V     V_3+5 0.000600 0.680640 0.010420 1.238406
V4    V     V_3+5 0.999400 0.180640 0.989580 1.238403
C33   C     C_1   0.727642 0.194906 0.644774 0.196718
N1    N     N_1   0.745465 0.288449 0.587067 -0.016528
C34   C     C_1   0.272264 0.694798 0.355312 0.196603
N2    N     N_1   0.254397 0.788241 0.413036 -0.016463
N3    N     N_R   0.779787 0.835356 0.561355 0.236602
O21   O     O_R   0.842753 0.932256 0.542616 -0.327355
O22   O     O_R   0.733452 0.763462 0.496371 -0.390376
N4    N     N_R   0.220205 0.335062 0.438649 0.236577
O23   O     O_R   0.157169 0.431667 0.457424 -0.327266
O24   O     O_R   0.266586 0.263226 0.503609 -0.390427
C35   C     C_1   0.599346 0.805119 0.811046 0.039675
N5    N     N_1   0.541886 0.854615 0.842367 -0.099370
C36   C     C_1   0.400657 0.305370 0.188943 0.039680
N6    N     N_1   0.458104 0.354981 0.157625 -0.099366
N7    N     N_R   0.901411 0.672809 0.727074 0.249003
O25   O     O_R   0.881089 0.504299 0.751548 -0.426538
O26   O     O_R   0.974916 0.702136 0.706914 -0.338438
N8    N     N_R   0.098594 0.172701 0.272898 0.249019
O27   O     O_R   0.118918 0.004219 0.248387 -0.426604
O28   O     O_R   0.025090 0.201994 0.293069 -0.338409

loop_
_geom_bond_atom_site_label_1
_geom_bond_atom_site_label_2
_geom_bond_distance
_ccdc_geom_bond_type
C13   C15   1.560802 S    
C19   C27   1.554593 S    
N7    O25   1.299857 A    
C3    C6    1.465099 S    
C14   C16   1.560815 S    
C12   C29   1.465330 S    
C33   N1    1.157061 T    
O1    C3    1.313456 A    
C28   C34   1.479810 S    
O2    C4    1.313457 A    
C2    O7    1.317567 A    
H8    C26   1.108355 S    
C23   C25   1.577164 S    
N3    O21   1.301986 A    
O5    C3    1.317602 A    
O16   C32   1.317713 A    
C7    C9    1.441070 S    
C18   C22   1.569595 S    
C36   N6    1.157277 T    
O12   V3    2.013833 S    
O14   V4    1.968642 S    
C15   C35   1.478087 S    
O14   C30   1.317824 A    
O19   V3    2.191969 S    
C29   O18   1.313680 A    
C11   C30   1.465329 S    
O18   V4    1.960795 S    
C4    C5    1.465099 S    
H7    C25   1.108286 S    
C15   H5    1.113359 S    
O20   V3    1.728758 S    
C19   H11   1.113564 S    
C20   C22   1.555522 S    
O6    V2    1.968720 S    
C15   C23   1.568808 S    
C16   C24   1.568850 S    
O11   C31   1.311049 A    
C28   H14   1.112520 S    
C21   C32   1.526468 S    
N3    O22   1.301221 A    
C13   H3    1.114310 S    
C1    C24   1.535466 S    
O15   C31   1.317719 A    
O13   C29   1.317825 A    
O20   V4    2.191972 S    
C2    C23   1.535487 S    
O4    C2    1.332495 A    
C13   C21   1.560303 S    
C23   C27   1.583677 S    
O5    V1    1.968722 S    
C20   C28   1.554595 S    
C27   H13   1.112512 S    
C16   H6    1.113400 S    
O4    V2    2.007680 S    
O19   V4    1.728760 S    
C20   H12   1.113574 S    
C34   N2    1.157084 T    
C17   C25   1.573886 S    
N8    O28   1.301151 A    
C35   N5    1.157258 T    
C24   C28   1.583730 S    
O6    C4    1.317602 A    
O1    V2    1.960553 S    
O2    V1    1.960552 S    
O12   C32   1.311043 A    
O15   V3    2.007657 S    
C14   H4    1.114320 S    
C9    C11   1.223642 T    
C22   C31   1.526492 S    
C10   C12   1.223643 T    
O3    V1    2.007679 S    
C14   C22   1.560314 S    
C30   O17   1.313681 A    
C17   N7    1.467975 S    
C27   C33   1.479775 S    
C8    C10   1.441069 S    
N4    O23   1.302006 A    
O3    C1    1.332488 A    
C26   N4    1.476033 S    
C19   H9    1.110162 S    
C18   C26   1.573901 S    
C13   H1    1.110480 S    
C18   N8    1.467977 S    
C14   H2    1.110490 S    
N7    O26   1.301150 A    
O7    V1    2.008250 S    
C1    O8    1.317569 A    
O17   V3    1.960799 S    
N8    O27   1.299858 A    
C16   C36   1.478100 S    
C24   C26   1.577214 S    
C5    C7    1.223563 T    
N4    O24   1.301213 A    
C25   N3    1.476007 S    
C6    C8    1.223564 T    
O16   V4    2.007655 S    
O11   V4    2.013831 S    
C17   C21   1.569563 S    
C17   H15   1.112778 S    
C20   H10   1.110139 S    
C18   H16   1.112803 S    
C19   C21   1.555497 S    
O9    V2    1.729143 S    
O10   V1    1.729141 S    
O8    V2    2.008248 S    
O13   V3    1.968641 S    
