data_mof_unit_32081.cif
_audit_creation_date              2012-10-26T18:52:46-0400
_audit_creation_method            fapswitch 2.2
_symmetry_space_group_name_H-M    P1
_symmetry_Int_Tables_number       1
_space_group_crystal_system       triclinic
_cell_length_a                    10.729168
_cell_length_b                    14.730196
_cell_length_c                    14.833284
_cell_angle_alpha                 64.246396
_cell_angle_beta                  104.939985
_cell_angle_gamma                 102.80265
_cell_volume                      2023.82507515

loop_
_atom_site_label
_atom_site_type_symbol
_atom_type_description
_atom_site_fract_x
_atom_site_fract_y
_atom_site_fract_z
_atom_type_partial_charge
C1    C     C_R   0.480832 0.119852 0.312315 0.595050
C2    C     C_R   0.457284 0.362545 0.080115 0.023161
C3    C     C_R   0.356111 0.329691 0.013756 0.032582
C4    C     C_R   0.260258 0.000270 0.500101 0.547932
C5    C     C_R   0.490080 0.468588 0.055827 0.000334
C6    C     C_R   0.444142 0.538966 0.956658 0.017392
C7    C     C_R   0.347806 0.502832 0.890566 -0.096091
C8    C     C_R   0.302315 0.400144 0.920067 -0.112518
C9    C     C_R   0.560886 0.505997 0.129686 -0.081764
C10   C     C_R   0.601566 0.609567 0.103858 0.272431
C11   C     C_R   0.574682 0.678057 0.001880 0.054517
C12   C     C_3   0.878372 0.999952 0.500841 0.015380
C13   C     C_R   0.495368 0.643169 0.927532 -0.013636
C14   C     C_R   0.626603 0.781022 0.972786 -0.115909
C15   C     C_R   0.606647 0.847974 0.870803 -0.155590
C16   C     C_R   0.521336 0.880237 0.687808 0.544319
C17   C     C_R   0.476604 0.712486 0.825177 -0.123909
C18   C     C_R   0.748167 0.300529 0.639274 0.245157
C19   C     C_R   0.700056 0.211253 0.623904 0.066287
C20   C     C_R   0.511620 0.282695 0.512007 0.021329
C21   C     C_R   0.554312 0.376084 0.523133 -0.030661
C22   C     C_R   0.677230 0.384375 0.586192 0.059823
C23   C     C_3   0.923113 0.894501 0.572507 -0.243566
C24   C     C_R   0.481955 0.461781 0.472846 -0.025297
C25   C     C_R   0.531180 0.551132 0.491959 0.010200
C26   C     C_R   0.660114 0.559608 0.544074 -0.124717
C27   C     C_R   0.730053 0.477320 0.592716 -0.091632
C28   C     C_R   0.740179 0.999296 0.501166 0.570557
C29   C     C_R   0.365278 0.463393 0.401564 -0.125382
C30   C     C_R   0.302853 0.551414 0.347450 0.277491
C31   C     C_R   0.344920 0.635451 0.374443 0.025442
C32   C     C_R   0.453835 0.632764 0.452461 -0.057715
C33   C     C_R   0.278932 0.721742 0.325884 -0.145559
C34   C     C_3   0.966627 0.081309 0.537270 -0.223605
C35   C     C_R   0.318438 0.802208 0.357102 -0.001349
C36   C     C_R   0.477774 0.709912 0.490973 0.190970
C37   C     C_3   0.038694 0.023586 0.390560 -0.045335
C38   C     C_3   0.895216 0.025409 0.391509 -0.230113
C39   C     C_3   0.067476 0.895680 0.573335 -0.271424
C40   C     C_3   0.109633 0.080478 0.539066 -0.220572
C41   C     C_3   0.122361 0.001360 0.499681 0.021602
C42   C     C_3   0.602096 0.650271 0.234719 -0.128382
C43   C     C_2   0.664684 0.307262 0.205409 0.553333
C44   C     C_2   0.090117 0.119769 0.308373 0.557026
C45   C     C_R   0.457058 0.187700 0.204059 -0.016899
C46   C     C_2   0.545751 0.685512 0.597512 0.600494
C47   C     C_3   0.230326 0.562528 0.185489 -0.116291
C48   C     C_3   0.860404 0.255723 0.801494 -0.133201
C49   C     C_R   0.534311 0.813187 0.796346 -0.008794
C50   C     C_R   0.309101 0.226536 0.042118 -0.116402
C51   C     C_R   0.355587 0.156686 0.138296 -0.110504
C52   C     C_R   0.521547 0.287763 0.168266 0.011945
Cu1   Cu    Cu3+1 0.465900 0.918260 0.475680 0.982343
Cu2   Cu    Cu3+1 0.534100 0.081740 0.524320 0.962049
H1    H     H_    0.040625 0.958998 0.370848 0.113249
H2    H     H_    0.300557 0.552750 0.817463 0.122899
H3    H     H_    0.584349 0.455398 0.208907 0.140300
H4    H     H_    0.685569 0.809684 0.028358 0.158224
H5    H     H_    0.827096 0.487441 0.634872 0.163320
H6    H     H_    0.269250 0.869424 0.317326 0.139252
H7    H     H_    0.756839 0.148239 0.659339 0.124330
H8    H     H_    0.421961 0.270906 0.463056 0.131216
H9    H     H_    0.862368 0.100627 0.339332 0.171278
H10   H     H_    0.710391 0.631177 0.545418 0.132264
H11   H     H_    0.323086 0.399167 0.382261 0.120654
H12   H     H_    0.954128 0.066141 0.615014 0.121817
H13   H     H_    0.197682 0.727761 0.263413 0.158350
H14   H     H_    0.831700 0.968877 0.363142 0.110654
H15   H     H_    0.076496 0.835039 0.550530 0.135810
H16   H     H_    0.864384 0.835656 0.545667 0.175039
H17   H     H_    0.164330 0.060723 0.618576 0.120834
H18   H     H_    0.152764 0.157989 0.493326 0.184562
H19   H     H_    0.938977 0.158322 0.485648 0.169306
H20   H     H_    0.533812 0.707511 0.186424 0.101560
H21   H     H_    0.665403 0.676163 0.293292 0.155078
H22   H     H_    0.547781 0.575587 0.275097 0.116786
H23   H     H_    0.123996 0.877658 0.652101 0.119562
H24   H     H_    0.819998 0.273752 0.319462 0.348894
H25   H     H_    0.127752 0.272763 0.248975 0.343937
H26   H     H_    0.700756 0.715111 0.695773 0.324459
H27   H     H_    0.295657 0.634717 0.155508 0.094506
H28   H     H_    0.142069 0.565808 0.125989 0.168456
H29   H     H_    0.277632 0.496725 0.198574 0.105744
H30   H     H_    0.835799 0.172598 0.821716 0.103257
H31   H     H_    0.788137 0.284428 0.821491 0.133988
H32   H     H_    0.956331 0.267858 0.848296 0.148360
H33   H     H_    0.908725 0.873387 0.651185 0.130760
H34   H     H_    0.225235 0.375647 0.868730 0.122173
H35   H     H_    0.421917 0.688893 0.765542 0.162927
H36   H     H_    0.651118 0.926185 0.849968 0.123916
H37   H     H_    0.230905 0.200777 0.992387 0.115542
H38   H     H_    0.308862 0.078906 0.162601 0.154819
N1    N     N_R   0.585360 0.204570 0.560800 -0.265421
N2    N     N_R   0.414550 0.795430 0.439160 -0.255995
O1    O     O_R   0.455060 0.022100 0.338110 -0.518132
O2    O     O_2   0.733096 0.370328 0.146022 -0.491566
O3    O     O_R   0.722931 0.252201 0.305432 -0.687209
O4    O     O_2   0.127854 0.113854 0.240371 -0.550113
O5    O     O_R   0.091043 0.214991 0.308025 -0.717848
O6    O     O_2   0.501363 0.611765 0.665773 -0.541808
O7    O     O_R   0.663465 0.741372 0.620146 -0.714739
O8    O     O_3   0.192462 0.551315 0.274448 -0.545115
O9    O     O_3   0.869922 0.309218 0.697852 -0.585363
O10   O     O_R   0.512640 0.160150 0.379180 -0.451089
O11   O     O_R   0.288900 0.930980 0.479450 -0.513653
O12   O     O_R   0.346480 0.069030 0.520520 -0.514982
O13   O     O_R   0.487360 0.839850 0.620820 -0.471017
O14   O     O_R   0.544940 0.977900 0.661890 -0.516549
O15   O     O_R   0.653520 0.930970 0.479480 -0.465858
O16   O     O_R   0.711100 0.069020 0.520550 -0.498699
O17   O     O_3   0.680900 0.641944 0.176715 -0.555257

loop_
_geom_bond_atom_site_label_1
_geom_bond_atom_site_label_2
_ccdc_geom_bond_type
C20   N1    A    
C40   H17   S    
Cu1   O1    S    
C34   H12   S    
C7    C8    A    
C39   C41   S    
Cu1   Cu2   S    
C12   C23   S    
C26   C27   A    
C29   C30   A    
C12   C28   S    
C34   C40   S    
C32   C36   A    
Cu2   O10   S    
C30   C31   A    
C44   O5    S    
C43   C52   S    
C4    C41   S    
C45   C51   A    
Cu2   O16   S    
C18   C19   A    
C47   H28   S    
C26   H10   S    
C24   C29   A    
Cu2   N1    S    
C16   O13   A    
C33   C35   A    
H25   O5    S    
C44   O4    D    
C31   C33   A    
C36   C46   S    
C47   H29   S    
C9    C10   A    
C19   N1    A    
C25   C32   A    
C15   C49   A    
C47   O8    S    
C23   H33   S    
C21   C22   A    
C37   C41   S    
C23   H16   S    
C7    H2    S    
C3    C50   A    
C50   C51   A    
C14   H4    S    
C46   O7    S    
C42   H20   S    
Cu2   O12   S    
C17   H35   S    
C24   C25   A    
C3    C8    A    
C17   C49   A    
C45   C52   A    
C28   O16   A    
C25   C26   A    
C48   O9    S    
C4    O12   A    
C48   H30   S    
C35   H6    S    
C8    H34   S    
C42   O17   S    
C5    C9    A    
C37   C38   S    
Cu1   O11   S    
C51   H38   S    
Cu1   O13   S    
C31   C32   A    
C14   C15   A    
C1    O1    A    
C30   O8    S    
H24   O3    S    
C43   O2    D    
C39   H15   S    
C10   O17   S    
C16   C49   S    
C1    O10   A    
C2    C52   A    
C29   H11   S    
C40   C41   S    
C38   H14   S    
C22   C27   A    
C48   H32   S    
C2    C5    A    
C12   C34   S    
C12   C38   S    
C39   H23   S    
C42   H21   S    
C33   H13   S    
C38   H9    S    
C35   N2    A    
Cu1   O15   S    
C46   O6    D    
C40   H18   S    
Cu1   N2    S    
C18   C22   A    
C43   O3    S    
C6    C7    A    
Cu2   O14   S    
C28   O15   A    
C4    O11   A    
C42   H22   S    
C13   C17   A    
H26   O7    S    
C37   C44   S    
C2    C3    A    
C27   H5    S    
C15   H36   S    
C11   C13   A    
C1    C45   S    
C5    C6    A    
C19   H7    S    
C23   C39   S    
C11   C14   A    
C9    H3    S    
C18   O9    S    
C47   H27   S    
C20   H8    S    
C10   C11   A    
C16   O14   A    
C34   H19   S    
C37   H1    S    
C36   N2    A    
C50   H37   S    
C20   C21   A    
C21   C24   A    
C48   H31   S    
C6    C13   A    
