data_mof_unit_9051.cif
_audit_creation_date              2012-10-26T21:01:20-0400
_audit_creation_method            fapswitch 2.2
_symmetry_space_group_name_H-M    P1
_symmetry_Int_Tables_number       1
_space_group_crystal_system       triclinic
_cell_length_a                    15.852647
_cell_length_b                    13.081214
_cell_length_c                    11.648819
_cell_angle_alpha                 98.737297
_cell_angle_beta                  93.660422
_cell_angle_gamma                 90.345377
_cell_volume                      2382.4307384

loop_
_atom_site_label
_atom_site_type_symbol
_atom_type_description
_atom_site_fract_x
_atom_site_fract_y
_atom_site_fract_z
_atom_type_partial_charge
C1    C     C_R   0.500292 0.299528 0.480629 0.543490
C2    C     C_R   0.470617 0.972376 0.456414 0.047336
C3    C     C_R   0.405493 0.421739 0.026900 -0.031022
C4    C     C_R   0.592600 0.580489 0.973202 -0.027764
C5    C     C_R   0.418370 0.426553 0.148890 0.061036
C6    C     C_R   0.580793 0.574710 0.851564 0.047671
C7    C     C_R   0.541238 0.531341 0.154983 0.025924
C8    C     C_R   0.458721 0.468686 0.845095 0.019853
C9    C     C_R   0.533854 0.528755 0.032729 0.004558
C10   C     C_R   0.465280 0.472508 0.967812 -0.013102
C11   C     C_R   0.339834 0.499855 0.500386 0.547856
C12   C     C_R   0.499407 0.699886 0.519757 0.543659
C13   C     C_R   0.660259 0.500478 0.499592 0.546205
C14   C     C_3   0.974243 0.431160 0.561720 0.029258
C15   C     C_3   0.026479 0.572273 0.436620 0.028918
C16   C     C_3   0.025868 0.406585 0.452707 -0.105789
C17   C     C_3   0.974712 0.596838 0.545671 -0.106703
C18   C     C_1   0.250359 0.499934 0.501247 -0.050947
C19   C     C_1   0.749900 0.501474 0.498471 -0.050732
C20   C     C_3   0.032324 0.525188 0.609476 0.028206
C21   C     C_3   0.968294 0.478239 0.388861 0.028457
C22   C     C_3   0.083289 0.501373 0.500822 0.027330
C23   C     C_R   0.428775 0.028739 0.377187 -0.150748
C24   C     C_3   0.917202 0.501975 0.497549 0.027206
C25   C     C_1   0.174918 0.500263 0.501386 -0.087319
C26   C     C_1   0.825415 0.502166 0.497645 -0.086145
C27   C     C_R   0.504695 0.811164 0.527250 0.012370
C28   C     C_R   0.496192 0.187157 0.473849 0.009372
C29   C     C_3   0.938071 0.349268 0.626460 -0.251330
C30   C     C_3   0.007225 0.285660 0.678666 -0.299818
C31   C     C_3   0.968735 0.202270 0.738640 -0.462776
C32   C     C_3   0.063343 0.654770 0.373021 -0.251493
C33   C     C_3   0.994389 0.715951 0.316675 -0.299917
C34   C     C_R   0.581171 0.966365 0.610867 -0.150906
C35   C     C_3   0.032998 0.801285 0.259789 -0.463157
C36   C     C_3   0.926743 0.446596 0.266083 -0.249639
C37   C     C_3   0.992293 0.424330 0.174586 -0.300413
C38   C     C_3   0.949703 0.390467 0.053406 -0.464956
C39   C     C_3   0.075012 0.556568 0.731703 -0.249206
C40   C     C_3   0.010719 0.578991 0.824802 -0.300936
C41   C     C_3   0.054850 0.613349 0.944951 -0.464585
C42   C     C_3   0.381871 0.809804 0.373414 -0.242868
C43   C     C_3   0.406543 0.775041 0.247866 -0.276256
C44   C     C_3   0.337819 0.705965 0.177051 -0.443348
C45   C     C_R   0.444397 0.133280 0.382952 -0.155931
C46   C     C_3   0.582163 0.191863 0.671227 -0.238915
C47   C     C_3   0.668490 0.236285 0.649689 -0.279442
C48   C     C_3   0.707322 0.302366 0.759862 -0.441754
C49   C     C_3   0.328861 0.365215 0.959370 -0.300529
C50   C     C_3   0.264458 0.321039 0.031959 -0.460237
C51   C     C_3   0.668722 0.640810 0.034589 -0.303286
C52   C     C_3   0.644218 0.748608 0.091155 -0.440066
C53   C     C_R   0.567743 0.861658 0.604047 -0.153484
C54   C     C_R   0.537231 0.133901 0.559300 -0.013605
C55   C     C_R   0.454896 0.865001 0.451373 -0.014050
C56   C     C_R   0.530110 0.024685 0.542873 0.044854
Cu1   Cu    Cu3+1 0.506200 0.507730 0.615930 0.909319
Cu2   Cu    Cu3+1 0.493800 0.492270 0.384070 0.908075
H1    H     H_    0.048487 0.329274 0.415183 0.091601
H2    H     H_    0.375341 0.388224 0.197110 0.138758
H3    H     H_    0.929543 0.237983 0.809334 0.148038
H4    H     H_    0.928738 0.147876 0.674856 0.149084
H5    H     H_    0.019991 0.158084 0.777098 0.138325
H6    H     H_    0.046506 0.248159 0.608945 0.158011
H7    H     H_    0.048647 0.336582 0.743878 0.158885
H8    H     H_    0.899930 0.388293 0.696186 0.130935
H9    H     H_    0.895278 0.296972 0.564147 0.140052
H10   H     H_    0.069792 0.856994 0.326086 0.148149
H11   H     H_    0.075282 0.767619 0.191877 0.146367
H12   H     H_    0.952139 0.674165 0.583214 0.091665
H13   H     H_    0.981880 0.843551 0.218268 0.138725
H14   H     H_    0.956103 0.663780 0.248819 0.158573
H15   H     H_    0.951965 0.751401 0.383569 0.158591
H16   H     H_    0.103414 0.708640 0.437395 0.138965
H17   H     H_    0.104717 0.617301 0.306026 0.134276
H18   H     H_    0.911816 0.318446 0.051455 0.148014
H19   H     H_    0.907804 0.452211 0.028078 0.147789
H20   H     H_    0.998662 0.375333 0.989105 0.142323
H21   H     H_    0.031045 0.494712 0.172375 0.159923
H22   H     H_    0.034987 0.362161 0.196895 0.156734
H23   H     H_    0.608673 0.819041 0.657424 0.117899
H24   H     H_    0.887555 0.375839 0.265984 0.141581
H25   H     H_    0.883928 0.508731 0.244430 0.134834
H26   H     H_    0.097328 0.551824 0.969490 0.150377
H27   H     H_    0.092398 0.685431 0.945638 0.148140
H28   H     H_    0.006837 0.628552 0.010589 0.141790
H29   H     H_    0.967498 0.640896 0.803183 0.156286
H30   H     H_    0.972493 0.508528 0.828440 0.159246
H31   H     H_    0.117982 0.494269 0.752465 0.135594
H32   H     H_    0.114228 0.627187 0.731126 0.141901
H33   H     H_    0.327746 0.635333 0.217012 0.173038
H34   H     H_    0.411419 0.173581 0.319179 0.122472
H35   H     H_    0.277500 0.748414 0.172727 0.136016
H36   H     H_    0.357396 0.682003 0.087172 0.147797
H37   H     H_    0.417396 0.842803 0.203627 0.143276
H38   H     H_    0.466263 0.731593 0.247733 0.191272
H39   H     H_    0.359284 0.741864 0.410244 0.155724
H40   H     H_    0.325723 0.860178 0.373550 0.117844
H41   H     H_    0.665289 0.367594 0.788754 0.176784
H42   H     H_    0.717611 0.254843 0.830696 0.138448
H43   H     H_    0.768991 0.334661 0.742049 0.131081
H44   H     H_    0.711676 0.171795 0.622239 0.143228
H45   H     H_    0.384215 0.993534 0.308544 0.108135
H46   H     H_    0.662402 0.284585 0.579179 0.180635
H47   H     H_    0.541153 0.251834 0.714712 0.174390
H48   H     H_    0.590736 0.143224 0.740782 0.116816
H49   H     H_    0.293536 0.260213 0.077864 0.140921
H50   H     H_    0.239217 0.383506 0.095578 0.142041
H51   H     H_    0.210662 0.285229 0.973560 0.137850
H52   H     H_    0.294465 0.420062 0.909773 0.139098
H53   H     H_    0.351325 0.300429 0.896119 0.139910
H54   H     H_    0.615490 0.792290 0.024260 0.152194
H55   H     H_    0.598570 0.744070 0.158458 0.141945
H56   H     H_    0.634341 0.999293 0.667210 0.106662
H57   H     H_    0.701533 0.791396 0.133245 0.136796
H58   H     H_    0.700403 0.597968 0.100080 0.133049
H59   H     H_    0.716974 0.650034 0.971517 0.127307
H60   H     H_    0.408884 0.424551 0.791827 0.122101
H61   H     H_    0.591547 0.574550 0.208082 0.131108
H62   H     H_    0.624648 0.614161 0.805126 0.126422
N1    N     N_R   0.515540 0.519350 0.790140 -0.245033
N2    N     N_R   0.484460 0.480650 0.209860 -0.249750
O1    O     O_R   0.504400 0.354460 0.582000 -0.513519
O2    O     O_R   0.495600 0.645540 0.418000 -0.510621
O3    O     O_R   0.493920 0.341410 0.386200 -0.502064
O4    O     O_R   0.506080 0.658590 0.613800 -0.500653
O5    O     O_R   0.384320 0.506520 0.597880 -0.498089
O6    O     O_R   0.615680 0.493480 0.402120 -0.498822
O7    O     O_R   0.373840 0.493460 0.402080 -0.514860
O8    O     O_R   0.626160 0.506540 0.597920 -0.510156

loop_
_geom_bond_atom_site_label_1
_geom_bond_atom_site_label_2
_ccdc_geom_bond_type
C11   C18   S    
C34   C56   A    
C16   C21   S    
C23   C45   A    
C30   H6    S    
C31   H3    S    
C32   H17   S    
C3    C49   S    
C8    H60   S    
C15   C32   S    
C21   C36   S    
C38   H18   S    
C52   H55   S    
Cu2   O6    S    
C41   H28   S    
C37   H21   S    
C29   C30   S    
C40   H29   S    
C36   C37   S    
C1    O3    A    
C2    C55   A    
C42   H40   S    
C32   H16   S    
C30   C31   S    
C27   C55   A    
C8    N1    A    
C12   O4    A    
C52   H54   S    
C36   H25   S    
C46   H47   S    
C17   C20   S    
C14   C20   S    
C53   H23   S    
C14   C24   S    
C45   H34   S    
C19   C26   T    
C44   H35   S    
C33   H14   S    
C51   H59   S    
C29   H9    S    
C13   O6    A    
C15   C22   S    
C23   H45   S    
C36   H24   S    
C22   C25   S    
C1    C28   S    
C43   H37   S    
C13   O8    A    
C9    C10   A    
C39   H32   S    
C49   H53   S    
C35   H13   S    
C17   H12   S    
C47   H44   S    
C50   H50   S    
C31   H4    S    
C18   C25   T    
C4    C51   S    
C11   O7    A    
C6    H62   S    
C48   H42   S    
C37   H22   S    
C54   C56   A    
C28   C45   A    
Cu2   N2    S    
C17   C24   S    
C13   C19   S    
C12   C27   S    
C51   C52   S    
C31   H5    S    
Cu1   O8    S    
C4    C6    A    
C42   H39   S    
Cu1   O4    S    
C20   C39   S    
C28   C54   A    
C38   H20   S    
C41   H26   S    
C5    N2    A    
C50   H51   S    
C16   H1    S    
C11   O5    A    
C43   C44   S    
C1    O1    A    
C37   C38   S    
C7    H61   S    
C42   C55   S    
Cu1   O1    S    
C47   C48   S    
C12   O2    A    
C46   C54   S    
C43   H38   S    
C44   H33   S    
Cu2   O3    S    
C33   H15   S    
C40   C41   S    
C20   C22   S    
C50   H49   S    
C14   C16   S    
C42   C43   S    
C7    N2    A    
C39   C40   S    
C52   H57   S    
C15   C17   S    
C48   H41   S    
C46   C47   S    
C16   C22   S    
C47   H46   S    
C5    H2    S    
C24   C26   S    
C14   C29   S    
C3    C5    A    
Cu1   O5    S    
C27   C53   A    
C38   H19   S    
C34   H56   S    
C41   H27   S    
Cu2   O2    S    
C51   H58   S    
C32   C33   S    
C40   H30   S    
C3    C10   A    
C2    C56   A    
Cu1   Cu2   S    
C35   H10   S    
C48   H43   S    
C46   H48   S    
C33   C35   S    
C30   H7    S    
C44   H36   S    
Cu1   N1    S    
C29   H8    S    
C7    C9    A    
C15   C21   S    
C35   H11   S    
C34   C53   A    
C8    C10   A    
C49   C50   S    
C21   C24   S    
C2    C23   A    
Cu2   O7    S    
C6    N1    A    
C4    C9    A    
C39   H31   S    
C49   H52   S    
