data_mof_unit_38427.cif
_audit_creation_date              2013-03-05T15:56:23-0500
_audit_creation_method            fapswitch 2.2
_symmetry_space_group_name_H-M    P1
_symmetry_Int_Tables_number       1
_space_group_crystal_system       triclinic
_cell_length_a                    12.333335
_cell_length_b                    13.177342
_cell_length_c                    23.508056
_cell_angle_alpha                 77.529655
_cell_angle_beta                  101.370537
_cell_angle_gamma                 116.560956
_cell_volume                      3314.48851633

loop_
_atom_site_label
_atom_site_type_symbol
_atom_site_description
_atom_site_fract_x
_atom_site_fract_y
_atom_site_fract_z
_atom_type_partial_charge
O1    O     O_R   0.972510 0.318130 0.516820 -0.540892
O2    O     O_R   0.806530 0.359650 0.494230 -0.614420
C1    C     C_R   0.854899 0.287002 0.502599 0.800202
O3    O     O_R   0.082990 0.479200 0.593420 -0.536836
O4    O     O_R   0.917010 0.520720 0.570830 -0.605491
C2    C     C_R   0.000075 0.500541 0.608873 0.818137
Cu1   Cu    Cu3+1 0.098270 0.475410 0.513370 0.994325
Cu2   Cu    Cu3+1 0.901730 0.524590 0.486630 0.932293
O5    O     O_R   0.193470 0.640350 0.505770 -0.591865
O6    O     O_R   0.027490 0.681870 0.483180 -0.583993
O7    O     O_R   0.082990 0.479280 0.429170 -0.589451
O8    O     O_R   0.917010 0.520800 0.406580 -0.593391
C3    C     C_R   0.145118 0.713588 0.491454 0.800746
C4    C     C_R   0.000362 0.500295 0.391045 0.790592
C5    C     C_R   0.081298 0.596932 0.116563 0.542749
N1    N     N_R   0.001884 0.501507 0.148188 -0.473083
C6    C     C_R   0.922093 0.406698 0.122839 0.540207
C7    C     C_R   0.919967 0.405372 0.063116 -0.018567
C8    C     C_R   0.000838 0.502906 0.029872 -0.015873
C9    C     C_R   0.082346 0.599682 0.056677 -0.019002
C10   C     C_R   0.839323 0.309208 0.035989 -0.149026
C11   C     C_R   0.838992 0.309826 0.976536 -0.152245
C12   C     C_R   0.919097 0.406723 0.942941 -0.018024
C13   C     C_R   0.000198 0.503663 0.969680 -0.016068
C14   C     C_R   0.080708 0.601329 0.936383 -0.015754
C15   C     C_R   0.161405 0.697490 0.963524 -0.151272
C16   C     C_R   0.162325 0.696619 0.023069 -0.150249
C17   C     C_R   0.920713 0.409125 0.883154 0.542924
N2    N     N_R   0.999374 0.504919 0.851297 -0.468913
C18   C     C_R   0.078231 0.600207 0.876594 0.538422
O9    O     O_2   0.158241 0.689040 0.142939 -0.515330
O10   O     O_2   0.845633 0.313905 0.155449 -0.515675
H1    H     H_    0.776311 0.233157 0.060588 0.196510
H2    H     H_    0.775751 0.234203 0.957021 0.193770
O11   O     O_2   0.845208 0.316102 0.857165 -0.525278
O12   O     O_2   0.153346 0.693827 0.843865 -0.529292
H3    H     H_    0.224222 0.773642 0.938897 0.194151
H4    H     H_    0.225774 0.772129 0.042623 0.195151
C19   C     C_R   0.896668 0.497031 0.750377 -0.090106
H5    H     H_    0.816361 0.491677 0.765289 0.150727
C20   C     C_R   0.896742 0.495809 0.691224 -0.220485
H6    H     H_    0.815594 0.488799 0.661304 0.160534
C21   C     C_R   0.000229 0.502507 0.671227 -0.040506
C22   C     C_R   0.104025 0.512003 0.711262 -0.150312
H7    H     H_    0.185949 0.520039 0.696835 0.188182
C23   C     C_R   0.103602 0.512743 0.770415 -0.094109
H8    H     H_    0.183865 0.519190 0.800922 0.154139
C24   C     C_R   0.999896 0.505028 0.790267 0.340043
C25   C     C_R   0.905143 0.509005 0.227918 -0.089648
H9    H     H_    0.830676 0.515505 0.196472 0.148441
C26   C     C_R   0.904767 0.508971 0.287174 -0.199251
H10   H     H_    0.829095 0.515145 0.300622 0.167228
C27   C     C_R   0.000861 0.500492 0.328451 -0.041613
C28   C     C_R   0.097403 0.492373 0.309319 -0.198146
H11   H     H_    0.172824 0.486081 0.340088 0.160951
C29   C     C_R   0.097798 0.492980 0.249967 -0.087741
H12   H     H_    0.172581 0.486787 0.235634 0.147717
C30   C     C_R   0.001635 0.501139 0.209155 0.346867
C31   C     C_R   0.268115 0.028069 0.431283 -0.166811
H13   H     H_    0.088610 0.892170 0.435759 0.168481
H14   H     H_    0.443774 0.231732 0.398471 0.151310
H15   H     H_    0.233899 0.089472 0.406651 0.147421
C32   C     C_R   0.227705 0.835264 0.479765 -0.053998
C33   C     C_R   0.818357 0.082274 0.521301 -0.134380
C34   C     C_R   0.740950 0.966286 0.526945 -0.120894
C35   C     C_R   0.615888 0.930564 0.512637 -0.158741
C36   C     C_R   0.565936 0.011018 0.489050 0.089656
C37   C     C_R   0.647025 0.128248 0.476323 0.082904
C38   C     C_R   0.438180 0.978486 0.476381 0.081666
C39   C     C_R   0.394014 0.059578 0.444569 0.159302
C40   C     C_R   0.475978 0.170405 0.425226 -0.222449
C41   C     C_R   0.600479 0.203920 0.440143 -0.178026
C42   C     C_R   0.352809 0.867982 0.495346 -0.236826
C43   C     C_R   0.185263 0.916108 0.448383 -0.169288
C44   C     C_R   0.772557 0.164912 0.498831 -0.122429
H16   H     H_    0.381532 0.805449 0.522681 0.151601
H17   H     H_    0.914456 0.106967 0.534767 0.208220
H18   H     H_    0.561325 0.839173 0.518306 0.131741
H19   H     H_    0.777868 0.903545 0.543931 0.153863
H20   H     H_    0.658917 0.288471 0.420572 0.181465
C45   C     C_R   0.350748 0.331165 0.593709 -0.325339
H21   H     H_    0.548619 0.295844 0.612017 0.163825
H22   H     H_    0.352526 0.266315 0.630759 0.179589
N3    N     N_R   0.246280 0.438190 0.533650 -0.244326
C46   C     C_R   0.760901 0.646870 0.421508 -0.028372
C47   C     C_R   0.665202 0.680875 0.403936 0.277082
C48   C     C_R   0.560767 0.624136 0.433553 -0.289453
C49   C     C_R   0.551664 0.534897 0.480535 -0.046677
C50   C     C_R   0.652939 0.505139 0.496788 0.269614
C51   C     C_R   0.447063 0.475165 0.512622 0.001690
C52   C     C_R   0.448299 0.389091 0.560348 0.102858
C53   C     C_R   0.547584 0.361681 0.575397 -0.253576
C54   C     C_R   0.647491 0.418425 0.544388 -0.166157
C55   C     C_R   0.340935 0.496704 0.500083 -0.065919
C56   C     C_R   0.250709 0.357383 0.580318 0.532683
N4    N     N_R   0.754320 0.561190 0.466710 -0.233661
H23   H     H_    0.331658 0.559649 0.464128 0.148501
H24   H     H_    0.842094 0.689350 0.399228 0.175150
H25   H     H_    0.488385 0.651707 0.419505 0.180735
H26   H     H_    0.719165 0.391925 0.559990 0.206328
N5    N     N_R   0.155008 0.299898 0.617073 0.141279
O13   O     O_R   0.172211 0.332693 0.667721 -0.372506
O14   O     O_R   0.078288 0.195121 0.610915 -0.386765
N6    N     N_R   0.674375 0.772979 0.356399 0.133961
O15   O     O_R   0.771014 0.825167 0.328782 -0.354563
O16   O     O_R   0.586668 0.806180 0.340520 -0.332869

loop_
_geom_bond_atom_site_label_1
_geom_bond_atom_site_label_2
_geom_bond_distance
_ccdc_geom_bond_type
C26   C27   1.405989 A    
C48   C49   1.408970 A    
N5    O13   1.299970 A    
C34   H19   1.082904 S    
C7    C10   1.404785 A    
C20   H6    1.082928 S    
C8    C9    1.408790 A    
Cu2   N4    2.026855 S    
C47   N6    1.440810 S    
N6    O16   1.301681 A    
Cu1   Cu2   2.705359 S    
C19   C20   1.394317 A    
C46   C47   1.401893 A    
C37   C44   1.424373 A    
Cu1   O7    1.942671 S    
C15   C16   1.395200 A    
Cu1   N3    2.038793 S    
C17   N2    1.370572 A    
O4    C2    1.303724 A    
C45   C56   1.386309 A    
O7    C4    1.305182 A    
C10   H1    1.083090 S    
C16   H4    1.083089 S    
C5    N1    1.369349 A    
H21   C53   1.084870 S    
C29   H12   1.082853 S    
C7    C8    1.408754 A    
C33   H17   1.078187 S    
O5    C3    1.302134 A    
C46   H24   1.081345 S    
C28   H11   1.083098 S    
C17   O11   1.349542 S    
N1    C6    1.369365 A    
C25   C26   1.393812 A    
C3    C32   1.464016 S    
C12   C13   1.408390 A    
C38   C42   1.400487 A    
C39   C40   1.391273 A    
C1    C44   1.480693 S    
C37   C41   1.414351 A    
H14   C40   1.084183 S    
C35   C36   1.416510 A    
N5    O14   1.298677 A    
C10   C11   1.395113 A    
C20   C21   1.405596 A    
O3    Cu1   1.941155 S    
C35   H18   1.078056 S    
N6    O15   1.301653 A    
C45   H22   1.084956 S    
C22   C23   1.393770 A    
C51   C55   1.422908 A    
C48   H25   1.077025 S    
C5    C9    1.402906 A    
C11   H2    1.083083 S    
C28   C29   1.394497 A    
N2    C24   1.435663 S    
C36   C37   1.418730 A    
C13   C14   1.408386 A    
O3    C2    1.305603 A    
C52   C53   1.387298 A    
C47   C48   1.403692 A    
N3    C55   1.369493 A    
C32   C42   1.396843 A    
C55   H23   1.076783 S    
C14   C15   1.405062 A    
C27   C28   1.406171 A    
C25   C30   1.399504 A    
C26   H10   1.083028 S    
C36   C38   1.421690 A    
N3    C56   1.365382 A    
C21   C22   1.404543 A    
N2    C18   1.370575 A    
C54   H26   1.063384 S    
Cu2   O8    1.941156 S    
C6    C7    1.402770 A    
N1    C30   1.432780 S    
C12   C17   1.402880 A    
C31   C43   1.392851 A    
C9    C16   1.404812 A    
C49   C51   1.439465 A    
C34   C35   1.388630 A    
C2    C21   1.471245 S    
C42   H16   1.077045 S    
C19   H5    1.082869 S    
C22   H7    1.082167 S    
C14   C18   1.402967 A    
Cu1   O5    1.940951 S    
C23   H8    1.082874 S    
C31   H15   1.083863 S    
O1    Cu1   1.951898 S    
O2    Cu2   1.940953 S    
O8    C4    1.304701 A    
O6    C3    1.303364 A    
O4    Cu2   1.942671 S    
C15   H3    1.083082 S    
C5    O9    1.349479 S    
C32   C43   1.400060 A    
C18   O12   1.349518 S    
C33   C34   1.386547 A    
C50   N4    1.380604 A    
C8    C13   1.411361 A    
C40   C41   1.387059 A    
C41   H20   1.078755 S    
C51   C52   1.415828 A    
H13   C43   1.083149 S    
C53   C54   1.379712 A    
C46   N4    1.358080 A    
C33   C44   1.402825 A    
C29   C30   1.399824 A    
O2    C1    1.301587 A    
C50   C54   1.403946 A    
C38   C39   1.418670 A    
C31   C39   1.403287 A    
C45   C52   1.391916 A    
C23   C24   1.400945 A    
C4    C27   1.472124 S    
C49   C50   1.430043 A    
Cu2   O6    1.951897 S    
C25   H9    1.082867 S    
C6    O10   1.349502 S    
C11   C12   1.405036 A    
O1    C1    1.311476 A    
C56   N5    1.425990 S    
C19   C24   1.401196 A    
