data_mof_unit_14681.cif
_audit_creation_date              2012-12-10T19:48:43-0500
_audit_creation_method            fapswitch 2.2
_symmetry_space_group_name_H-M    P1
_symmetry_Int_Tables_number       1
_space_group_crystal_system       triclinic
_cell_length_a                    13.113627
_cell_length_b                    14.220231
_cell_length_c                    14.934304
_cell_angle_alpha                 90.252965
_cell_angle_beta                  90.303517
_cell_angle_gamma                 70.135687
_cell_volume                      2619.18075253

loop_
_atom_site_label
_atom_site_type_symbol
_atom_type_description
_atom_site_fract_x
_atom_site_fract_y
_atom_site_fract_z
_atom_type_partial_charge
C1    C     C_R   0.499694 0.500288 0.672135 0.898740
C2    C     C_R   0.824072 0.405691 0.512087 -0.212295
C3    C     C_R   0.421809 0.460031 0.903346 -0.037524
C4    C     C_R   0.704831 0.443896 0.503996 0.880257
C5    C     C_R   0.432195 0.454581 0.811084 -0.301897
C6    C     C_R   0.494299 0.502815 0.767934 -0.051838
C7    C     C_R   0.547975 0.556589 0.815408 -0.337249
C8    C     C_R   0.541012 0.562444 0.908936 0.508243
C9    C     C_R   0.478727 0.512336 0.951791 0.033322
C10   C     C_R   0.426087 0.597114 0.096772 0.587357
C11   C     C_R   0.431969 0.592047 0.190145 -0.350947
C12   C     C_R   0.984429 0.454435 0.517725 0.027705
C13   C     C_R   0.493705 0.502937 0.232063 -0.082341
C14   C     C_R   0.548093 0.417349 0.182635 -0.179785
C15   C     C_R   0.541819 0.421069 0.090430 -0.214931
C16   C     C_R   0.499558 0.500121 0.327856 0.889520
C17   C     C_R   0.480614 0.510064 0.048274 0.144550
C18   C     C_R   0.566759 0.870882 0.567152 -0.050993
C19   C     C_R   0.559044 0.774107 0.564376 0.036342
C20   C     C_R   0.445125 0.814678 0.437190 0.009470
C21   C     C_R   0.448124 0.912369 0.437744 -0.291108
C22   C     C_R   0.508060 0.943569 0.503429 0.066406
C23   C     C_R   0.876713 0.471596 0.542880 0.072467
C24   C     C_R   0.499754 0.102744 0.422736 -0.355237
C25   C     C_R   0.489724 0.204759 0.422181 0.634405
C26   C     C_R   0.505433 0.204216 0.579715 -0.038024
C27   C     C_R   0.504446 0.105523 0.583031 -0.299491
C28   C     C_R   0.295670 0.555563 0.500709 0.875178
C29   C     C_R   0.506226 0.051012 0.503578 0.061431
C30   C     C_R   0.020827 0.692788 0.596694 -0.020067
C31   C     C_R   0.179280 0.589984 0.514497 -0.113281
C32   C     C_R   0.887531 0.309177 0.479791 -0.132746
C33   C     C_R   0.999785 0.285598 0.470941 0.444766
C34   C     C_R   0.027914 0.532004 0.529673 0.129912
C35   C     C_R   0.046326 0.358907 0.484919 -0.298299
C36   C     C_3   0.632659 0.679364 0.916870 0.118867
C37   C     C_3   0.670020 0.740986 0.984689 -0.787552
C38   C     C_3   0.368142 0.770893 0.088274 0.096119
C39   C     C_3   0.336834 0.852362 0.017450 -0.778635
C40   C     C_2   0.641693 0.890866 0.633079 0.295810
C41   C     C_3   0.358795 0.272844 0.318447 0.040043
C42   C     C_3   0.327472 0.342221 0.238115 -0.689860
C43   C     C_2   0.965416 0.787606 0.645924 0.391386
C44   C     C_2   0.841886 0.230625 0.454788 0.456970
C45   C     C_R   0.972191 0.618325 0.581606 0.066139
C46   C     C_3   0.096314 0.131777 0.524252 0.100107
C47   C     C_3   0.197600 0.043158 0.504812 -0.801448
C48   C     C_2   0.350006 0.411160 0.945182 0.405116
C49   C     C_R   0.872301 0.624696 0.619375 -0.270028
C50   C     C_R   0.824894 0.553329 0.599414 -0.148566
C51   C     C_R   0.126194 0.524858 0.490662 -0.253905
C52   C     C_R   0.126431 0.675363 0.565004 -0.166441
H1    H     H_    0.168936 0.726490 0.581807 0.197616
H2    H     H_    0.401423 0.963747 0.387399 0.144841
H3    H     H_    0.499627 0.065514 0.359406 0.153241
H4    H     H_    0.508185 0.242612 0.641750 0.157240
H5    H     H_    0.501956 0.072747 0.647818 0.162322
H6    H     H_    0.166209 0.465705 0.444070 0.145352
H7    H     H_    0.132921 0.336300 0.475685 0.154954
H8    H     H_    0.748688 0.560709 0.631348 0.145863
H9    H     H_    0.565721 0.731662 0.876519 0.159761
H10   H     H_    0.703002 0.640016 0.873411 0.156213
H11   H     H_    0.736258 0.691213 0.026926 0.260186
H12   H     H_    0.389324 0.415004 0.772264 0.149704
H13   H     H_    0.700505 0.794525 0.949180 0.228988
H14   H     H_    0.601467 0.783700 0.028208 0.241036
H15   H     H_    0.451470 0.762154 0.112416 0.142112
H16   H     H_    0.309822 0.795514 0.144540 0.141509
H17   H     H_    0.252803 0.865299 0.993607 0.266879
H18   H     H_    0.341261 0.923016 0.046233 0.198913
H19   H     H_    0.393109 0.829879 0.959782 0.257366
H20   H     H_    0.678911 0.946719 0.619563 0.113352
H21   H     H_    0.302578 0.308327 0.374304 0.135448
H22   H     H_    0.347571 0.201191 0.299443 0.139889
H23   H     H_    0.596766 0.590919 0.778484 0.131541
H24   H     H_    0.384928 0.311650 0.182274 0.274010
H25   H     H_    0.244407 0.349358 0.215418 0.211395
H26   H     H_    0.328231 0.417579 0.256703 0.247958
H27   H     H_    0.879485 0.812251 0.659426 0.093388
H28   H     H_    0.860533 0.194392 0.389874 0.075430
H29   H     H_    0.030404 0.103535 0.544190 0.185492
H30   H     H_    0.115545 0.173495 0.581793 0.139000
H31   H     H_    0.264473 0.071081 0.487875 0.251756
H32   H     H_    0.221203 0.994442 0.564736 0.227745
H33   H     H_    0.183002 0.998855 0.447812 0.257184
H34   H     H_    0.387116 0.656030 0.230479 0.138639
H35   H     H_    0.322703 0.359665 0.906003 0.060092
H36   H     H_    0.595689 0.348395 0.215313 0.181989
H37   H     H_    0.584594 0.354962 0.051619 0.150525
H38   H     H_    0.602969 0.718420 0.612615 0.150243
H39   H     H_    0.398459 0.792588 0.386465 0.121514
H40   H     H_    0.829615 0.683630 0.664996 0.177123
N1    N     N_R   0.500000 0.747530 0.500020 -0.108587
N2    N     N_R   0.499940 0.252470 0.500020 -0.117150
O1    O     O_R   0.499990 0.420530 0.630930 -0.631956
O2    O     O_3   0.362177 0.681595 0.050443 -0.604605
O3    O     O_2   0.662871 0.844867 0.703527 -0.618285
O4    O     O_3   0.468009 0.256586 0.342479 -0.603546
O5    O     O_2   0.015588 0.841291 0.670999 -0.562486
O6    O     O_2   0.790848 0.200294 0.508842 -0.556405
O7    O     O_3   0.065714 0.190795 0.446159 -0.631989
O8    O     O_2   0.317611 0.429530 0.021933 -0.577220
O9    O     O_R   0.499990 0.579480 0.630940 -0.630678
O10   O     O_R   0.653620 0.381060 0.499970 -0.558594
O11   O     O_R   0.653620 0.540010 0.499980 -0.620772
O12   O     O_R   0.500010 0.420520 0.369060 -0.559487
O13   O     O_R   0.500010 0.579470 0.369070 -0.624931
O14   O     O_R   0.346380 0.459990 0.500020 -0.619413
O15   O     O_R   0.346380 0.618940 0.500030 -0.618384
O16   O     O_3   0.597724 0.609110 0.962714 -0.630515
Zn1   Zn    Zn3+2 0.500000 0.393860 0.499990 0.999633
Zn2   Zn    Zn3+2 0.500000 0.606140 0.500010 0.941418

loop_
_geom_bond_atom_site_label_1
_geom_bond_atom_site_label_2
_ccdc_geom_bond_type
C26   N2    A    
C20   N1    A    
C22   C29   S    
C27   C29   A    
C11   C13   A    
C41   C42   S    
N2    Zn1   S    
C30   C45   A    
C31   C52   A    
C7    C8    A    
C24   H3    S    
C12   C23   A    
C26   C27   A    
C33   O7    S    
C47   H33   S    
C2    C32   A    
C36   C37   S    
C43   O5    D    
C5    C6    A    
C11   H34   S    
C43   H27   S    
C3    C48   S    
C35   H7    S    
C18   C19   A    
O13   Zn2   S    
C18   C40   S    
C24   C29   A    
C16   O13   A    
C41   H22   S    
C46   H30   S    
C8    C9    A    
C37   H13   S    
C46   O7    S    
C47   H31   S    
C1    O9    A    
C19   N1    A    
C16   O12   A    
C25   N2    A    
C21   C22   A    
C36   H10   S    
C37   H11   S    
O12   Zn1   S    
C39   H17   S    
C38   C39   S    
C20   H39   S    
C1    C6    S    
C44   H28   S    
C24   C25   A    
C27   H5    S    
O15   Zn2   S    
C40   O3    D    
C51   H6    S    
C23   C50   A    
C7    H23   S    
C10   O2    S    
C34   C51   A    
C5    H12   S    
O9    Zn2   S    
C2    C4    S    
C3    C9    A    
C8    O16   S    
C15   H37   S    
C46   H29   S    
C14   C15   A    
C45   C49   A    
C1    O1    A    
C48   O8    D    
C37   H14   S    
C32   C44   S    
C48   H35   S    
C34   C45   A    
C47   H32   S    
C38   H15   S    
C12   C35   A    
C9    C17   S    
O11   Zn2   S    
C38   H16   S    
C42   H26   S    
C36   O16   S    
C30   C43   S    
C49   H40   S    
C12   C34   A    
C36   H9    S    
C52   H1    S    
C15   C17   A    
C30   C52   A    
C46   C47   S    
C40   H20   S    
C18   C22   A    
C28   C31   S    
C31   C51   A    
C3    C5    A    
C26   H4    S    
O10   Zn1   S    
C6    C7    A    
C28   O15   A    
C4    O11   A    
C42   H24   S    
O14   Zn1   S    
C50   H8    S    
C32   C33   A    
C14   H36   S    
C19   H38   S    
O1    Zn1   S    
C44   O6    D    
C21   H2    S    
C28   O14   A    
C4    O10   A    
C33   C35   A    
C39   H18   S    
C10   C11   A    
N1    Zn2   S    
C41   H21   S    
C25   O4    S    
C20   C21   A    
C42   H25   S    
C49   C50   A    
C13   C16   S    
C38   O2    S    
C2    C23   A    
C39   H19   S    
C41   O4    S    
C10   C17   A    
C13   C14   A    
