data_mof_unit_49798.cif
_audit_creation_date              2012-12-11T15:07:35-0500
_audit_creation_method            fapswitch 2.2
_symmetry_space_group_name_H-M    P1
_symmetry_Int_Tables_number       1
_space_group_crystal_system       triclinic
_cell_length_a                    21.683198
_cell_length_b                    7.206947
_cell_length_c                    18.456133
_cell_angle_alpha                 90.002587
_cell_angle_beta                  95.833096
_cell_angle_gamma                 90.001315
_cell_volume                      2869.20004665

loop_
_atom_site_label
_atom_site_type_symbol
_atom_type_description
_atom_site_fract_x
_atom_site_fract_y
_atom_site_fract_z
_atom_type_partial_charge
O1    O     O_R   0.449650 0.506500 0.414480 -0.530197
O2    O     O_R   0.550350 0.006500 0.585520 -0.530197
O3    O     O_R   0.432010 0.173150 0.560250 -0.539149
O4    O     O_R   0.567990 0.673150 0.439750 -0.539153
C1    C     C_R   0.416042 0.344495 0.580766 0.680217
C2    C     C_R   0.583958 0.844493 0.419234 0.680220
O5    O     O_R   0.442320 0.176650 0.413480 -0.535996
O6    O     O_R   0.557680 0.676650 0.586520 -0.535998
O7    O     O_R   0.560730 0.008380 0.437700 -0.533574
O8    O     O_R   0.439270 0.508380 0.562300 -0.533579
C3    C     C_R   0.428361 0.345571 0.387593 0.674208
C4    C     C_R   0.571638 0.845581 0.612407 0.674207
O9    O     O_3   0.538840 0.339860 0.508120 -0.370671
O10   O     O_3   0.461160 0.839860 0.491880 -0.370672
V1    V     V_3+5 0.492800 0.064220 0.498490 1.422320
V2    V     V_3+5 0.507200 0.564220 0.501510 1.422301
C5    C     C_R   0.874113 0.888853 0.688269 -0.181365
C6    C     C_R   0.125892 0.389186 0.311742 -0.181340
H1    H     H_    0.962275 0.909275 0.751841 0.145286
H2    H     H_    0.037730 0.409612 0.248173 0.145350
H3    H     H_    0.895126 0.872120 0.637896 0.108915
H4    H     H_    0.104881 0.372613 0.362122 0.108904
C7    C     C_R   0.886848 0.934763 0.818886 -0.042212
C8    C     C_R   0.113156 0.434809 0.181113 -0.042194
C9    C     C_R   0.584671 0.866026 0.746054 -0.161826
C10   C     C_R   0.415325 0.365771 0.253941 -0.161828
C11   C     C_R   0.620163 0.885997 0.812665 -0.121260
C12   C     C_R   0.379832 0.385648 0.187327 -0.121259
C13   C     C_R   0.684536 0.898749 0.816205 -0.157528
C14   C     C_R   0.315462 0.398496 0.183788 -0.157533
C15   C     C_R   0.715546 0.890719 0.752443 0.075182
C16   C     C_R   0.284454 0.390662 0.247554 0.075181
C17   C     C_R   0.678684 0.867814 0.683965 0.067357
C18   C     C_R   0.321317 0.367867 0.316036 0.067361
C19   C     C_R   0.781815 0.903023 0.754469 0.075904
C20   C     C_R   0.218187 0.403054 0.245530 0.075895
C21   C     C_R   0.809397 0.885763 0.688153 0.146209
C22   C     C_R   0.190607 0.385995 0.311854 0.146215
C23   C     C_R   0.772424 0.863830 0.622015 -0.194940
C24   C     C_R   0.227581 0.364164 0.377995 -0.194926
C25   C     C_R   0.708196 0.856353 0.619787 -0.191114
C26   C     C_R   0.291808 0.356600 0.380220 -0.191097
C27   C     C_R   0.822000 0.930337 0.819742 -0.216801
C28   C     C_R   0.178002 0.430268 0.180251 -0.216784
C29   C     C_R   0.912412 0.910560 0.753063 -0.181894
C30   C     C_R   0.087593 0.410805 0.246945 -0.181954
C31   C     C_R   0.612885 0.856783 0.681351 -0.076754
C32   C     C_R   0.387114 0.356734 0.318649 -0.076749
H5    H     H_    0.804624 0.946399 0.872048 0.090376
H6    H     H_    0.195378 0.446184 0.127939 0.090370
H7    H     H_    0.534649 0.858749 0.744894 0.099434
H8    H     H_    0.465345 0.358403 0.255099 0.099426
H9    H     H_    0.597489 0.892571 0.862233 0.117233
H10   H     H_    0.402503 0.392065 0.137755 0.117235
C33   C     C_R   0.628219 0.983233 0.311874 -0.205228
C34   C     C_R   0.371775 0.483263 0.688121 -0.205219
C35   C     C_R   0.633498 0.855832 0.369707 -0.088578
C36   C     C_R   0.366500 0.355835 0.630292 -0.088618
C37   C     C_R   0.686642 0.743915 0.380789 -0.174367
C38   C     C_R   0.313361 0.243885 0.619214 -0.174303
C39   C     C_R   0.735500 0.763106 0.336207 -0.047823
C40   C     C_R   0.264502 0.263074 0.663795 -0.047769
C41   C     C_R   0.729620 0.890857 0.278000 0.009531
C42   C     C_R   0.270378 0.390853 0.721998 0.009522
C43   C     C_R   0.675121 0.998689 0.265157 0.131225
C44   C     C_R   0.324873 0.498716 0.734837 0.131228
C45   C     C_R   0.790384 0.658979 0.349577 0.263128
C46   C     C_R   0.209623 0.158917 0.650428 0.263100
C47   C     C_R   0.841895 0.695801 0.310003 0.333397
C48   C     C_R   0.158109 0.195742 0.689999 0.333337
C49   C     C_R   0.834821 0.815132 0.248257 -0.139269
C50   C     C_R   0.165179 0.315096 0.751744 -0.139246
C51   C     C_R   0.777887 0.910918 0.232312 -0.078684
C52   C     C_R   0.222110 0.410913 0.767685 -0.078699
C53   C     C_R   0.769190 0.029968 0.171140 0.143931
C54   C     C_R   0.230804 0.529994 0.828854 0.143925
C55   C     C_R   0.714479 0.133996 0.158558 -0.171539
C56   C     C_R   0.285511 0.634050 0.841432 -0.171542
C57   C     C_R   0.668321 0.120716 0.205778 -0.209213
C58   C     C_R   0.331670 0.620771 0.794213 -0.209221
C59   C     C_R   0.882848 0.843429 0.201985 0.438543
C60   C     C_R   0.117153 0.343388 0.798016 0.438539
C61   C     C_R   0.870408 0.943740 0.135971 -0.184368
C62   C     C_R   0.129590 0.443735 0.864026 -0.184381
C63   C     C_R   0.814701 0.041556 0.122658 -0.281821
C64   C     C_R   0.185293 0.541583 0.877335 -0.281813
H11   H     H_    0.586963 0.068546 0.302580 0.115151
H12   H     H_    0.413028 0.568599 0.697412 0.115161
H13   H     H_    0.690654 0.647090 0.425947 0.160889
H14   H     H_    0.309353 0.147036 0.574060 0.160921
H15   H     H_    0.806634 0.125877 0.073936 0.133345
H16   H     H_    0.193357 0.625930 0.926055 0.133355
H17   H     H_    0.707511 0.226782 0.112246 0.120857
H18   H     H_    0.292476 0.726860 0.887741 0.120861
H19   H     H_    0.626799 0.204130 0.195208 0.121497
H20   H     H_    0.373188 0.704207 0.804779 0.121501
O11   O     O_R   0.060820 0.290050 0.937800 -0.517680
O12   O     O_R   0.939180 0.790050 0.062200 -0.517680
O13   O     O_R   0.057690 0.616620 0.086540 -0.534199
O14   O     O_R   0.942310 0.116620 0.913460 -0.534200
C65   C     C_R   0.071467 0.448039 0.112755 0.696697
C66   C     C_R   0.928535 0.948029 0.887244 0.696709
O15   O     O_R   0.068010 0.619890 0.939770 -0.545102
O16   O     O_R   0.931990 0.119890 0.060230 -0.545105
O17   O     O_R   0.949640 0.787940 0.914460 -0.538233
O18   O     O_R   0.050360 0.287940 0.085540 -0.538229
C67   C     C_R   0.083302 0.451714 0.917915 0.720410
C68   C     C_R   0.916697 0.951716 0.082084 0.720426
O19   O     O_3   0.961210 0.453080 0.991940 -0.375434
O20   O     O_3   0.038790 0.953080 0.008060 -0.375432
V3    V     V_3+5 0.007200 0.728820 0.001500 1.447527
V4    V     V_3+5 0.992800 0.228820 0.998500 1.447520
O21   O     O_3   0.795705 0.530489 0.405622 -0.557994
C69   C     C_3   0.784245 0.351627 0.376151 0.130324
H21   H     H_    0.818207 0.315133 0.337019 0.151454
H22   H     H_    0.736349 0.342003 0.348108 0.123889
C70   C     C_3   0.790678 0.210725 0.437840 -0.723340
H23   H     H_    0.755381 0.237728 0.476157 0.228209
H24   H     H_    0.783939 0.068535 0.415638 0.179283
H25   H     H_    0.837650 0.219922 0.467834 0.217029
O22   O     O_3   0.204308 0.030408 0.594385 -0.557997
C71   C     C_3   0.215719 0.851540 0.623862 0.130352
H26   H     H_    0.181717 0.815096 0.662955 0.151492
H27   H     H_    0.263597 0.841863 0.651957 0.123886
C72   C     C_3   0.209312 0.710630 0.562168 -0.723312
H28   H     H_    0.244679 0.737496 0.523920 0.228169
H29   H     H_    0.215965 0.568426 0.584380 0.179228
H30   H     H_    0.162373 0.719977 0.532090 0.217072
O23   O     O_3   0.896356 0.596820 0.326338 -0.525079
C73   C     C_3   0.926569 0.655111 0.394264 0.185324
H31   H     H_    0.894617 0.686831 0.436132 0.130099
H32   H     H_    0.953996 0.782116 0.386831 0.103261
C74   C     C_3   0.970354 0.502734 0.424508 -0.739534
H33   H     H_    0.003382 0.468140 0.384474 0.217118
H34   H     H_    0.996741 0.549826 0.475962 0.164036
H35   H     H_    0.943541 0.376415 0.435663 0.220679
O24   O     O_3   0.103648 0.096751 0.673662 -0.525090
C75   C     C_3   0.073437 0.155031 0.605736 0.185266
H36   H     H_    0.105392 0.186677 0.563864 0.130139
H37   H     H_    0.046029 0.282075 0.613164 0.103257
C76   C     C_3   0.029630 0.002682 0.575504 -0.739566
H38   H     H_    0.996595 0.968167 0.615540 0.217133
H39   H     H_    0.003250 0.049763 0.524046 0.164047
H40   H     H_    0.056425 0.876317 0.564360 0.220661
O25   O     O_3   0.942314 0.778203 0.221800 -0.530987
C77   C     C_3   0.979655 0.929689 0.248696 0.107846
H41   H     H_    0.960232 0.997061 0.295720 0.098310
H42   H     H_    0.983660 0.036872 0.206088 0.105236
C78   C     C_3   0.044848 0.862286 0.273385 -0.680832
H43   H     H_    0.066779 0.806954 0.226097 0.228883
H44   H     H_    0.073301 0.979573 0.297200 0.179273
H45   H     H_    0.043529 0.752129 0.315167 0.223212
O26   O     O_3   0.057690 0.278110 0.778208 -0.530971
C79   C     C_3   0.020336 0.429558 0.751312 0.107897
H46   H     H_    0.039757 0.496960 0.704296 0.098283
H47   H     H_    0.016315 0.536729 0.793925 0.105210
C80   C     C_3   0.955152 0.362084 0.726610 -0.680790
H48   H     H_    0.933217 0.306750 0.773893 0.228868
H49   H     H_    0.926692 0.479336 0.702783 0.179251
H50   H     H_    0.956489 0.251910 0.684833 0.223231
H51   H     H_    0.793418 0.852023 0.571329 0.136736
H52   H     H_    0.206588 0.352509 0.428686 0.136697
H53   H     H_    0.708685 0.913576 0.869824 0.106876
H54   H     H_    0.291311 0.413234 0.130166 0.106880
H55   H     H_    0.681775 0.839265 0.567185 0.108699
H56   H     H_    0.318228 0.339595 0.432826 0.108687

loop_
_geom_bond_atom_site_label_1
_geom_bond_atom_site_label_2
_ccdc_geom_bond_type
C22   C24   A    
C41   C43   A    
C80   H48   S    
C7    C29   A    
C11   C13   A    
C13   H53   S    
C18   C26   A    
C14   H54   S    
O2    C4    A    
C2    O7    A    
C69   H21   S    
C63   H15   S    
C7    C27   A    
O8    V2    S    
C23   C25   A    
O18   V4    S    
C24   H52   S    
C52   C54   A    
C1    C36   S    
C43   C57   A    
C16   C20   A    
O15   V3    S    
C19   C21   A    
C5    C29   A    
C77   H41   S    
C78   H44   S    
C56   C58   A    
C35   C37   A    
C7    C66   S    
C36   C38   A    
C62   C67   S    
O12   C68   A    
C61   C68   S    
C66   O17   A    
C38   C40   A    
C8    C65   S    
C37   H13   S    
C55   H17   S    
C47   C49   A    
O20   V3    S    
C40   C42   A    
C59   C61   A    
O21   C69   S    
C60   O26   S    
C76   H38   S    
C53   C63   A    
O1    C3    A    
C74   H35   S    
C15   C17   A    
C58   H20   S    
C19   C27   A    
C9    C31   A    
C79   H47   S    
C10   C32   A    
O5    V1    S    
O17   V3    S    
C80   H49   S    
C13   C15   A    
C51   C53   A    
C2    C35   S    
C3    C32   S    
C4    C31   S    
C6    C30   A    
O14   C66   A    
C33   C43   A    
O25   C77   S    
C77   H42   S    
C55   C57   A    
C37   C39   A    
C48   C50   A    
C79   C80   S    
C50   C52   A    
C45   O21   S    
C78   H45   S    
C49   C51   A    
O11   V4    S    
C12   H10   S    
C27   H5    S    
C41   C51   A    
C5    H3    S    
H1    C29   S    
O19   V4    S    
C25   H55   S    
C45   C47   A    
C76   H39   S    
C42   C44   A    
O4    V2    S    
C73   H32   S    
C9    H7    S    
C57   H19   S    
C10   H8    S    
C72   H30   S    
C77   C78   S    
C39   C45   A    
O5    C3    A    
O6    C4    A    
O13   V3    S    
C39   C41   A    
O22   C71   S    
O1    V2    S    
C5    C21   A    
C72   H29   S    
O2    V1    S    
C53   C55   A    
C79   H46   S    
C75   H37   S    
C33   H11   S    
O4    C2    A    
O13   C65   A    
O14   V4    S    
C80   H50   S    
C59   O25   S    
C33   C35   A    
C72   H28   S    
C8    C28   A    
C15   C19   A    
C70   H25   S    
C73   C74   S    
C23   H51   S    
C71   H27   S    
C20   C22   A    
C54   C64   A    
O16   C68   A    
O3    V1    S    
O16   V4    S    
O23   C73   S    
C28   H6    S    
C65   O18   A    
O12   V3    S    
C61   C63   A    
C6    H4    S    
C10   C12   A    
C54   C56   A    
O3    C1    A    
C75   C76   S    
C46   O22   S    
C69   H22   S    
C11   H9    S    
C76   H40   S    
C38   H14   S    
C9    C11   A    
C44   C58   A    
O24   C75   S    
C60   C62   A    
C40   C46   A    
C8    C30   A    
C71   C72   S    
C70   H24   S    
C73   H31   S    
C6    C22   A    
C17   C25   A    
C12   C14   A    
C21   C23   A    
C64   H16   S    
C70   H23   S    
C14   C16   A    
C74   H33   S    
C34   H12   S    
C56   H18   S    
C47   O23   S    
C34   C44   A    
C24   C26   A    
C17   C31   A    
C34   C36   A    
O7    V1    S    
C50   C60   A    
C69   C70   S    
C20   C28   A    
C75   H36   S    
O11   C67   A    
C1    O8    A    
C18   C32   A    
C48   O24   S    
O6    V2    S    
O9    V2    S    
C74   H34   S    
C46   C48   A    
C42   C52   A    
O10   V1    S    
C62   C64   A    
O15   C67   A    
C49   C59   A    
C71   H26   S    
C78   H43   S    
H2    C30   S    
C26   H56   S    
C16   C18   A    
O26   C79   S    
