data_mof_unit_67439.cif
_audit_creation_date              2012-10-26T19:59:38-0400
_audit_creation_method            fapswitch 2.2
_symmetry_space_group_name_H-M    P1
_symmetry_Int_Tables_number       1
_space_group_crystal_system       triclinic
_cell_length_a                    10.845017
_cell_length_b                    8.800962
_cell_length_c                    7.492447
_cell_angle_alpha                 102.386764
_cell_angle_beta                  94.812281
_cell_angle_gamma                 94.735683
_cell_volume                      692.294734348

loop_
_atom_site_label
_atom_site_type_symbol
_atom_type_description
_atom_site_fract_x
_atom_site_fract_y
_atom_site_fract_z
_atom_type_partial_charge
C1    C     C_R   0.493286 0.199953 0.454892 0.543223
C2    C     C_R   0.498481 0.798586 0.546883 0.568651
C3    C     C_R   0.737603 0.507673 0.499346 0.597677
C4    C     C_R   0.152253 0.706469 0.816038 -0.129641
C5    C     C_R   0.098971 0.806435 0.953134 0.112432
C6    C     C_R   0.976370 0.836578 0.918175 -0.073518
C7    C     C_R   0.904175 0.756803 0.756747 0.129754
C8    C     C_R   0.950254 0.629993 0.637943 0.005065
C9    C     C_3   0.124783 0.867581 0.287154 -0.296896
C10   C     C_3   0.816695 0.908174 0.558359 -0.318964
C11   C     C_3   0.803602 0.166269 0.260333 -0.292121
C12   C     C_R   0.079351 0.615603 0.656607 -0.046375
C13   C     C_3   0.411748 0.004401 0.880348 -0.311182
C14   C     C_3   0.243046 0.367685 0.985679 -0.242282
C15   C     C_R   0.129884 0.513726 0.512567 -0.037381
C16   C     C_R   0.051659 0.418223 0.367502 -0.158904
C17   C     C_R   0.923958 0.417762 0.360354 0.094725
C18   C     C_R   0.872275 0.521588 0.497183 0.028073
C19   C     C_2   0.487864 0.032561 0.434011 -0.145355
C20   C     C_2   0.492125 0.964621 0.578690 0.084532
C21   C     C_R   0.263026 0.505578 0.503701 0.533377
Cu1   Cu    Cu3+1 0.513920 0.517380 0.684380 0.969245
Cu2   Cu    Cu3+1 0.486080 0.482620 0.315620 0.959235
H1    H     H_    0.089399 0.336199 0.262720 0.119387
H2    H     H_    0.754840 0.885984 0.806562 0.240193
H3    H     H_    0.731566 0.960207 0.522095 0.129635
H4    H     H_    0.840284 0.829009 0.432091 0.142009
H5    H     H_    0.892928 0.004425 0.607987 0.129457
H6    H     H_    0.886342 0.292190 0.091305 0.242480
H7    H     H_    0.740361 0.093597 0.143442 0.128674
H8    H     H_    0.751362 0.189421 0.382729 0.158080
H9    H     H_    0.883205 0.100614 0.289118 0.111554
H10   H     H_    0.591688 0.073307 0.828161 0.256111
H11   H     H_    0.407771 0.099723 0.001430 0.172596
H12   H     H_    0.250350 0.701927 0.841588 0.159668
H13   H     H_    0.439487 0.904379 0.936730 0.155901
H14   H     H_    0.317538 0.976996 0.803508 0.141763
H15   H     H_    0.380385 0.277254 0.836159 0.292082
H16   H     H_    0.172535 0.319032 0.866393 0.099851
H17   H     H_    0.218219 0.485885 0.047635 0.180006
H18   H     H_    0.239843 0.284306 0.077418 0.151079
H19   H     H_    0.482861 0.962799 0.294602 0.078692
H20   H     H_    0.606718 0.611803 0.048125 0.210675
H21   H     H_    0.266189 0.874464 0.120036 0.241178
H22   H     H_    0.190154 0.932512 0.406444 0.140361
H23   H     H_    0.115158 0.741747 0.291018 0.157869
H24   H     H_    0.033442 0.914373 0.300162 0.134138
H25   H     H_    0.939526 0.929938 0.010441 0.102055
N1    N     N_2   0.465100 0.456430 0.038520 -0.044812
N2    N     N_2   0.534900 0.543570 0.961480 -0.214336
N3    N     N_2   0.172582 0.887636 0.118186 -0.533002
N4    N     N_2   0.796181 0.822406 0.699741 -0.491066
N5    N     N_2   0.847935 0.311219 0.214657 -0.484457
N6    N     N_2   0.501854 0.052301 0.764869 -0.503305
N7    N     N_2   0.363701 0.377924 0.921235 -0.351212
O1    O     O_R   0.509050 0.286130 0.619770 -0.475770
O2    O     O_R   0.485540 0.256780 0.308360 -0.515356
O3    O     O_R   0.331410 0.514680 0.655740 -0.495794
O4    O     O_R   0.307900 0.485330 0.344330 -0.525782
O5    O     O_R   0.514460 0.743220 0.691640 -0.504825
O6    O     O_R   0.490950 0.713870 0.380230 -0.534888
O7    O     O_R   0.692100 0.514670 0.655670 -0.492544
O8    O     O_R   0.668590 0.485320 0.344260 -0.481717

loop_
_geom_bond_atom_site_label_1
_geom_bond_atom_site_label_2
_ccdc_geom_bond_type
C10   H4    S    
Cu1   O3    S    
C11   H9    S    
C12   C15   A    
H20   N2    S    
C9    H22   S    
C6    C7    A    
C3    O8    A    
Cu1   O7    S    
C13   H14   S    
C19   C20   D    
C11   N5    S    
C2    O6    A    
C8    C12   A    
Cu1   N2    S    
C10   N4    S    
C10   H3    S    
Cu2   O8    S    
C14   N7    S    
H2    N4    S    
C11   H8    S    
C9    H23   S    
C16   H1    S    
C17   C18   A    
Cu2   O4    S    
C19   H19   S    
C16   C17   A    
C15   C21   S    
C6    H25   S    
C3    C18   S    
C14   H18   S    
Cu2   O2    S    
H21   N3    S    
C1    O1    A    
C7    N4    S    
C21   O4    A    
C1    O2    A    
Cu1   O5    S    
C5    C6    A    
C2    O5    A    
Cu2   N1    S    
C9    H24   S    
C4    C12   A    
H15   N7    S    
C14   H17   S    
C15   C16   A    
C17   N5    S    
C13   H11   S    
C3    O7    A    
C13   H13   S    
C20   N6    S    
C13   N6    S    
Cu2   O6    S    
C10   H5    S    
H10   N6    S    
N1    N2    D    
C7    C8    A    
C4    H12   S    
Cu1   Cu2   S    
C5    N3    S    
Cu1   O1    S    
C14   H16   S    
N1    N7    S    
C1    C19   S    
C2    C20   S    
C8    C18   A    
C21   O3    A    
C11   H7    S    
C4    C5    A    
H6    N5    S    
C9    N3    S    
