data_mof_unit_64210.cif
_audit_creation_date              2012-12-10T16:48:55-0500
_audit_creation_method            fapswitch 2.2
_symmetry_space_group_name_H-M    P1
_symmetry_Int_Tables_number       1
_space_group_crystal_system       triclinic
_cell_length_a                    18.419867
_cell_length_b                    18.421387
_cell_length_c                    18.40505
_cell_angle_alpha                 119.917056
_cell_angle_beta                  119.498785
_cell_angle_gamma                 90.540917
_cell_volume                      4433.92724688

loop_
_atom_site_label
_atom_site_type_symbol
_atom_type_description
_atom_site_fract_x
_atom_site_fract_y
_atom_site_fract_z
_atom_type_partial_charge
C1    C     C_R   0.138362 0.361326 0.999554 0.510170
C2    C     C_2   0.809111 0.696885 0.004770 -0.084464
C3    C     C_2   0.754603 0.277936 0.445787 -0.016380
C4    C     C_R   0.861820 0.638848 0.000516 0.522911
C5    C     C_2   0.695571 0.195530 0.388348 -0.064300
C6    C     C_2   0.797267 0.336091 0.557085 -0.187067
C7    C     C_2   0.813678 0.303440 0.612188 -0.103293
C8    C     C_2   0.337283 0.281413 0.057261 -0.157684
C9    C     C_2   0.304789 0.192431 0.001515 -0.091671
C10   C     C_2   0.280908 0.337437 0.059597 -0.155953
C11   C     C_2   0.192146 0.304332 0.995486 -0.092726
C12   C     C_3   0.779154 0.358845 0.078938 -0.212073
C13   C     C_2   0.217415 0.775471 0.937176 -0.156430
C14   C     C_2   0.304983 0.811909 0.007384 -0.085973
C15   C     C_2   0.161698 0.724303 0.941687 -0.156206
C16   C     C_R   0.138150 0.640495 0.277079 0.552005
C17   C     C_2   0.195415 0.687958 0.992906 -0.084786
C18   C     C_2   0.221125 0.795844 0.557384 -0.184479
C19   C     C_2   0.308860 0.813657 0.612286 -0.103214
C20   C     C_2   0.167986 0.753361 0.446285 -0.015825
C21   C     C_2   0.192752 0.695268 0.388369 -0.061589
C22   C     C_R   0.640612 0.138833 0.277047 0.549516
C23   C     C_3   0.801950 0.301198 0.001499 0.059798
C24   C     C_R   0.361850 0.862186 0.722906 0.516831
C25   C     C_R   0.638276 0.861181 0.999677 0.517516
C26   C     C_R   0.361561 0.138485 0.000329 0.508690
C27   C     C_R   0.359505 0.860429 0.000937 0.515350
C28   C     C_R   0.862221 0.361128 0.722894 0.515936
C29   C     C_R   0.641536 0.141460 0.000181 0.507036
C30   C     C_R   0.140460 0.639504 0.998975 0.521292
C31   C     C_R   0.858589 0.358685 0.000073 0.492755
C32   C     C_3   0.712968 0.241016 0.894091 -0.254926
C33   C     C_3   0.653088 0.181320 0.893892 -0.246629
C34   C     C_3   0.699806 0.199411 0.001005 0.038436
C35   C     C_3   0.848476 0.239300 0.028656 -0.078597
C36   C     C_2   0.940831 0.289687 0.126917 0.206113
C37   C     C_2   0.781349 0.315302 0.403775 0.265608
C38   C     C_2   0.088909 0.779330 0.405056 0.264391
C39   C     C_3   0.788383 0.180534 0.029876 -0.201523
C40   C     C_3   0.721512 0.299443 0.080455 -0.221834
C41   C     C_2   0.724533 0.780274 0.943018 -0.155075
C42   C     C_2   0.690977 0.803189 0.998428 -0.088054
C43   C     C_2   0.778102 0.721475 0.940594 -0.156900
H1    H     H_    0.757188 0.314905 0.158634 0.178370
H2    H     H_    0.408279 0.315433 0.104470 0.155295
H3    H     H_    0.234877 0.156176 0.955757 0.107546
H4    H     H_    0.156127 0.234012 0.936541 0.107087
H5    H     H_    0.185167 0.784067 0.875576 0.160660
H6    H     H_    0.338397 0.808979 0.072992 0.107246
H7    H     H_    0.091528 0.715656 0.900773 0.159288
H8    H     H_    0.263915 0.690924 0.029289 0.106368
H9    H     H_    0.187954 0.818162 0.595779 0.144752
H10   H     H_    0.589313 0.194547 0.871888 0.118449
H11   H     H_    0.344635 0.798397 0.577047 0.110351
H12   H     H_    0.821709 0.192092 0.106026 0.173840
H13   H     H_    0.253165 0.681566 0.422913 0.078612
H14   H     H_    0.637295 0.110187 0.835333 0.138005
H15   H     H_    0.856625 0.193676 0.966803 0.090580
H16   H     H_    0.774867 0.109156 0.974220 0.112111
H17   H     H_    0.840365 0.405911 0.157249 0.187836
H18   H     H_    0.742571 0.400018 0.056975 0.120025
H19   H     H_    0.659167 0.315002 0.063195 0.127242
H20   H     H_    0.725525 0.198263 0.835492 0.134865
H21   H     H_    0.997811 0.290259 0.123188 0.108015
H22   H     H_    0.804806 0.386900 0.443313 0.092398
H23   H     H_    0.711640 0.804340 0.896108 0.155557
H24   H     H_    0.820788 0.407596 0.595389 0.143068
H25   H     H_    0.314562 0.408830 0.115835 0.157719
H26   H     H_    0.056878 0.801689 0.444673 0.094037
H27   H     H_    0.700136 0.778681 0.043801 0.109105
H28   H     H_    0.793155 0.698769 0.884243 0.155626
H29   H     H_    0.797943 0.720045 0.063921 0.115605
H30   H     H_    0.681231 0.169961 0.423355 0.076333
H31   H     H_    0.677876 0.282791 0.871937 0.117137
H32   H     H_    0.797213 0.232436 0.577005 0.112896
O1    O     O_3   1.000000 0.500000 0.000000 -0.448742
O2    O     O_R   0.324760 0.053850 0.939900 -0.542879
O3    O     O_R   0.443270 0.883090 0.060070 -0.543482
O4    O     O_R   0.053940 0.324750 0.939940 -0.544184
O5    O     O_R   0.616890 0.176890 0.060090 -0.530037
O6    O     O_R   0.323100 0.883090 0.939900 -0.543997
O7    O     O_R   0.616910 0.056740 0.939940 -0.550076
O8    O     O_R   0.615250 0.885990 0.939940 -0.541562
O9    O     O_R   0.446110 0.175200 0.060060 -0.547252
O10   O     O_R   0.614030 0.053850 0.229160 -0.544253
O11   O     O_R   0.324790 0.884790 0.770830 -0.538533
O12   O     O_R   0.053880 0.613970 0.229150 -0.492745
O13   O     O_R   0.884790 0.613970 0.060060 -0.521440
O14   O     O_R   0.175250 0.615170 0.229170 -0.546964
O15   O     O_R   0.886020 0.446110 0.770840 -0.541279
O16   O     O_R   0.176940 0.616860 0.060100 -0.539507
O17   O     O_R   0.883150 0.323060 0.939910 -0.558062
O18   O     O_R   0.056770 0.616860 0.939930 -0.543648
O19   O     O_R   0.883130 0.443210 0.060060 -0.548345
O20   O     O_2   0.952619 0.331794 0.210460 -0.506495
O21   O     O_2   0.783013 0.267710 0.329308 -0.481145
O22   O     O_2   0.062299 0.781656 0.331224 -0.481265
O23   O     O_R   0.884840 0.324750 0.770840 -0.541106
O24   O     O_R   0.175280 0.446110 0.060100 -0.541625
O25   O     O_R   0.885990 0.615170 0.939900 -0.544274
O26   O     O_3   0.500040 0.999960 0.000000 -0.448177
O27   O     O_R   0.615200 0.175200 0.229160 -0.499486
O28   O     O_R   0.446160 0.885990 0.770850 -0.543796
O29   O     O_R   0.614060 0.884790 0.060100 -0.535386
Zn1   Zn    Zn3+2 0.956210 0.542060 0.085830 0.977137
Zn2   Zn    Zn3+2 0.129620 0.543770 0.085850 0.949876
Zn3   Zn    Zn3+2 0.957930 0.543770 0.914160 0.940613
Zn4   Zn    Zn3+2 0.956240 0.370390 0.914160 0.927900
Zn5   Zn    Zn3+2 0.543830 0.957900 0.914170 0.938686
Zn6   Zn    Zn3+2 0.542120 0.956180 0.085840 0.953906
Zn7   Zn    Zn3+2 0.370430 0.956180 0.914150 0.934370
Zn8   Zn    Zn3+2 0.543800 0.129560 0.085840 0.964528

loop_
_geom_bond_atom_site_label_1
_geom_bond_atom_site_label_2
_ccdc_geom_bond_type
O29   Zn6   S    
O19   Zn1   S    
O1    Zn1   S    
O13   Zn1   S    
C41   C42   D    
C11   H4    S    
C35   C36   S    
C1    C11   S    
C3    C6    S    
C1    O24   A    
C18   H9    S    
O26   Zn8   S    
C12   C23   S    
O9    Zn8   S    
C35   H15   S    
C34   C40   S    
O15   Zn3   S    
C30   O18   A    
C32   H31   S    
C15   H7    S    
C14   H6    S    
O26   Zn5   S    
C25   O29   A    
C42   H27   S    
C40   H19   S    
C18   C19   D    
C22   O10   A    
O2    Zn7   S    
C8    H2    S    
O1    Zn2   S    
O27   Zn8   S    
O17   Zn4   S    
C39   H12   S    
C5    C22   S    
O6    Zn7   S    
C8    C9    D    
C37   H22   S    
O14   Zn2   S    
C16   O12   A    
C43   H28   S    
O8    Zn5   S    
C14   C27   S    
C27   O3    A    
C38   H26   S    
C9    H3    S    
O1    Zn4   S    
C13   C14   D    
C17   C30   S    
C41   C43   S    
O16   Zn2   S    
C17   H8    S    
C38   O22   D    
C2    H29   S    
C9    C26   S    
C16   O14   A    
C33   H10   S    
C26   O2    A    
C34   C39   S    
O7    Zn5   S    
C27   O6    A    
O10   Zn6   S    
C7    H32   S    
O26   Zn6   S    
C29   C34   S    
C7    C28   S    
C37   O21   D    
C23   C31   S    
C12   C40   S    
C35   C39   S    
C13   H5    S    
C20   C38   S    
O12   Zn1   S    
C2    C43   D    
C39   H16   S    
O5    Zn8   S    
C33   C34   S    
O3    Zn6   S    
C41   H23   S    
C19   H11   S    
C6    H24   S    
O1    Zn3   S    
C23   C35   S    
C4    O25   A    
C1    O4    A    
C28   O23   A    
C15   C17   D    
O24   Zn2   S    
O25   Zn3   S    
C33   H14   S    
O23   Zn4   S    
C32   H20   S    
C30   O16   A    
C3    C5    D    
C25   C42   S    
C21   H13   S    
C16   C21   S    
C6    C7    D    
C4    O13   A    
C10   H25   S    
O26   Zn7   S    
C31   O19   A    
C22   O27   A    
O28   Zn5   S    
C24   O28   A    
C32   C33   S    
C13   C15   S    
C19   C24   S    
C29   O7    A    
C23   C32   S    
C26   O9    A    
C12   H18   S    
C36   O20   D    
C29   O5    A    
C2    C4    S    
O4    Zn4   S    
O11   Zn7   S    
C18   C20   S    
C5    H30   S    
C10   C11   D    
C12   H17   S    
C40   H1    S    
C20   C21   D    
C3    C37   S    
C8    C10   S    
C31   O17   A    
C25   O8    A    
C28   O15   A    
C36   H21   S    
C24   O11   A    
O18   Zn3   S    
