data_mof_unit_68205.cif
_audit_creation_date              2012-12-11T16:32:31-0500
_audit_creation_method            fapswitch 2.2
_symmetry_space_group_name_H-M    P1
_symmetry_Int_Tables_number       1
_space_group_crystal_system       triclinic
_cell_length_a                    6.973998
_cell_length_b                    14.015502
_cell_length_c                    16.450077
_cell_angle_alpha                 90.392651
_cell_angle_beta                  90.026359
_cell_angle_gamma                 90.175109
_cell_volume                      1607.85223837

loop_
_atom_site_label
_atom_site_type_symbol
_atom_type_description
_atom_site_fract_x
_atom_site_fract_y
_atom_site_fract_z
_atom_type_partial_charge
O1    O     O_R   0.361630 0.167340 0.164570 -0.533660
O2    O     O_R   0.638370 0.832660 0.835430 -0.533975
O3    O     O_R   0.690860 0.157560 0.338690 -0.547504
O4    O     O_R   0.309140 0.842440 0.661310 -0.547524
O5    O     O_R   0.861260 0.336420 0.339380 -0.541534
O6    O     O_R   0.138740 0.663580 0.660620 -0.541550
C1    C     C_R   0.522222 0.133623 0.366570 0.800327
C2    C     C_R   0.477778 0.866376 0.633429 0.800420
O7    O     O_R   0.691330 0.156310 0.165190 -0.511538
O8    O     O_R   0.308670 0.843690 0.834810 -0.511194
O9    O     O_R   0.861730 0.335160 0.164640 -0.506433
O10   O     O_R   0.138270 0.664840 0.835360 -0.506172
C3    C     C_R   0.522356 0.130872 0.138790 0.912201
C4    C     C_R   0.477644 0.869125 0.861213 0.912227
O11   O     O_R   0.361150 0.168600 0.339320 -0.522413
O12   O     O_R   0.638850 0.831400 0.660680 -0.522386
O13   O     O_3   0.527950 0.310560 0.252000 -0.362429
O14   O     O_3   0.472050 0.689440 0.748000 -0.362462
V1    V     V_3+5 0.802770 0.240990 0.251980 1.625172
V2    V     V_3+5 0.197230 0.759010 0.748020 1.625642
O15   O     O_R   0.191450 0.346190 0.165260 -0.531351
O16   O     O_R   0.808550 0.653810 0.834740 -0.531646
C5    C     C_R   0.021447 0.372648 0.139876 0.842840
C6    C     C_R   0.978554 0.627341 0.860116 0.842639
O17   O     O_R   0.190980 0.347440 0.338770 -0.531008
O18   O     O_R   0.809020 0.652560 0.661230 -0.530986
C7    C     C_R   0.022264 0.369386 0.367583 0.821556
C8    C     C_R   0.977736 0.630614 0.632417 0.821550
V3    V     V_3+5 0.302780 0.262760 0.251980 1.631058
V4    V     V_3+5 0.697220 0.737240 0.748020 1.630499
O19   O     O_3   0.027730 0.193200 0.251960 -0.370573
O20   O     O_3   0.972270 0.806800 0.748040 -0.370552
C9    C     C_3   0.832042 0.501042 0.458948 -0.218783
C10   C     C_3   0.167958 0.498957 0.541052 -0.218801
C11   C     C_3   0.857920 0.473033 0.549081 0.252781
C12   C     C_3   0.142080 0.526966 0.450919 0.252773
H1    H     H_    0.695343 0.500417 0.425139 0.232966
H2    H     H_    0.304657 0.499582 0.574860 0.232968
C13   C     C_3   0.989999 0.559756 0.563167 -0.241492
C14   C     C_3   0.010001 0.440243 0.436833 -0.241493
C15   C     C_3   0.966393 0.587832 0.473645 0.310842
C16   C     C_3   0.033607 0.412167 0.526355 0.310841
C17   C     C_R   0.019776 0.703412 0.025906 0.319947
C18   C     C_R   0.980014 0.296571 0.974081 0.319662
C19   C     C_R   0.046916 0.739478 0.105391 0.135004
C20   C     C_R   0.953005 0.260510 0.894580 0.134649
C21   C     C_R   0.042305 0.676770 0.171487 0.362732
C22   C     C_R   0.957652 0.323229 0.828493 0.362758
C23   C     C_R   0.991500 0.581754 0.158703 0.209985
C24   C     C_R   0.008476 0.418238 0.841286 0.210165
C25   C     C_R   0.001830 0.539454 0.080021 -0.136495
C26   C     C_R   0.998164 0.460529 0.919968 -0.136457
C27   C     C_R   0.006734 0.601944 0.011645 -0.027741
C28   C     C_R   0.993230 0.398037 0.988342 -0.027740
C29   C     C_R   0.005297 0.437881 0.068525 -0.065533
C30   C     C_R   0.994699 0.562102 0.931463 -0.065650
C31   C     C_3   0.366661 0.978286 0.444767 0.181506
C32   C     C_3   0.633344 0.021712 0.555231 0.181557
C33   C     C_3   0.526216 0.911024 0.474719 0.301370
C34   C     C_3   0.473789 0.088975 0.525279 0.301340
C35   C     C_3   0.486781 0.938933 0.564466 -0.357499
C36   C     C_3   0.513223 0.061065 0.435532 -0.357483
C37   C     C_3   0.326935 0.007065 0.533857 0.331827
C38   C     C_3   0.673069 0.992933 0.466142 0.331877
C39   C     C_R   0.498354 0.203139 0.973718 0.315048
C40   C     C_R   0.501688 0.796859 0.026282 0.315014
C41   C     C_R   0.473174 0.239367 0.895036 0.210292
C42   C     C_R   0.526788 0.760632 0.104969 0.210162
C43   C     C_R   0.444255 0.176881 0.829759 0.145178
C44   C     C_R   0.555791 0.823117 0.170240 0.145082
C45   C     C_R   0.453183 0.077459 0.840432 0.253685
C46   C     C_R   0.546923 0.922540 0.159564 0.253660
C47   C     C_R   0.477709 0.037852 0.919743 -0.054297
C48   C     C_R   0.522325 0.962147 0.080258 -0.054407
C49   C     C_R   0.496091 0.101738 0.987729 -0.073513
C50   C     C_R   0.503909 0.898260 0.012274 -0.073486
C51   C     C_R   0.485417 0.936428 0.932107 -0.087676
C52   C     C_R   0.514588 0.063570 0.067895 -0.087883
Br1   Br    Br    0.660357 0.430350 0.623060 -0.421278
Br2   Br    Br    0.339641 0.569650 0.376939 -0.421237
O21   O     O_3   0.146403 0.017422 0.568907 -0.569201
H3    H     H_    0.086431 0.953356 0.564980 0.333083
O22   O     O_3   0.853599 0.982578 0.431090 -0.569255
H4    H     H_    0.913557 0.046649 0.435006 0.333087
Br3   Br    Br    0.628635 0.771693 0.273501 -0.336410
Br4   Br    Br    0.371398 0.228297 0.726498 -0.336418
O23   O     O_3   0.531793 0.266440 0.037348 -0.636777
H5    H     H_    0.529689 0.333683 0.019634 0.335487
O24   O     O_3   0.468176 0.733561 0.962658 -0.636698
H6    H     H_    0.472029 0.666286 0.980237 0.335546
O25   O     O_3   0.474124 0.337206 0.884323 -0.644184
H7    H     H_    0.519041 0.352293 0.828865 0.357893
O26   O     O_3   0.525505 0.662794 0.115700 -0.644237
H8    H     H_    0.480687 0.647752 0.171181 0.357990
O27   O     O_3   0.429671 0.018407 0.773724 -0.645655
H9    H     H_    0.481899 0.049911 0.724912 0.346401
O28   O     O_3   0.570552 0.981592 0.226266 -0.645623
H10   H     H_    0.518317 0.950108 0.275087 0.346407
Br5   Br    Br    0.936469 0.718400 0.439980 -0.351870
Br6   Br    Br    0.063533 0.281598 0.560017 -0.351858
O29   O     O_3   0.924393 0.292857 0.749760 -0.548777
H11   H     H_    0.832967 0.238667 0.750789 0.334519
O30   O     O_3   0.075614 0.707150 0.250214 -0.548771
H12   H     H_    0.167053 0.761334 0.249174 0.334534
O31   O     O_3   0.006248 0.766661 0.961850 -0.631669
H13   H     H_    0.001001 0.833626 0.981059 0.333037
O32   O     O_3   0.993411 0.233331 0.038152 -0.631833
H14   H     H_    0.996219 0.166296 0.019055 0.333426
O33   O     O_3   0.068037 0.836835 0.116710 -0.662701
H15   H     H_    0.014103 0.855164 0.170239 0.331081
O34   O     O_3   0.932156 0.163145 0.883219 -0.662875
H16   H     H_    0.986190 0.144876 0.829693 0.331281
Br7   Br    Br    0.846256 0.528247 0.246037 -0.431518
Br8   Br    Br    0.153750 0.471747 0.753960 -0.431479
O35   O     O_3   0.549779 0.817217 0.448207 -0.543224
H17   H     H_    0.432480 0.782811 0.465538 0.317178
O36   O     O_3   0.450221 0.182781 0.551791 -0.543233
H18   H     H_    0.567483 0.217198 0.534431 0.317149
O37   O     O_3   0.230138 0.953590 0.386091 -0.598784
H19   H     H_    0.183275 0.889436 0.401393 0.358898
O38   O     O_3   0.769878 0.046400 0.613905 -0.598790
H20   H     H_    0.816595 0.110600 0.598658 0.358876

loop_
_geom_bond_atom_site_label_1
_geom_bond_atom_site_label_2
_ccdc_geom_bond_type
C40   C42   A    
O23   H5    S    
O29   H11   S    
O13   V3    S    
C28   C29   A    
C23   Br7   S    
O27   H9    S    
C10   C16   S    
C6    C30   S    
O4    C2    A    
V1    O19   S    
O28   H10   S    
C31   C36   S    
C38   O22   S    
C25   C29   A    
O9    V1    S    
C33   C38   S    
O26   H8    S    
C48   C50   A    
C37   O21   S    
C34   C37   S    
O7    V1    S    
O3    C1    A    
C19   O33   S    
C18   O32   S    
C45   O27   S    
O12   V4    S    
O35   H17   S    
C34   C36   S    
C17   O31   S    
C4    C51   S    
C11   Br1   S    
C43   C45   A    
C11   C16   S    
O7    C3    A    
C36   C38   S    
C9    C11   S    
O5    C7    A    
C17   C27   A    
O6    C8    A    
O34   H16   S    
C18   C20   A    
C39   C41   A    
C24   C26   A    
O32   H14   S    
C15   Br5   S    
O3    V1    S    
O14   V4    S    
O14   V2    S    
C2    C35   S    
C31   O37   S    
C32   C35   S    
C22   C24   A    
C2    O12   A    
C20   O34   S    
O17   V3    S    
C47   C49   A    
C12   C15   S    
C41   O25   S    
C26   C28   A    
O11   V3    S    
C40   O24   S    
C46   O28   S    
C19   C21   A    
C32   C38   S    
C20   C22   A    
C33   C35   S    
C9    C14   S    
C21   O30   S    
C10   C13   S    
C12   C14   S    
C50   C51   A    
C46   C48   A    
C12   Br2   S    
O8    V2    S    
O25   H7    S    
C45   C47   A    
C1    O11   A    
C8    C13   S    
C23   C25   A    
O15   V3    S    
O21   H3    S    
C24   Br8   S    
C11   C13   S    
C1    C36   S    
C16   Br6   S    
O22   H4    S    
C7    C14   S    
C40   C50   A    
O10   V2    S    
O1    V3    S    
C34   O36   S    
C39   O23   S    
C17   C19   A    
O38   H20   S    
C42   C44   A    
O18   V4    S    
O15   C5    A    
O8    C4    A    
O16   C6    A    
O17   C7    A    
V2    O20   S    
C27   C30   A    
C3    C52   S    
C32   O38   S    
O16   V4    S    
C10   H2    S    
C35   C37   S    
C31   C37   S    
C14   C16   S    
O37   H19   S    
C5    C29   S    
O5    V1    S    
C21   C23   A    
O6    V2    S    
O31   H13   S    
O10   C6    A    
O18   C8    A    
C42   O26   S    
C39   C49   A    
O2    V4    S    
C9    C15   S    
V3    O19   S    
O36   H18   S    
V4    O20   S    
C22   O29   S    
O9    C5    A    
O13   V1    S    
C10   C12   S    
O2    C4    A    
C49   C52   A    
C9    H1    S    
C31   C33   S    
C25   C27   A    
O4    V2    S    
C18   C28   A    
O1    C3    A    
C13   C15   S    
C33   O35   S    
C48   C52   A    
O30   H12   S    
C47   C51   A    
C44   C46   A    
C41   C43   A    
O24   H6    S    
O33   H15   S    
C44   Br3   S    
C32   C34   S    
C43   Br4   S    
C26   C30   A    
