data_mof_unit_44094.cif
_audit_creation_date              2013-03-05T15:55:01-0500
_audit_creation_method            fapswitch 2.2
_symmetry_space_group_name_H-M    P1
_symmetry_Int_Tables_number       1
_space_group_crystal_system       triclinic
_cell_length_a                    6.932886
_cell_length_b                    14.551248
_cell_length_c                    16.175934
_cell_angle_alpha                 90.434129
_cell_angle_beta                  90.066118
_cell_angle_gamma                 90.145187
_cell_volume                      1631.80969072

loop_
_atom_site_label
_atom_site_type_symbol
_atom_site_description
_atom_site_fract_x
_atom_site_fract_y
_atom_site_fract_z
_atom_type_partial_charge
O1    O     O_R   0.505810 0.583360 0.413880 -0.595287
O2    O     O_R   0.175870 0.595480 0.585520 -0.594445
O3    O     O_R   0.005540 0.416640 0.586120 -0.599147
C1    C     C_R   0.345073 0.617258 0.614630 0.970707
O4    O     O_R   0.176100 0.594390 0.414490 -0.599876
O5    O     O_R   0.005770 0.415540 0.413870 -0.601369
C2    C     C_R   0.345168 0.616219 0.385656 0.945337
O6    O     O_R   0.505580 0.584460 0.586130 -0.597381
O7    O     O_3   0.339190 0.441320 0.500000 -0.275232
V1    V     V_3+5 0.064350 0.510890 0.500000 1.160252
O8    O     O_R   0.676050 0.404520 0.414480 -0.585905
C3    C     C_R   0.844576 0.381589 0.386181 0.948937
O9    O     O_R   0.675830 0.405610 0.585510 -0.598149
C4    C     C_R   0.845038 0.383586 0.613676 1.018121
V2    V     V_3+5 0.564340 0.489110 0.500000 1.162011
O10   O     O_3   0.839370 0.558680 0.500000 -0.273622
C5    C     C_2   0.720426 0.208668 0.785948 -0.076243
C6    C     C_2   0.885475 0.182793 0.823367 -0.461312
H1    H     H_    0.584720 0.178788 0.805966 0.133448
H2    H     H_    0.022796 0.212091 0.805558 0.160553
C7    C     C_2   0.707932 0.277355 0.718170 -0.076392
C8    C     C_2   0.861511 0.315175 0.680360 -0.445472
H3    H     H_    0.563844 0.296529 0.698431 0.133778
H4    H     H_    0.006703 0.296341 0.698009 0.157280
C9    C     C_R   0.010504 0.259609 0.190068 0.202933
C10   C     C_R   0.995956 0.322537 0.256242 -0.264862
H5    H     H_    0.094980 0.380220 0.259078 0.133196
C11   C     C_R   0.853761 0.313098 0.317451 -0.184570
C12   C     C_R   0.723525 0.238455 0.311830 0.172171
C13   C     C_R   0.737898 0.175471 0.245776 -0.193682
H6    H     H_    0.638971 0.117704 0.243223 0.155774
C14   C     C_R   0.880199 0.184848 0.184630 -0.177713
C15   C     C_R   0.213477 0.750417 0.695908 -0.183615
H7    H     H_    0.094915 0.754560 0.652380 0.130897
C16   C     C_R   0.225160 0.814814 0.760954 0.259149
C17   C     C_R   0.378438 0.810266 0.819420 -0.351374
C18   C     C_R   0.520291 0.740684 0.809091 0.343212
C19   C     C_R   0.510607 0.680702 0.740592 -0.241524
H8    H     H_    0.619576 0.627980 0.733490 0.169833
C20   C     C_R   0.356741 0.684082 0.684345 -0.193142
C21   C     C_R   0.209219 0.749876 0.307590 -0.249163
H9    H     H_    0.088419 0.750859 0.350023 0.169016
C22   C     C_R   0.221458 0.817592 0.246081 0.392146
C23   C     C_R   0.379250 0.817188 0.189923 -0.312207
C24   C     C_R   0.525799 0.751651 0.200853 -0.051774
H10   H     H_    0.648383 0.749613 0.159428 0.169787
C25   C     C_R   0.515599 0.687157 0.264557 -0.114757
H11   H     H_    0.631370 0.637873 0.271031 0.127907
C26   C     C_R   0.356189 0.684839 0.318056 -0.183206
O11   O     O_R   0.230120 0.912300 0.917180 -0.572893
O12   O     O_R   0.559740 0.902430 0.088770 -0.573031
O13   O     O_R   0.729930 0.081310 0.089370 -0.611574
C27   C     C_R   0.390811 0.882537 0.119262 1.022867
O14   O     O_R   0.559840 0.901330 0.917750 -0.575749
O15   O     O_R   0.730030 0.080210 0.917120 -0.610591
C28   C     C_R   0.390486 0.878605 0.889014 1.001745
O16   O     O_R   0.230020 0.913400 0.089430 -0.569028
O17   O     O_3   0.396460 0.055470 0.003290 -0.294215
V3    V     V_3+5 0.671360 0.985960 0.003250 1.238146
O18   O     O_R   0.059740 0.091300 0.917690 -0.604280
C29   C     C_R   0.890970 0.113609 0.889777 0.998329
O19   O     O_R   0.059640 0.092400 0.088720 -0.563708
C30   C     C_R   0.890899 0.115276 0.116954 1.011039
V4    V     V_3+5 0.171350 0.007820 0.003190 1.230281
O20   O     O_3   0.896380 0.938200 0.003220 -0.242974
N1    N     N_2   0.083638 0.885390 0.765566 -0.085006
H12   H     H_    0.948263 0.864505 0.746467 0.185322
C31   C     C_3   0.141776 0.970366 0.726885 -0.930403
H13   H     H_    0.025255 0.021950 0.733796 0.247852
H14   H     H_    0.168549 0.958955 0.659848 0.247049
H15   H     H_    0.274409 0.998182 0.756572 0.240738
N2    N     N_R   0.669235 0.726403 0.869485 0.238774
O21   O     O_R   0.625012 0.720922 0.947470 -0.408022
O22   O     O_R   0.841146 0.701993 0.845890 -0.420603
N3    N     N_R   0.079480 0.889319 0.245311 0.229667
O23   O     O_R   0.900018 0.870447 0.261644 -0.429466
O24   O     O_R   0.134246 0.974910 0.244140 -0.434392
N4    N     N_2   0.156063 0.272520 0.129207 -0.106560
H16   H     H_    0.279579 0.303623 0.151689 0.169203
C32   C     C_3   0.088567 0.314963 0.053955 -0.867098
H17   H     H_    0.208148 0.317517 0.008414 0.249373
H18   H     H_    0.039029 0.386211 0.066988 0.250167
H19   H     H_    0.968259 0.274700 0.026153 0.224085
N5    N     N_2   0.585483 0.222923 0.375148 -0.117486
H20   H     H_    0.589981 0.156831 0.397690 0.173566
C33   C     C_3   0.391398 0.249582 0.353375 -0.809438
H21   H     H_    0.335212 0.204730 0.302861 0.239023
H22   H     H_    0.388419 0.322398 0.333317 0.248519
H23   H     H_    0.296037 0.242506 0.408067 0.245749

loop_
_geom_bond_atom_site_label_1
_geom_bond_atom_site_label_2
_geom_bond_distance
_ccdc_geom_bond_type
N1    C31   1.446619 S    
O15   V3    2.003713 S    
O11   V4    2.002123 S    
C21   H9    1.083502 S    
C16   C17   1.423736 A    
C1    O6    1.295808 A    
C25   C26   1.404970 A    
C24   H10   1.083196 S    
C10   H5    1.083680 S    
C12   C13   1.406210 A    
C3    C11   1.488993 S    
C17   C18   1.422366 A    
C19   C20   1.402456 A    
C18   C19   1.406741 A    
N5    C33   1.445240 S    
O5    C3    1.298556 A    
C13   H6    1.084040 S    
N4    C32   1.446964 S    
V2    O10   2.156556 S    
O19   V4    2.002545 S    
C5    H1    1.086202 S    
O8    V2    2.002523 S    
C23   C27   1.494467 S    
C1    C20   1.485447 S    
C31   H13   1.109276 S    
O1    V2    2.004164 S    
O7    V1    2.159923 S    
C9    C14   1.414462 A    
N1    H12   1.032043 S    
O1    C2    1.297013 A    
O9    C4    1.299748 A    
C22   N3    1.436573 S    
C21   C22   1.408089 A    
C32   H19   1.110785 S    
C21   C26   1.403355 A    
C15   H7    1.083802 S    
O14   V3    1.998500 S    
C24   C25   1.400737 A    
O17   V4    1.706142 S    
O14   C28   1.303227 A    
C15   C20   1.398487 A    
C33   H22   1.110700 S    
C9    N4    1.423723 S    
N5    H20   1.031633 S    
C2    C26   1.488264 S    
C12   N5    1.421509 S    
C32   H18   1.111717 S    
O4    C2    1.301512 A    
C27   O16   1.296838 A    
C33   H21   1.111421 S    
C32   H17   1.110414 S    
C16   N1    1.423730 S    
O17   V3    2.159878 S    
O13   C30   1.296726 A    
O11   C28   1.297931 A    
O18   C29   1.296617 A    
O12   C27   1.304023 A    
O2    C1    1.301085 A    
N3    O23   1.301286 A    
O19   C30   1.299565 A    
C17   C28   1.498507 S    
O13   V3    1.999282 S    
C25   H11   1.083203 S    
C5    C6    1.349635 D    
N3    O24   1.301418 A    
O3    C4    1.292251 A    
N2    O22   1.301332 A    
O6    V2    2.001744 S    
O9    V2    2.003684 S    
C22   C23   1.422747 A    
C8    H4    1.082493 S    
O12   V3    2.003268 S    
O2    V1    1.998366 S    
C23   C24   1.407133 A    
O16   V4    2.007423 S    
C11   C12   1.413004 A    
N4    H16   1.032085 S    
C14   C30   1.487472 S    
N2    O21   1.301535 A    
C33   H23   1.110304 S    
O5    V1    1.999407 S    
O8    C3    1.298796 A    
C6    C29   1.478324 S    
C10   C11   1.405225 A    
O18   V4    2.003718 S    
V4    O20   2.156531 S    
C4    C8    1.477862 S    
C7    H3    1.086145 S    
C9    C10   1.407243 A    
O4    V1    2.003238 S    
O3    V1    2.003796 S    
V1    O10   1.709367 S    
V3    O20   1.709441 S    
C13   C14   1.404927 A    
C19   H8    1.083642 S    
C31   H15   1.110909 S    
O15   C29   1.295545 A    
C15   C16   1.405774 A    
C6    H2    1.082369 S    
O7    V2    1.707224 S    
C5    C7    1.491754 S    
C31   H14   1.111671 S    
C18   N2    1.437258 S    
C7    C8    1.346937 D    
