data_mof_unit_65846.cif
_audit_creation_date              2012-12-10T17:13:17-0500
_audit_creation_method            fapswitch 2.2
_symmetry_space_group_name_H-M    P1
_symmetry_Int_Tables_number       1
_space_group_crystal_system       triclinic
_cell_length_a                    30.651763
_cell_length_b                    30.479118
_cell_length_c                    24.76976
_cell_angle_alpha                 89.995216
_cell_angle_beta                  128.55322
_cell_angle_gamma                 89.999838
_cell_volume                      18096.8436798

loop_
_atom_site_label
_atom_site_type_symbol
_atom_type_description
_atom_site_fract_x
_atom_site_fract_y
_atom_site_fract_z
_atom_type_partial_charge
C1    C     C_R   0.690724 0.189778 0.501094 0.961095
C2    C     C_R   0.309273 0.189778 0.498901 0.961078
C3    C     C_R   0.190727 0.689778 0.501097 0.961117
C4    C     C_R   0.809272 0.689778 0.498899 0.961100
C5    C     C_R   0.645264 0.250951 0.289952 -0.262472
C6    C     C_R   0.354724 0.250949 0.710047 -0.262462
C7    C     C_R   0.145264 0.750951 0.289952 -0.262473
C8    C     C_R   0.854723 0.750950 0.710047 -0.262462
C9    C     C_R   0.465071 0.253913 0.930196 0.350391
C10   C     C_R   0.534891 0.253913 0.069802 0.350389
C11   C     C_R   0.965067 0.753915 0.930195 0.350383
C12   C     C_R   0.034889 0.753915 0.069802 0.350384
C13   C     C_R   0.720830 0.156320 0.632507 0.360398
C14   C     C_R   0.279137 0.156309 0.367486 0.360391
C15   C     C_R   0.220768 0.656397 0.632511 0.360418
C16   C     C_R   0.779160 0.656335 0.367484 0.360409
C17   C     C_R   0.724825 0.152753 0.691897 0.316913
C18   C     C_R   0.275126 0.152746 0.308085 0.316953
C19   C     C_R   0.224710 0.652875 0.691867 0.316966
C20   C     C_R   0.775162 0.652781 0.308093 0.316984
C21   C     C_R   0.676827 0.141624 0.685071 0.285972
C22   C     C_R   0.323117 0.141620 0.314893 0.285933
C23   C     C_R   0.176694 0.641732 0.684994 0.285989
C24   C     C_R   0.823157 0.641650 0.314912 0.285939
C25   C     C_R   0.628992 0.126378 0.621096 0.422624
C26   C     C_R   0.370964 0.126371 0.378866 0.422587
C27   C     C_R   0.128903 0.626431 0.621023 0.422642
C28   C     C_R   0.870993 0.626387 0.378883 0.422521
C29   C     C_R   0.628362 0.123623 0.563333 -0.151852
C30   C     C_R   0.371614 0.123619 0.436645 -0.151785
C31   C     C_R   0.128333 0.623641 0.563308 -0.151862
C32   C     C_R   0.871628 0.623628 0.436652 -0.151822
C33   C     C_R   0.670101 0.145892 0.566782 -0.192041
C34   C     C_R   0.329879 0.145887 0.433206 -0.192064
C35   C     C_R   0.170074 0.645923 0.566778 -0.192218
C36   C     C_R   0.829892 0.645900 0.433207 -0.192069
C37   C     C_R   0.659755 0.156252 0.504194 -0.010436
C38   C     C_R   0.340242 0.156253 0.495801 -0.010448
C39   C     C_R   0.159767 0.656249 0.504204 -0.010505
C40   C     C_R   0.840240 0.656253 0.495797 -0.010467
C41   C     C_R   0.614514 0.138749 0.441641 -0.228948
C42   C     C_R   0.385494 0.138752 0.558354 -0.228960
C43   C     C_R   0.114588 0.638685 0.441665 -0.228914
C44   C     C_R   0.885476 0.638737 0.558347 -0.228995
C45   C     C_R   0.682652 0.250094 0.365363 0.925720
C46   C     C_R   0.317345 0.250093 0.634637 0.925763
C47   C     C_R   0.182652 0.750094 0.365363 0.925718
C48   C     C_R   0.817345 0.750093 0.634637 0.925738
C49   C     C_R   0.579708 0.109635 0.440559 -0.235143
C50   C     C_R   0.420295 0.109636 0.559432 -0.235094
C51   C     C_R   0.079793 0.609560 0.440583 -0.235348
C52   C     C_R   0.920276 0.609619 0.559425 -0.235014
C53   C     C_R   0.586907 0.100865 0.501205 -0.049767
C54   C     C_R   0.413082 0.100862 0.498779 -0.049755
C55   C     C_R   0.086934 0.600838 0.501202 -0.049374
C56   C     C_R   0.913078 0.600858 0.498779 -0.049781
C57   C     C_R   0.896520 0.216934 0.745947 -0.230454
C58   C     C_R   0.103520 0.216922 0.254056 -0.230208
C59   C     C_R   0.396565 0.716969 0.745953 -0.230839
C60   C     C_R   0.603514 0.716929 0.254053 -0.230284
C61   C     C_R   0.933041 0.216087 0.817959 0.549682
C62   C     C_R   0.067013 0.216072 0.182045 0.549666
C63   C     C_R   0.433085 0.716124 0.817965 0.549669
C64   C     C_R   0.567008 0.716081 0.182041 0.549664
C65   C     C_R   0.928155 0.248202 0.854829 -0.023392
C66   C     C_R   0.071886 0.248200 0.145172 -0.023380
C67   C     C_R   0.428163 0.748215 0.854831 -0.023425
C68   C     C_R   0.571882 0.748210 0.145172 -0.023382
C69   C     C_R   0.887726 0.281236 0.819071 -0.218721
C70   C     C_R   0.112287 0.281249 0.180927 -0.218718
C71   C     C_R   0.387699 0.781225 0.819069 -0.218672
C72   C     C_R   0.612284 0.781257 0.180929 -0.218710
C73   C     C_R   0.851550 0.281879 0.747307 -0.182232
C74   C     C_R   0.148451 0.281893 0.252690 -0.182328
C75   C     C_R   0.351523 0.781866 0.747306 -0.181965
C76   C     C_R   0.648449 0.781899 0.252692 -0.182282
C77   C     C_R   0.855747 0.249758 0.710295 -0.070748
C78   C     C_R   0.144266 0.249760 0.289705 -0.070770
C79   C     C_R   0.355755 0.749766 0.710297 -0.070636
C80   C     C_R   0.644263 0.749764 0.289704 -0.070743
C81   C     C_R   0.034630 0.248085 0.069709 0.296394
C82   C     C_R   0.965420 0.248085 0.930293 0.296410
C83   C     C_R   0.534628 0.748095 0.069709 0.296413
C84   C     C_R   0.465424 0.748098 0.930294 0.296409
C85   C     C_R   0.754339 0.374653 0.387581 -0.237069
C86   C     C_R   0.245710 0.374771 0.612240 -0.236976
C87   C     C_R   0.254341 0.874649 0.387575 -0.237079
C88   C     C_R   0.745666 0.874643 0.612411 -0.237065
C89   C     C_R   0.808736 0.310017 0.497566 0.884835
C90   C     C_R   0.191269 0.310018 0.502443 0.884826
C91   C     C_R   0.308736 0.810017 0.497566 0.884820
C92   C     C_R   0.691265 0.810016 0.502435 0.884839
C93   C     C_R   0.727607 0.409277 0.341111 -0.286346
C94   C     C_R   0.272453 0.409445 0.658585 -0.286976
C95   C     C_R   0.227611 0.909270 0.341100 -0.286316
C96   C     C_R   0.772399 0.909263 0.658875 -0.286388
C97   C     C_R   0.756934 0.447332 0.351005 0.488148
C98   C     C_R   0.243093 0.447481 0.648680 0.488830
C99   C     C_R   0.256937 0.947326 0.350994 0.488119
C100  C     C_R   0.743070 0.947318 0.648980 0.488159
C101  C     C_R   0.813993 0.450502 0.408302 0.445765
C102  C     C_R   0.185991 0.450580 0.591533 0.445769
C103  C     C_R   0.313994 0.950499 0.408298 0.445767
C104  C     C_R   0.686009 0.950493 0.591694 0.445760
C105  C     C_R   0.843308 0.412976 0.450064 -0.155017
C106  C     C_R   0.156694 0.413026 0.549849 -0.155236
C107  C     C_R   0.343308 0.912974 0.450062 -0.155012
C108  C     C_R   0.656694 0.912970 0.549938 -0.155047
C109  C     C_R   0.812023 0.376617 0.443461 0.045504
C110  C     C_R   0.187998 0.376678 0.556454 0.045538
C111  C     C_R   0.312024 0.876615 0.443458 0.045497
C112  C     C_R   0.687980 0.876612 0.556538 0.045505
C113  C     C_R   0.839469 0.343098 0.493362 -0.135578
C114  C     C_R   0.160543 0.343105 0.506657 -0.135664
C115  C     C_R   0.339470 0.843097 0.493362 -0.135567
C116  C     C_R   0.660533 0.843096 0.506643 -0.135589
C117  C     C_R   0.897130 0.342409 0.543536 -0.281497
C118  C     C_R   0.102873 0.342365 0.456590 -0.281449
C119  C     C_R   0.397130 0.842410 0.543540 -0.281509
C120  C     C_R   0.602871 0.842408 0.456481 -0.281498
C121  C     C_R   0.928674 0.375487 0.545930 0.625223
C122  C     C_R   0.071326 0.375441 0.454195 0.625196
C123  C     C_R   0.428675 0.875488 0.545934 0.625161
C124  C     C_R   0.571327 0.875484 0.454092 0.625171
C125  C     C_R   0.902414 0.410688 0.499641 -0.234764
C126  C     C_R   0.097585 0.410685 0.500374 -0.234578
C127  C     C_R   0.402414 0.910687 0.499642 -0.234757
C128  C     C_R   0.597588 0.910683 0.500370 -0.234760
C129  C     C_R   0.062047 0.441729 0.500130 1.012380
C130  C     C_R   0.937950 0.441731 0.499875 1.012771
C131  C     C_R   0.562051 0.941730 0.500129 1.012659
C132  C     C_R   0.437951 0.941731 0.499875 1.012712
C133  C     C_R   0.817778 0.250263 0.634721 0.963630
C134  C     C_R   0.182224 0.250265 0.365279 0.963620
C135  C     C_R   0.317782 0.750266 0.634721 0.963669
C136  C     C_R   0.682223 0.750266 0.365279 0.963607
C137  C     C_R   0.556860 0.063511 0.500275 0.946870
C138  C     C_R   0.443135 0.063510 0.499719 0.946936
C139  C     C_R   0.056867 0.563505 0.500275 0.946851
C140  C     C_R   0.943133 0.563508 0.499719 0.947105
C141  C     C_R   0.641483 0.214755 0.252174 0.647944
C142  C     C_R   0.358504 0.214753 0.747834 0.647938
C143  C     C_R   0.141485 0.714756 0.252173 0.647939
C144  C     C_R   0.858508 0.714752 0.747834 0.647947
C145  C     C_R   0.605389 0.216099 0.180476 -0.321423
C146  C     C_R   0.394589 0.216098 0.819531 -0.321420
C147  C     C_R   0.105390 0.716100 0.180475 -0.321424
C148  C     C_R   0.894591 0.716097 0.819531 -0.321418
C149  C     C_R   0.572970 0.253566 0.145447 -0.144530
C150  C     C_R   0.426999 0.253565 0.854551 -0.144537
C151  C     C_R   0.072969 0.753567 0.145447 -0.144530
C152  C     C_R   0.926995 0.753567 0.854550 -0.144528
C153  C     C_R   0.577069 0.289909 0.183350 0.678524
C154  C     C_R   0.422900 0.289909 0.816640 0.678520
C155  C     C_R   0.077067 0.789910 0.183350 0.678525
C156  C     C_R   0.922890 0.789913 0.816639 0.678526
C157  C     C_R   0.612845 0.288400 0.255094 -0.372104
C158  C     C_R   0.387134 0.288398 0.744896 -0.372048
C159  C     C_R   0.112844 0.788400 0.255095 -0.372107
C160  C     C_R   0.887125 0.788402 0.744896 -0.372119
H1    H     H_    0.547430 0.093689 0.392183 0.188293
H2    H     H_    0.452583 0.093692 0.607813 0.188331
H3    H     H_    0.047562 0.593571 0.392224 0.188163
H4    H     H_    0.952551 0.593664 0.607801 0.188342
H5    H     H_    0.900385 0.191827 0.718247 0.161621
H6    H     H_    0.099665 0.191805 0.281758 0.161626
H7    H     H_    0.400461 0.691881 0.718256 0.161605
H8    H     H_    0.599657 0.691811 0.281752 0.161617
H9    H     H_    0.883608 0.306251 0.846707 0.172656
H10   H     H_    0.116395 0.306273 0.153288 0.172655
H11   H     H_    0.383553 0.806221 0.846704 0.172633
H12   H     H_    0.616392 0.806283 0.153291 0.172646
H13   H     H_    0.820464 0.307589 0.720869 0.167897
H14   H     H_    0.179516 0.307614 0.279127 0.167903
H15   H     H_    0.320409 0.807555 0.720865 0.167865
H16   H     H_    0.679515 0.807619 0.279131 0.167894
H17   H     H_    0.917761 0.316110 0.581162 0.179063
H18   H     H_    0.082235 0.316030 0.419042 0.179152
H19   H     H_    0.417761 0.816112 0.581168 0.179057
H20   H     H_    0.582239 0.816111 0.418860 0.179074
H21   H     H_    0.729624 0.346128 0.378707 0.173966
H22   H     H_    0.270446 0.346254 0.621137 0.174143
H23   H     H_    0.229627 0.846124 0.378701 0.173960
H24   H     H_    0.770382 0.846118 0.621285 0.173974
H25   H     H_    0.683386 0.407129 0.298460 0.202487
H26   H     H_    0.316699 0.407346 0.701148 0.202440
H27   H     H_    0.183391 0.907120 0.298445 0.202491
H28   H     H_    0.816621 0.907112 0.701520 0.202501
H29   H     H_    0.603061 0.187767 0.152379 0.208104
H30   H     H_    0.396917 0.187767 0.847635 0.208103
H31   H     H_    0.103063 0.687770 0.152378 0.208105
H32   H     H_    0.896923 0.687764 0.847635 0.208101
H33   H     H_    0.615429 0.316712 0.283418 0.206225
H34   H     H_    0.384550 0.316711 0.716567 0.206194
H35   H     H_    0.115427 0.816712 0.283419 0.206227
H36   H     H_    0.884537 0.816716 0.716565 0.206215
H37   H     H_    0.606985 0.146905 0.393847 0.155309
H38   H     H_    0.393035 0.146912 0.606153 0.155305
H39   H     H_    0.107098 0.646806 0.393884 0.155357
H40   H     H_    0.893006 0.646887 0.606142 0.155330
N1    N     N_R   0.517123 0.292254 0.034288 -0.072561
N2    N     N_R   0.482828 0.292254 0.965696 -0.072571
N3    N     N_R   0.017116 0.792256 0.034288 -0.072548
N4    N     N_R   0.982821 0.792256 0.965696 -0.072555
N5    N     N_R   0.482797 0.215595 0.965741 -0.176994
N6    N     N_R   0.517175 0.215595 0.034270 -0.176999
N7    N     N_R   0.982797 0.715597 0.965740 -0.176995
N8    N     N_R   0.017176 0.715597 0.034270 -0.177001
N9    N     N_R   0.983058 0.209732 0.965727 -0.103307
N10   N     N_R   0.017122 0.286457 0.034291 -0.182356
N11   N     N_R   0.483078 0.709744 0.965727 -0.103354
N12   N     N_R   0.517103 0.786468 0.034292 -0.182350
N13   N     N_R   0.017031 0.209731 0.034287 -0.103324
N14   N     N_R   0.982892 0.286457 0.965699 -0.182354
N15   N     N_R   0.517048 0.709743 0.034287 -0.103343
N16   N     N_R   0.482875 0.786469 0.965700 -0.182346
O1    O     O_R   0.678340 0.230070 0.500020 -0.624742
O2    O     O_R   0.321660 0.230070 0.499980 -0.624757
O3    O     O_R   0.178340 0.730070 0.500020 -0.624702
O4    O     O_R   0.821660 0.730070 0.499980 -0.624754
O5    O     O_R   0.074600 0.454200 0.557500 -0.598162
O6    O     O_R   0.925400 0.454200 0.442500 -0.598359
O7    O     O_R   0.574600 0.954200 0.557500 -0.598390
O8    O     O_R   0.425400 0.954200 0.442500 -0.598426
O9    O     O_R   0.517070 0.045810 0.442480 -0.635443
O10   O     O_R   0.482930 0.045810 0.557520 -0.635410
O11   O     O_R   0.017070 0.545810 0.442480 -0.635693
O12   O     O_R   0.982930 0.545810 0.557520 -0.635406
O13   O     O_R   0.574570 0.045820 0.557490 -0.556423
O14   O     O_R   0.425430 0.045820 0.442510 -0.556424
O15   O     O_R   0.074570 0.545820 0.557490 -0.556257
O16   O     O_R   0.925430 0.545820 0.442510 -0.556384
O17   O     O_R   0.730080 0.178340 0.500000 -0.610072
O18   O     O_R   0.269920 0.178340 0.500000 -0.610071
O19   O     O_R   0.230080 0.678340 0.500000 -0.610149
O20   O     O_R   0.769920 0.678340 0.500000 -0.610083
O21   O     O_R   0.673200 0.275870 0.398140 -0.641871
O22   O     O_R   0.326800 0.275870 0.601860 -0.641904
O23   O     O_R   0.173200 0.775870 0.398140 -0.641874
O24   O     O_R   0.826800 0.775870 0.601860 -0.641863
O25   O     O_R   0.724950 0.224150 0.398130 -0.553807
O26   O     O_R   0.275050 0.224150 0.601870 -0.553808
O27   O     O_R   0.224950 0.724150 0.398130 -0.553799
O28   O     O_R   0.775050 0.724150 0.601870 -0.553817
O29   O     O_R   0.769940 0.321680 0.500000 -0.625682
O30   O     O_R   0.230060 0.321680 0.500000 -0.625710
O31   O     O_R   0.269940 0.821680 0.500000 -0.625690
O32   O     O_R   0.730060 0.821680 0.500000 -0.625685
O33   O     O_R   0.821690 0.269960 0.499980 -0.620489
O34   O     O_R   0.178310 0.269960 0.500020 -0.620515
O35   O     O_R   0.321690 0.769960 0.499980 -0.620490
O36   O     O_R   0.678310 0.769960 0.500020 -0.620500
O37   O     O_R   0.775070 0.275880 0.601870 -0.625553
O38   O     O_R   0.224930 0.275880 0.398130 -0.625559
O39   O     O_R   0.275070 0.775880 0.601870 -0.625524
O40   O     O_R   0.724930 0.775880 0.398130 -0.625560
O41   O     O_R   0.826820 0.224150 0.601850 -0.629736
O42   O     O_R   0.173180 0.224150 0.398150 -0.629709
O43   O     O_R   0.326820 0.724150 0.601850 -0.629785
O44   O     O_R   0.673180 0.724150 0.398150 -0.629729
O45   O     O_R   0.017100 0.454190 0.442490 -0.587037
O46   O     O_R   0.982900 0.454190 0.557510 -0.586770
O47   O     O_R   0.517100 0.954190 0.442490 -0.586765
O48   O     O_R   0.482900 0.954190 0.557510 -0.586749
Zn1   Zn    Zn3+2 0.715460 0.284550 0.500010 0.970104
Zn2   Zn    Zn3+2 0.284540 0.284550 0.499990 0.970084
Zn3   Zn    Zn3+2 0.215460 0.784550 0.500010 0.970114
Zn4   Zn    Zn3+2 0.784540 0.784550 0.499990 0.970090
Zn5   Zn    Zn3+2 0.784560 0.215470 0.499990 1.013166
Zn6   Zn    Zn3+2 0.215440 0.215470 0.500010 1.013139
Zn7   Zn    Zn3+2 0.284560 0.715470 0.499990 1.013203
Zn8   Zn    Zn3+2 0.715440 0.715470 0.500010 1.013148
Zn9   Zn    Zn3+2 0.961620 0.500000 0.423200 1.066759
Zn10  Zn    Zn3+2 0.038380 0.500000 0.576800 1.067165
Zn11  Zn    Zn3+2 0.461620 1.000000 0.423200 1.066971
Zn12  Zn    Zn3+2 0.538380 0.000000 0.576800 1.067013
F1    F     F_    0.671652 0.177735 0.284252 -0.643415
F2    F     F_    0.328344 0.177733 0.715764 -0.643415
F3    F     F_    0.171655 0.677737 0.284250 -0.643415
F4    F     F_    0.828354 0.677729 0.715764 -0.643419
O49   O     O_3   0.972285 0.182997 0.851934 -0.599554
C161  C     C_3   0.019251 0.195135 0.857331 -0.301406
H41   H     H_    0.037760 0.226414 0.886424 0.161271
H42   H     H_    0.008701 0.197801 0.805558 0.159011
H43   H     H_    0.051462 0.169232 0.886405 0.207892
O50   O     O_3   0.027797 0.182968 0.148074 -0.599560
C162  C     C_3   0.980807 0.195086 0.142637 -0.301460
H44   H     H_    0.948619 0.169170 0.113569 0.207897
H45   H     H_    0.962279 0.226358 0.113519 0.161274
H46   H     H_    0.991335 0.197752 0.194398 0.158996
O51   O     O_3   0.472366 0.683059 0.851944 -0.599548
C163  C     C_3   0.519323 0.695249 0.857352 -0.301322
H47   H     H_    0.537796 0.726531 0.886450 0.161261
H48   H     H_    0.508776 0.697935 0.805583 0.159027
H49   H     H_    0.551561 0.669365 0.886427 0.207875
O52   O     O_3   0.527790 0.682978 0.148067 -0.599568
C164  C     C_3   0.480798 0.695097 0.142625 -0.301462
H50   H     H_    0.448610 0.669182 0.113556 0.207885
H51   H     H_    0.462272 0.726370 0.113507 0.161281
H52   H     H_    0.491323 0.697765 0.194384 0.159010
O53   O     O_3   0.727891 0.483151 0.309074 -0.599173
C165  C     C_3   0.742348 0.489517 0.265594 -0.255124
H53   H     H_    0.735381 0.459256 0.235905 0.157525
H54   H     H_    0.786236 0.500834 0.295270 0.196520
H55   H     H_    0.715129 0.515489 0.227612 0.177119
O54   O     O_3   0.272110 0.483347 0.690468 -0.598844
C166  C     C_3   0.258022 0.489574 0.734343 -0.255462
H56   H     H_    0.265413 0.459311 0.764245 0.157682
H57   H     H_    0.214077 0.500674 0.704960 0.196196
H58   H     H_    0.285164 0.515651 0.772118 0.177126
O55   O     O_3   0.227894 0.983143 0.309055 -0.599200
C167  C     C_3   0.242373 0.989515 0.265598 -0.255114
H59   H     H_    0.235438 0.959251 0.235929 0.157518
H60   H     H_    0.286256 0.000849 0.295291 0.196545
H61   H     H_    0.215146 0.015476 0.227598 0.177108
O56   O     O_3   0.772112 0.983135 0.690904 -0.599153
C168  C     C_3   0.757690 0.989477 0.734422 -0.255147
H62   H     H_    0.764690 0.959207 0.764120 0.157548
H63   H     H_    0.713798 0.000782 0.704776 0.196468
H64   H     H_    0.784906 0.015448 0.772394 0.177125
O57   O     O_3   0.838236 0.491583 0.427279 -0.606393
C169  C     C_3   0.831031 0.509803 0.473743 -0.298712
H65   H     H_    0.864333 0.497872 0.526969 0.162387
H66   H     H_    0.789176 0.503055 0.459351 0.165621
H67   H     H_    0.834157 0.545875 0.473214 0.197114
O58   O     O_3   0.161674 0.491633 0.572662 -0.606283
C170  C     C_3   0.168346 0.509889 0.525736 -0.297520
H68   H     H_    0.134044 0.498753 0.472438 0.162555
H69   H     H_    0.209494 0.502369 0.538594 0.164089
H70   H     H_    0.166491 0.546009 0.527491 0.197277
O59   O     O_3   0.338233 0.991582 0.427283 -0.606389
C171  C     C_3   0.331011 0.009795 0.473734 -0.298767
H71   H     H_    0.364258 0.997816 0.526949 0.162391
H72   H     H_    0.289121 0.003091 0.459264 0.165692
H73   H     H_    0.334210 0.045864 0.473283 0.197099
O60   O     O_3   0.661763 0.991576 0.572726 -0.606373
C172  C     C_3   0.668937 0.009805 0.526240 -0.298421
H74   H     H_    0.635590 0.997901 0.472999 0.162354
H75   H     H_    0.710781 0.003029 0.540576 0.165523
H76   H     H_    0.665846 0.045883 0.526816 0.197124
F5    F     F_    0.985147 0.372616 0.592861 -0.646119
F6    F     F_    0.014851 0.372528 0.407369 -0.646184
F7    F     F_    0.485148 0.872619 0.592868 -0.646160
F8    F     F_    0.514854 0.872614 0.407173 -0.646157
F9    F     F_    0.545771 0.326488 0.151427 -0.641679
F10   F     F_    0.454191 0.326487 0.848554 -0.641691
F11   F     F_    0.045767 0.826488 0.151429 -0.641672
F12   F     F_    0.954174 0.826494 0.848553 -0.641675
O61   O     O_3   0.767913 0.167814 0.639982 -0.587739
C173  C     C_3   0.794017 0.129056 0.641650 -0.200630
H77   H     H_    0.764885 0.107496 0.596299 0.147335
H78   H     H_    0.812901 0.110622 0.690258 0.172472
H79   H     H_    0.828176 0.138121 0.640001 0.181124
O62   O     O_3   0.232058 0.167794 0.360025 -0.587730
C174  C     C_3   0.205993 0.129032 0.358429 -0.200675
H80   H     H_    0.235152 0.107493 0.403808 0.147343
H81   H     H_    0.187114 0.110575 0.309845 0.172426
H82   H     H_    0.171837 0.138094 0.360083 0.181119
O63   O     O_3   0.267871 0.667890 0.640031 -0.587814
C175  C     C_3   0.293995 0.629130 0.641745 -0.200340
H83   H     H_    0.264892 0.607578 0.596372 0.147503
H84   H     H_    0.312820 0.610686 0.690332 0.172413
H85   H     H_    0.328199 0.638191 0.640184 0.181121
O64   O     O_3   0.732075 0.667818 0.360013 -0.587742
C176  C     C_3   0.706002 0.629055 0.358393 -0.200699
H86   H     H_    0.735153 0.607507 0.403762 0.147350
H87   H     H_    0.687123 0.610608 0.309801 0.172438
H88   H     H_    0.671843 0.638114 0.360044 0.181127
O65   O     O_3   0.774791 0.163790 0.755003 -0.569503
C177  C     C_3   0.798165 0.126210 0.797514 -0.237170
H89   H     H_    0.796466 0.096818 0.769578 0.135932
H90   H     H_    0.777514 0.118959 0.820679 0.195110
H91   H     H_    0.842771 0.132922 0.840525 0.199459
O66   O     O_3   0.225151 0.163785 0.244985 -0.569513
C178  C     C_3   0.201766 0.126201 0.202496 -0.237086
H92   H     H_    0.203458 0.096820 0.230451 0.135988
H93   H     H_    0.222415 0.118928 0.179335 0.195068
H94   H     H_    0.157162 0.132922 0.159482 0.199511
O67   O     O_3   0.274633 0.663978 0.754975 -0.569490
C179  C     C_3   0.298045 0.626437 0.797572 -0.237138
H95   H     H_    0.296464 0.597041 0.769734 0.135764
H96   H     H_    0.277338 0.619163 0.820657 0.195106
H97   H     H_    0.342617 0.633214 0.840634 0.199366
O68   O     O_3   0.725194 0.663827 0.244990 -0.569518
C180  C     C_3   0.701808 0.626249 0.202488 -0.237042
H98   H     H_    0.703503 0.596860 0.230433 0.135936
H99   H     H_    0.722455 0.618986 0.179321 0.195090
H100  H     H_    0.657203 0.632971 0.159478 0.199490
O69   O     O_3   0.676103 0.143041 0.740467 -0.572926
C181  C     C_3   0.684932 0.186445 0.765511 -0.233268
H101  H     H_    0.665827 0.211744 0.724002 0.126099
H102  H     H_    0.730145 0.193047 0.805392 0.206456
H103  H     H_    0.665329 0.189962 0.790723 0.180389
O70   O     O_3   0.323819 0.143032 0.259479 -0.572955
C182  C     C_3   0.314972 0.186433 0.234409 -0.233385
H104  H     H_    0.334086 0.211735 0.275907 0.126126
H105  H     H_    0.269755 0.193034 0.194544 0.206511
H106  H     H_    0.334553 0.189947 0.209170 0.180376
O71   O     O_3   0.175913 0.643185 0.740344 -0.572941
C183  C     C_3   0.184690 0.686604 0.765316 -0.233420
H107  H     H_    0.165607 0.711879 0.723774 0.126136
H108  H     H_    0.229891 0.693226 0.805242 0.206497
H109  H     H_    0.165027 0.690141 0.790453 0.180371
O72   O     O_3   0.823868 0.643065 0.259505 -0.572967
C184  C     C_3   0.815040 0.686469 0.234453 -0.233569
H110  H     H_    0.834171 0.711764 0.275963 0.126145
H111  H     H_    0.769826 0.693085 0.194594 0.206549
H112  H     H_    0.834619 0.689979 0.209211 0.180385
O73   O     O_3   0.581039 0.118635 0.613642 -0.549517
C185  C     C_3   0.551725 0.158585 0.596089 -0.294362
H113  H     H_    0.546742 0.175759 0.552853 0.127149
H114  H     H_    0.572496 0.180578 0.641596 0.183748
H115  H     H_    0.509505 0.151671 0.579254 0.191447
O74   O     O_3   0.418907 0.118618 0.386299 -0.549528
C186  C     C_3   0.448193 0.158572 0.403747 -0.294365
H116  H     H_    0.453133 0.175813 0.446904 0.127082
H117  H     H_    0.427429 0.180505 0.358170 0.183918
H118  H     H_    0.490431 0.151648 0.420647 0.191380
O75   O     O_3   0.080924 0.618680 0.613504 -0.549601
C187  C     C_3   0.051614 0.658633 0.595963 -0.294376
H119  H     H_    0.046738 0.675866 0.552837 0.127055
H120  H     H_    0.072314 0.680576 0.641516 0.183970
H121  H     H_    0.009350 0.651711 0.578974 0.191409
O76   O     O_3   0.918935 0.618612 0.386325 -0.549530
C188  C     C_3   0.948225 0.658560 0.403726 -0.294139
H122  H     H_    0.953119 0.675859 0.446817 0.126962
H123  H     H_    0.927494 0.680450 0.358105 0.184017
H124  H     H_    0.990483 0.651616 0.420701 0.191363

loop_
_geom_bond_atom_site_label_1
_geom_bond_atom_site_label_2
_ccdc_geom_bond_type
C169  H66   S    
C148  H32   S    
O14   Zn11  S    
O9    Zn11  S    
C188  H122  S    
C142  C146  A    
C99   C103  A    
O51   C163  S    
C172  H74   S    
O53   C165  S    
C90   O34   A    
C161  H41   S    
C157  H33   S    
C72   H12   S    
C187  H119  S    
C86   C110  A    
C154  C158  A    
C56   C140  S    
C95   C99   A    
C169  H67   S    
C7    C159  A    
O19   Zn7   S    
C29   C33   A    
O20   Zn8   S    
C55   C139  S    
O21   Zn1   S    
C12   N3    A    
C138  O10   A    
C149  C153  A    
C3    O19   A    
C146  C150  A    
C84   N16   A    
C152  C156  A    
C1    O17   A    
C136  O44   A    
C162  H45   S    
O58   C170  S    
C151  C155  A    
C1    C37   S    
C160  H36   S    
C82   N9    A    
C27   O75   S    
O40   Zn4   S    
C3    C39   S    
C119  H19   S    
C41   C49   A    
C117  H17   S    
O18   Zn6   S    
C25   C29   A    
O46   Zn10  S    
C89   C113  S    
C27   C31   A    
C28   C32   A    
C133  O37   A    
C62   C66   A    
C181  H102  S    
C126  C129  S    
C98   C102  A    
N9    N13   A    
O56   C168  S    
C61   O49   S    
C168  H64   S    
C19   C23   A    
C155  F11   S    
C177  H90   S    
C174  H80   S    
C138  O14   A    
C68   C72   A    
O54   C166  S    
C64   O52   S    
C50   C54   A    
O72   C184  S    
C78   C134  S    
C183  H108  S    
O52   C164  S    
C101  O57   S    
O69   C181  S    
C188  H124  S    
C53   C137  S    
C184  H112  S    
C172  H76   S    
C59   H7    S    
C113  C117  A    
O8    Zn11  S    
O38   Zn2   S    
O28   Zn8   S    
C68   C83   S    
C187  H121  S    
O29   Zn1   S    
O60   C172  S    
C178  H92   S    
C57   C61   A    
C119  C123  A    
C59   C63   A    
C105  C125  A    
C60   C64   A    
O37   Zn1   S    
C163  H48   S    
O11   Zn9   S    
C107  C127  A    
C184  H110  S    
C65   C82   S    
C66   C70   A    
C49   C53   A    
O2    Zn2   S    
C89   O29   A    
C51   C55   A    
C11   N4    A    
C90   C114  S    
C120  H20   S    
C173  H77   S    
C45   O21   A    
C9    N2    A    
C61   C65   A    
C87   C111  A    
O57   C169  S    
C24   O72   S    
O63   C175  S    
C2    O2    A    
C73   C77   A    
C139  O15   A    
O73   C185  S    
C176  H86   S    
C75   C79   A    
C13   O61   S    
C179  H95   S    
C180  H99   S    
O13   Zn12  S    
O61   C173  S    
C50   H2    S    
O24   Zn4   S    
O75   C187  S    
C100  C104  A    
C30   C34   A    
C23   O71   S    
C7    C143  A    
C177  H89   S    
C92   O32   A    
C84   N11   A    
C159  H35   S    
C30   C54   A    
O48   Zn12  S    
C64   C68   A    
C74   H14   S    
C10   C149  S    
C87   H23   S    
C88   H24   S    
O71   C183  S    
C167  H59   S    
C118  C122  A    
O66   C178  S    
C137  O9    A    
C85   C93   A    
C81   N13   A    
C4    C40   S    
C147  H31   S    
C87   C95   A    
C76   C80   A    
C186  H117  S    
C24   C28   A    
C110  C114  A    
C49   H1    S    
O31   Zn3   S    
C44   C52   A    
C164  H51   S    
C11   N7    A    
C175  H83   S    
C6    C158  A    
C131  O47   A    
C92   O36   A    
C165  H54   S    
C140  O12   A    
C16   O64   S    
C155  C159  A    
O22   Zn2   S    
C130  O6    A    
C171  H71   S    
C41   H37   S    
C124  F8    S    
C176  H88   S    
O12   Zn10  S    
C170  H69   S    
C116  C120  A    
C147  C151  A    
C62   O50   S    
C121  C125  A    
C2    C38   S    
C123  C127  A    
C69   H9    S    
C108  C128  A    
C51   H3    S    
C185  H113  S    
C42   C50   A    
C179  H97   S    
C47   O23   A    
C118  H18   S    
O76   C188  S    
C174  H81   S    
C44   H40   S    
C115  C119  A    
C22   C26   A    
C71   H11   S    
O41   Zn5   S    
C172  H75   S    
C128  C131  S    
C93   C97   A    
C112  C116  A    
O43   Zn7   S    
C4    O20   A    
C178  H94   S    
C105  C109  A    
C60   C80   A    
C85   H21   S    
C18   C22   A    
C107  C111  A    
C94   H26   S    
C183  H107  S    
C14   C34   A    
C103  C107  A    
C26   C30   A    
C141  C145  A    
C18   O66   S    
C135  O43   A    
C167  H61   S    
C124  C128  A    
C166  H58   S    
C135  O39   A    
C187  H120  S    
C10   N6    A    
C16   C36   A    
O39   Zn3   S    
O70   C182  S    
C96   C100  A    
C20   O68   S    
O25   Zn5   S    
C169  H65   S    
C37   C41   A    
C58   H6    S    
C40   C44   A    
C161  H43   S    
O62   C174  S    
C57   H5    S    
C131  O7    A    
O30   Zn2   S    
C175  H85   S    
C93   H25   S    
C58   C62   A    
C88   C96   A    
C171  H73   S    
C48   O28   A    
C142  F2    S    
O33   Zn5   S    
C95   H27   S    
O67   C179  S    
C91   O35   A    
C15   C19   A    
C158  H34   S    
C89   O33   A    
O3    Zn3   S    
C85   C109  A    
C104  O60   S    
C182  H106  S    
C154  F10   S    
C94   C98   A    
C139  O11   A    
C164  H50   S    
C168  H63   S    
C14   C18   A    
C21   C25   A    
C48   O24   A    
C99   O55   S    
C2    O18   A    
O7    Zn12  S    
C4    O4    A    
C69   C73   A    
C6    C142  A    
C83   N12   A    
C72   C76   A    
C132  O48   A    
C133  O41   A    
C81   N10   A    
C188  H123  S    
O10   Zn12  S    
C183  H109  S    
C129  O45   A    
C100  O56   S    
C26   O74   S    
C91   O31   A    
C9    C150  S    
C28   O76   S    
C75   H15   S    
N7    N8    A    
C148  C152  A    
C76   H16   S    
C137  O13   A    
C59   C79   A    
C173  H79   S    
C5    C45   S    
C33   C37   A    
C166  H56   S    
O15   Zn10  S    
C7    C47   S    
O44   Zn8   S    
C35   C39   A    
O59   C171  S    
C8    C48   S    
C57   C77   A    
C162  H44   S    
C42   H38   S    
C162  H46   S    
C17   O65   S    
O5    Zn10  S    
C173  H78   S    
C19   O67   S    
C130  O46   A    
C52   H4    S    
C140  O16   A    
C5    C157  A    
O74   C186  S    
C31   C35   A    
C46   O26   A    
C8    C160  A    
C32   C36   A    
C104  C108  A    
C179  H96   S    
C180  H98   S    
C145  H29   S    
C132  O8    A    
C161  H42   S    
C83   N15   A    
C182  H104  S    
C181  H101  S    
C156  C160  A    
C13   C17   A    
C79   C135  S    
C106  C126  A    
C80   C136  S    
C73   H13   S    
O6    Zn9   S    
C184  H111  S    
C70   H10   S    
C170  H68   S    
C156  F12   S    
C66   C81   S    
C47   O27   A    
C43   C51   A    
C65   C69   A    
C90   O30   A    
C21   O69   S    
C91   C115  S    
C67   C71   A    
C153  C157  A    
O42   Zn6   S    
C10   N1    A    
O27   Zn7   S    
C177  H91   S    
C122  F6    S    
C58   C78   A    
C88   C112  A    
C108  C112  A    
C3    O3    A    
C74   C78   A    
C86   H22   S    
C1    O1    A    
C31   C55   A    
C32   C56   A    
C145  C149  A    
C17   C21   A    
N11   N15   A    
N3    N4    A    
C98   O54   S    
N1    N2    A    
C96   H28   S    
C153  F9    S    
C144  C148  A    
O68   C180  S    
C181  H103  S    
C175  H84   S    
N5    N6    A    
O64   C176  S    
C143  C147  A    
C165  H55   S    
C60   H8    S    
C12   N8    A    
O47   Zn11  S    
C163  H47   S    
C171  H72   S    
C38   C42   A    
C176  H87   S    
O17   Zn5   S    
O50   C162  S    
O45   Zn9   S    
C117  C121  A    
C127  C132  S    
C86   C94   A    
C82   N14   A    
C125  C130  S    
N12   N16   A    
C102  C106  A    
C23   C27   A    
C123  F7    S    
C185  H114  S    
C167  H60   S    
C16   C20   A    
C180  H100  S    
C46   O22   A    
C67   C84   S    
C63   O51   S    
C12   C151  S    
C77   C133  S    
C15   C35   A    
C70   C74   A    
C178  H93   S    
C101  C105  A    
C63   C67   A    
O23   Zn3   S    
C20   C24   A    
C36   C40   A    
C134  O38   A    
C185  H115  S    
C129  O5    A    
O35   Zn7   S    
O36   Zn8   S    
C39   C43   A    
O55   C167  S    
C15   O63   S    
O49   C161  S    
N10   N14   A    
C166  H57   S    
C122  C126  A    
C92   C116  S    
C5    C141  A    
C186  H116  S    
C143  F3    S    
C186  H118  S    
C144  F4    S    
C114  C118  A    
C164  H52   S    
C97   O53   S    
O34   Zn6   S    
O4    Zn4   S    
C45   O25   A    
O65   C177  S    
C106  C110  A    
C22   O70   S    
C165  H53   S    
C6    C46   S    
C34   C38   A    
O16   Zn9   S    
C136  O40   A    
C163  H49   S    
C121  F5    S    
C170  H70   S    
C111  C115  A    
O32   Zn4   S    
C109  C113  A    
O1    Zn1   S    
C141  F1    S    
C9    N5    A    
C71   C75   A    
C182  H105  S    
C54   C138  S    
C29   C53   A    
C134  O42   A    
C14   O62   S    
C103  O59   S    
C102  O58   S    
O26   Zn6   S    
C168  H62   S    
C25   O73   S    
C8    C144  A    
C120  C124  A    
C11   C152  S    
C174  H82   S    
C13   C33   A    
C150  C154  A    
C146  H30   S    
C43   H39   S    
C97   C101  A    
C52   C56   A    
