data_mof_unit_19027.cif
_audit_creation_date              2012-12-10T19:10:36-0500
_audit_creation_method            fapswitch 2.2
_symmetry_space_group_name_H-M    P1
_symmetry_Int_Tables_number       1
_space_group_crystal_system       triclinic
_cell_length_a                    10.845134
_cell_length_b                    10.014405
_cell_length_c                    15.667497
_cell_angle_alpha                 89.521662
_cell_angle_beta                  91.097106
_cell_angle_gamma                 90.925195
_cell_volume                      1701.01994128

loop_
_atom_site_label
_atom_site_type_symbol
_atom_type_description
_atom_site_fract_x
_atom_site_fract_y
_atom_site_fract_z
_atom_type_partial_charge
C1    C     C_R   0.257890 0.499098 0.497950 0.814134
C2    C     C_3   0.607772 0.507974 0.952331 -0.479699
C3    C     C_3   0.608694 0.500706 0.050050 -0.474438
C4    C     C_1   0.482019 0.497349 0.824435 -0.017624
C5    C     C_1   0.484086 0.502391 0.174843 -0.008142
C6    C     C_1   0.492218 0.501923 0.250191 -0.110831
C7    C     C_3   0.069321 0.643897 0.482254 -0.118677
C8    C     C_3   0.068617 0.453513 0.585970 -0.120858
C9    C     C_3   0.930061 0.648446 0.499733 -0.078990
C10   C     C_3   0.927885 0.425152 0.578966 -0.101502
C11   C     C_3   0.064284 0.404695 0.419645 0.277409
C12   C     C_3   0.119557 0.496781 0.494806 -0.047482
C13   C     C_3   0.876591 0.500919 0.497515 0.003619
C14   C     C_R   0.499562 0.500566 0.339044 0.864144
C15   C     C_3   0.920345 0.432700 0.410273 0.126733
C16   C     C_3   0.395129 0.080330 0.550137 0.279201
C17   C     C_3   0.386142 0.917790 0.540526 0.229852
C18   C     C_3   0.501549 0.080519 0.408467 -0.237531
C19   C     C_3   0.510329 0.921501 0.408992 -0.213472
C20   C     C_3   0.617353 0.079889 0.538449 -0.037904
C21   C     C_3   0.612642 0.918646 0.542732 0.018672
C22   C     C_R   0.740892 0.500845 0.498861 0.827720
C23   C     C_R   0.499363 0.499484 0.660862 0.879292
C24   C     C_3   0.411594 0.630869 0.048001 -0.144794
C25   C     C_3   0.407327 0.371487 0.052304 -0.101512
C26   C     C_3   0.412806 0.360245 0.950828 -0.063038
C27   C     C_3   0.400387 0.625570 0.947066 -0.075793
C28   C     C_1   0.491036 0.498141 0.749382 -0.124385
C29   C     C_3   0.475085 0.501615 0.083012 0.236173
C30   C     C_3   0.472637 0.497480 0.916336 0.097939
H1    H     H_    0.882874 0.709809 0.449520 0.172817
H2    H     H_    0.908046 0.316864 0.572381 0.123258
H3    H     H_    0.696253 0.106160 0.496807 0.093339
H4    H     H_    0.694800 0.885559 0.507144 0.107062
H5    H     H_    0.590031 0.116114 0.380145 0.169271
H6    H     H_    0.604368 0.899041 0.385626 0.148072
H7    H     H_    0.458685 0.288113 0.082980 0.237183
H8    H     H_    0.474725 0.715354 0.066874 0.203046
H9    H     H_    0.663253 0.586876 0.076116 0.190438
H10   H     H_    0.656115 0.408259 0.071812 0.216798
H11   H     H_    0.653772 0.602579 0.931873 0.180327
H12   H     H_    0.666023 0.427179 0.927319 0.205216
H13   H     H_    0.116421 0.705972 0.531132 0.179720
H14   H     H_    0.082606 0.541419 0.628459 0.218171
N1    N     N_3   0.499750 0.138610 0.498180 -0.097809
N2    N     N_3   0.499750 0.861390 0.498180 -0.091385
O1    O     O_R   0.314910 0.616040 0.499980 -0.639287
O2    O     O_R   0.314910 0.383960 0.499980 -0.583089
O3    O     O_R   0.500120 0.616090 0.377110 -0.638717
O4    O     O_R   0.500120 0.383910 0.377110 -0.586889
O5    O     O_R   0.685320 0.616040 0.499960 -0.629942
O6    O     O_R   0.685320 0.383960 0.499960 -0.669076
O7    O     O_R   0.500110 0.615990 0.622830 -0.592967
O8    O     O_R   0.500110 0.384010 0.622830 -0.603852
Zn1   Zn    Zn3+2 0.500150 0.654960 0.499960 0.928086
Zn2   Zn    Zn3+2 0.500150 0.345040 0.499960 0.937936
C31   C     C_2   0.266823 0.620966 0.914005 0.524108
H15   H     H_    0.193167 0.581252 0.952859 0.063335
O9    O     O_2   0.240541 0.656407 0.841109 -0.559265
C32   C     C_2   0.287208 0.323948 0.910400 0.289575
H16   H     H_    0.225112 0.255573 0.942922 0.097187
O10   O     O_2   0.258418 0.358634 0.837913 -0.557320
N3    N     N_3   0.127777 0.427255 0.337611 -0.456607
H17   H     H_    0.221998 0.408295 0.343863 0.191738
H18   H     H_    0.117406 0.520618 0.309496 0.209696
N4    N     N_3   0.084828 0.263520 0.440579 -0.457424
H19   H     H_    0.027552 0.224399 0.486936 0.149722
H20   H     H_    0.069688 0.204737 0.386280 0.200786
N5    N     N_3   0.896825 0.526369 0.338495 -0.444660
H21   H     H_    0.908669 0.477368 0.280535 0.210134
H22   H     H_    0.804457 0.554910 0.337929 0.159851
N6    N     N_3   0.853754 0.306402 0.389375 -0.478207
H23   H     H_    0.840241 0.246432 0.443019 0.171918
H24   H     H_    0.767437 0.324651 0.361076 0.212830
N7    N     N_3   0.279395 0.140761 0.523684 -0.405628
H25   H     H_    0.260533 0.132571 0.460016 0.172158
H26   H     H_    0.206219 0.098029 0.556885 0.129376
N8    N     N_3   0.275600 0.878717 0.490136 -0.463684
H27   H     H_    0.196473 0.896765 0.524654 0.144802
H28   H     H_    0.265226 0.931673 0.433452 0.114107
N9    N     N_3   0.411622 0.123939 0.640317 -0.372612
H29   H     H_    0.460132 0.059021 0.679573 0.191047
H30   H     H_    0.327617 0.136207 0.670876 0.181122
N10   N     N_3   0.370540 0.855793 0.625585 -0.427899
H31   H     H_    0.300357 0.903900 0.657602 0.149355
H32   H     H_    0.334449 0.759459 0.619512 0.261269
C33   C     C_2   0.408562 0.132058 0.341561 0.572551
H33   H     H_    0.312808 0.101633 0.340190 -0.002233
O11   O     O_2   0.444551 0.190330 0.277654 -0.554813
C34   C     C_2   0.432694 0.855771 0.339080 0.438154
H34   H     H_    0.356176 0.790630 0.352928 0.095147
O12   O     O_2   0.458275 0.873645 0.264174 -0.576152
N11   N     N_3   0.652021 0.137566 0.621570 -0.442814
H35   H     H_    0.668107 0.239103 0.614793 0.248141
H36   H     H_    0.738158 0.101000 0.640399 0.140342
N12   N     N_3   0.632267 0.859287 0.628074 -0.384962
H37   H     H_    0.723555 0.877108 0.647677 0.143239
H38   H     H_    0.579991 0.902552 0.674627 0.213186
N13   N     N_3   0.293170 0.655989 0.088838 -0.473151
H39   H     H_    0.308152 0.670605 0.154218 0.220224
H40   H     H_    0.260442 0.747500 0.065972 0.216793
N14   N     N_3   0.282848 0.362337 0.088013 -0.439543
H41   H     H_    0.220033 0.419764 0.053228 0.193018
H42   H     H_    0.252066 0.262842 0.087184 0.198439
C35   C     C_2   0.493017 0.243739 0.923640 0.401928
H43   H     H_    0.505021 0.225868 0.856013 0.094289
O13   O     O_2   0.544219 0.169148 0.974661 -0.550049
C36   C     C_2   0.456956 0.755088 0.911327 0.437672
H44   H     H_    0.526835 0.753432 0.862738 0.064486
O14   O     O_2   0.420588 0.863558 0.934548 -0.541738
N15   N     N_3   0.092025 0.702961 0.398066 -0.459408
H45   H     H_    0.070325 0.804320 0.399153 0.179396
H46   H     H_    0.184915 0.697278 0.384311 0.199561
N16   N     N_3   0.130739 0.346168 0.633252 -0.430648
H47   H     H_    0.104176 0.251604 0.613054 0.192693
H48   H     H_    0.226112 0.359799 0.637753 0.249907
N17   N     N_3   0.913191 0.714820 0.582110 -0.455766
H49   H     H_    0.926817 0.817677 0.573365 0.151165
H50   H     H_    0.823727 0.701036 0.603355 0.242715
N18   N     N_3   0.869386 0.466651 0.658293 -0.440898
H51   H     H_    0.911765 0.416895 0.709690 0.221938
H52   H     H_    0.777561 0.433701 0.658192 0.160442

loop_
_geom_bond_atom_site_label_1
_geom_bond_atom_site_label_2
_ccdc_geom_bond_type
N4    H20   S    
C20   N11   S    
N3    H18   S    
N11   H35   S    
C24   N13   S    
C9    N17   S    
N15   H45   S    
C24   C27   S    
O2    Zn2   S    
C33   H33   S    
N16   H47   S    
C31   H15   S    
C19   N2    S    
C15   N6    S    
C35   O13   D    
O1    Zn1   S    
N10   H32   S    
C11   N3    S    
C19   H6    S    
N17   H50   S    
C5    C6    T    
N8    H28   S    
C25   N14   S    
C31   O9    D    
C14   O3    A    
C2    H11   S    
C16   N7    S    
C36   H44   S    
C32   O10   D    
C18   C19   S    
C3    C29   S    
C9    C13   S    
C24   C29   S    
C17   N8    S    
C4    C28   T    
C11   C15   S    
N1    Zn2   S    
C7    N15   S    
C16   C17   S    
N12   H38   S    
N2    Zn1   S    
C24   H8    S    
C7    H13   S    
C18   H5    S    
C20   N1    S    
C11   N4    S    
C8    N16   S    
C25   H7    S    
N4    H19   S    
C3    H9    S    
N11   H36   S    
C27   C30   S    
N14   H41   S    
C1    C12   S    
C26   C35   S    
N9    H30   S    
N18   H52   S    
C23   O7    A    
C5    C29   S    
O7    Zn1   S    
C25   C29   S    
C7    C12   S    
C15   N5    S    
O8    Zn2   S    
N5    H22   S    
C17   N2    S    
N6    H24   S    
C27   C31   S    
N8    H27   S    
C1    O1    A    
C21   H4    S    
C25   C26   S    
O3    Zn1   S    
N9    H29   S    
C32   H16   S    
N7    H25   S    
C6    C14   S    
C34   O12   D    
N13   H39   S    
C8    C12   S    
N12   H37   S    
N15   H46   S    
C23   C28   S    
N10   H31   S    
N14   H42   S    
N7    H26   S    
C20   H3    S    
N13   H40   S    
C3    H10   S    
C26   C30   S    
C13   C15   S    
C18   N1    S    
N18   H51   S    
C23   O8    A    
C22   O6    A    
C21   N2    S    
C7    C9    S    
C8    H14   S    
N6    H23   S    
C10   C13   S    
C16   N1    S    
N16   H48   S    
C11   C12   S    
C1    O2    A    
C21   N12   S    
C35   H43   S    
C18   C33   S    
C2    C30   S    
C17   N10   S    
C33   O11   D    
C2    C3    S    
C19   C34   S    
N17   H49   S    
C34   H34   S    
C14   O4    A    
C27   C36   S    
C2    H12   S    
C16   N9    S    
C36   O14   D    
C13   C22   S    
O5    Zn1   S    
N5    H21   S    
O4    Zn2   S    
C10   N18   S    
C9    H1    S    
N3    H17   S    
C10   H2    S    
C20   C21   S    
C8    C10   S    
C26   C32   S    
C4    C30   S    
O6    Zn2   S    
C22   O5    A    
