data_mof_unit_58805.cif
_audit_creation_date              2013-03-05T15:51:59-0500
_audit_creation_method            fapswitch 2.2
_symmetry_space_group_name_H-M    P1
_symmetry_Int_Tables_number       1
_space_group_crystal_system       triclinic
_cell_length_a                    18.915113
_cell_length_b                    11.041659
_cell_length_c                    18.723651
_cell_angle_alpha                 90.3431
_cell_angle_beta                  91.441509
_cell_angle_gamma                 90.692907
_cell_volume                      3908.9127812

loop_
_atom_site_label
_atom_site_type_symbol
_atom_site_description
_atom_site_fract_x
_atom_site_fract_y
_atom_site_fract_z
_atom_type_partial_charge
O1    O     O_R   0.214300 0.709080 0.827500 -0.528786
O2    O     O_R   0.785700 0.709080 0.172500 -0.527415
O3    O     O_R   0.714300 0.209080 0.827500 -0.527361
O4    O     O_R   0.285700 0.209080 0.172500 -0.525793
O5    O     O_R   0.236190 0.958390 0.823150 -0.494263
O6    O     O_R   0.763810 0.958390 0.176850 -0.501930
O7    O     O_R   0.736190 0.458390 0.823150 -0.494233
O8    O     O_R   0.263810 0.458390 0.176850 -0.503567
C1    C     C_R   0.291068 0.997755 0.861129 0.540765
C2    C     C_R   0.723631 0.034835 0.143581 0.537709
C3    C     C_R   0.791146 0.497734 0.861112 0.542801
C4    C     C_R   0.227145 0.542503 0.146277 0.530362
O9    O     O_R   0.332090 0.075280 0.831290 -0.533618
O10   O     O_R   0.667910 0.075280 0.168710 -0.543527
O11   O     O_R   0.832090 0.575280 0.831290 -0.533636
O12   O     O_R   0.167910 0.575280 0.168710 -0.527155
O13   O     O_R   0.446280 0.918040 0.826620 -0.536746
O14   O     O_R   0.553720 0.918040 0.173380 -0.518118
O15   O     O_R   0.946280 0.418040 0.826620 -0.536819
O16   O     O_R   0.053720 0.418040 0.173380 -0.484394
C5    C     C_R   0.469021 0.821612 0.856112 0.536975
C6    C     C_R   0.530242 0.820386 0.144414 0.546856
C7    C     C_R   0.969653 0.322256 0.855854 0.537380
C8    C     C_R   0.030359 0.320674 0.144375 0.553198
O17   O     O_R   0.457080 0.716270 0.831760 -0.514554
O18   O     O_R   0.542920 0.716270 0.168240 -0.520936
O19   O     O_R   0.957080 0.216270 0.831760 -0.513313
O20   O     O_R   0.042920 0.216270 0.168240 -0.526919
O21   O     O_R   0.320980 0.624440 0.823040 -0.490299
O22   O     O_R   0.679020 0.624440 0.176960 -0.497424
O23   O     O_R   0.820980 0.124440 0.823040 -0.492072
O24   O     O_R   0.179020 0.124440 0.176960 -0.501709
C9    C     C_R   0.260780 0.637295 0.851781 0.546390
C10   C     C_R   0.740296 0.633461 0.149289 0.544928
C11   C     C_R   0.760560 0.135949 0.850769 0.549352
C12   C     C_R   0.240250 0.133351 0.149330 0.541895
O25   O     O_R   0.213880 0.710510 0.665560 -0.509946
O26   O     O_R   0.786120 0.710510 0.334440 -0.491168
O27   O     O_R   0.713880 0.210510 0.665560 -0.508840
O28   O     O_R   0.286120 0.210510 0.334440 -0.489421
O29   O     O_R   0.235800 0.959720 0.673040 -0.526666
O30   O     O_R   0.764200 0.959720 0.326960 -0.512578
O31   O     O_R   0.735800 0.459720 0.673040 -0.526244
O32   O     O_R   0.264200 0.459720 0.326960 -0.513686
C13   C     C_R   0.269517 0.047565 0.647533 0.550223
C14   C     C_R   0.729708 0.049777 0.352502 0.539827
C15   C     C_R   0.769442 0.547821 0.647660 0.549154
C16   C     C_R   0.229756 0.549783 0.352349 0.534838
O33   O     O_R   0.331670 0.076720 0.669350 -0.501296
O34   O     O_R   0.668330 0.076720 0.330650 -0.515573
O35   O     O_R   0.831670 0.576720 0.669350 -0.498231
O36   O     O_R   0.168330 0.576720 0.330650 -0.523483
O37   O     O_R   0.445900 0.919370 0.676500 -0.444020
O38   O     O_R   0.554100 0.919370 0.323500 -0.469649
O39   O     O_R   0.945900 0.419370 0.676500 -0.451549
O40   O     O_R   0.054100 0.419370 0.323500 -0.475262
C17   C     C_R   0.468774 0.825051 0.646116 0.561407
C18   C     C_R   0.528824 0.822936 0.351981 0.579466
C19   C     C_R   0.969954 0.325246 0.647004 0.550968
C20   C     C_R   0.030482 0.322711 0.353049 0.596174
O41   O     O_R   0.456660 0.717710 0.669820 -0.534226
O42   O     O_R   0.543340 0.717710 0.330180 -0.532437
O43   O     O_R   0.956660 0.217710 0.669820 -0.540558
O44   O     O_R   0.043340 0.217710 0.330180 -0.528558
O45   O     O_R   0.320590 0.625770 0.672930 -0.507891
O46   O     O_R   0.679410 0.625770 0.327070 -0.520734
O47   O     O_R   0.820590 0.125770 0.672930 -0.507118
O48   O     O_R   0.179410 0.125770 0.327070 -0.517905
C21   C     C_R   0.274717 0.690422 0.637201 0.562361
C22   C     C_R   0.739811 0.639749 0.357478 0.575630
C23   C     C_R   0.775132 0.192198 0.637381 0.562604
C24   C     C_R   0.239887 0.139463 0.357320 0.573066
Cr1   Cr    Cr6+3 0.229640 0.835880 0.747370 1.017327
Cr2   Cr    Cr6+3 0.770360 0.835880 0.252630 1.029567
Cr3   Cr    Cr6+3 0.729640 0.335880 0.747370 1.019568
Cr4   Cr    Cr6+3 0.270360 0.335880 0.252630 1.031149
Cr5   Cr    Cr6+3 0.387390 0.989720 0.750850 1.049560
Cr6   Cr    Cr6+3 0.612610 0.989720 0.249150 1.038643
Cr7   Cr    Cr6+3 0.887390 0.489720 0.750850 1.048992
Cr8   Cr    Cr6+3 0.112610 0.489720 0.249150 1.051047
Cr9   Cr    Cr6+3 0.385770 0.677220 0.749340 1.014116
Cr10  Cr    Cr6+3 0.614230 0.677220 0.250660 1.016931
Cr11  Cr    Cr6+3 0.885770 0.177220 0.749340 1.011720
Cr12  Cr    Cr6+3 0.114230 0.177220 0.250660 1.014605
O49   O     O_3   0.334270 0.834280 0.749190 -0.303035
O50   O     O_3   0.665730 0.834280 0.250810 -0.266479
O51   O     O_3   0.834270 0.334280 0.749190 -0.302599
O52   O     O_3   0.165730 0.334280 0.250810 -0.265521
C25   C     C_3   0.473571 0.925908 0.030183 -0.126905
C26   C     C_3   0.530766 0.922883 0.972294 -0.131821
C27   C     C_3   0.975651 0.429631 0.030264 -0.100113
C28   C     C_3   0.033132 0.425853 0.972660 -0.103042
C29   C     C_3   0.429174 0.829355 0.988221 -0.118219
C30   C     C_3   0.569094 0.820542 0.012685 -0.130605
C31   C     C_3   0.930638 0.334393 0.987652 -0.129052
C32   C     C_3   0.070123 0.322185 0.013025 -0.119110
H1    H     H_    0.371490 0.829400 0.976331 0.109259
H2    H     H_    0.626853 0.817365 0.024714 0.104889
H3    H     H_    0.873030 0.335011 0.975599 0.112958
H4    H     H_    0.127839 0.318974 0.025298 0.108253
H5    H     H_    0.456272 0.005550 0.060868 0.144123
H6    H     H_    0.554161 0.000541 0.943976 0.133866
H7    H     H_    0.958831 0.509908 0.060766 0.166299
H8    H     H_    0.059454 0.504934 0.947997 0.151528
C33   C     C_3   0.487084 0.826814 0.931939 0.046542
C34   C     C_3   0.511149 0.823916 0.068984 0.043664
C35   C     C_3   0.988767 0.330362 0.931558 0.034897
C36   C     C_3   0.011857 0.325983 0.068903 0.051419
C37   C     C_3   0.524563 0.724209 0.971129 -0.116008
C38   C     C_3   0.467479 0.727177 0.028435 -0.105845
C39   C     C_3   0.024994 0.226982 0.970894 -0.128599
C40   C     C_3   0.967634 0.231004 0.027763 -0.115099
H9    H     H_    0.541623 0.641650 0.943296 0.125377
H10   H     H_    0.442602 0.647317 0.053642 0.128923
H11   H     H_    0.040597 0.143782 0.942863 0.128074
H12   H     H_    0.941579 0.151999 0.052602 0.128286
C41   C     C_R   0.244424 0.588542 0.075499 -0.017144
C42   C     C_R   0.784013 0.515916 0.938683 -0.031637
C43   C     C_R   0.734881 0.069068 0.069937 -0.005117
C44   C     C_R   0.283538 0.015808 0.938668 -0.028246
C45   C     C_R   0.304001 0.548236 0.039787 -0.037444
C46   C     C_R   0.726817 0.463649 0.974287 0.005374
C47   C     C_R   0.799670 0.047162 0.038365 -0.033531
C48   C     C_R   0.224728 0.967077 0.973344 0.003115
C49   C     C_R   0.309036 0.558792 0.966250 -0.010268
C50   C     C_R   0.714266 0.490981 0.045456 0.009851
C51   C     C_R   0.807874 0.061608 0.965626 -0.009402
C52   C     C_R   0.212152 0.994285 0.044697 -0.012390
C53   C     C_R   0.193211 0.645220 0.960488 -0.137739
C54   C     C_R   0.824331 0.599579 0.053522 -0.144311
C55   C     C_R   0.686033 0.118628 0.952895 -0.139096
C56   C     C_R   0.324168 0.097173 0.053918 -0.140907
C57   C     C_R   0.191464 0.649918 0.034472 -0.010548
C58   C     C_R   0.836108 0.580659 0.980871 -0.042646
C59   C     C_R   0.677542 0.112780 0.025918 -0.017629
C60   C     C_R   0.335905 0.078782 0.981246 -0.039531
C61   C     C_3   0.339708 0.428679 0.040667 -0.217936
C62   C     C_3   0.649904 0.468335 0.955197 -0.237454
C63   C     C_3   0.843693 0.936146 0.040426 -0.220608
C64   C     C_3   0.148571 0.981827 0.953120 -0.248108
C65   C     C_3   0.345967 0.440927 0.960438 -0.218475
C66   C     C_3   0.636759 0.498673 0.033109 -0.250726
C67   C     C_3   0.853226 0.952554 0.960949 -0.217058
C68   C     C_3   0.135547 0.012970 0.030676 -0.266518
C69   C     C_R   0.251587 0.599082 0.925150 -0.015237
C70   C     C_R   0.759833 0.567683 0.084411 -0.011574
C71   C     C_R   0.750040 0.090847 0.921801 -0.010690
C72   C     C_R   0.259322 0.067074 0.084480 -0.013452
H13   H     H_    0.149727 0.684683 0.930350 0.174415
H14   H     H_    0.863817 0.650463 0.084490 0.186464
H15   H     H_    0.641598 0.146917 0.919529 0.171784
H16   H     H_    0.363965 0.146869 0.085170 0.183322
H17   H     H_    0.812267 0.853900 0.053209 0.168740
H18   H     H_    0.122958 0.895435 0.935447 0.175570
H19   H     H_    0.303630 0.353522 0.055720 0.168973
H20   H     H_    0.628491 0.378698 0.937800 0.201351
H21   H     H_    0.391564 0.432040 0.069906 0.165278
H22   H     H_    0.638479 0.543126 0.917488 0.136057
H23   H     H_    0.893425 0.948914 0.072574 0.158056
H24   H     H_    0.141081 0.058401 0.915636 0.142289
H25   H     H_    0.401416 0.453453 0.943277 0.182676
H26   H     H_    0.617826 0.591490 0.042572 0.143785
H27   H     H_    0.908432 0.976601 0.947040 0.171779
H28   H     H_    0.121873 0.107947 0.040703 0.150871
H29   H     H_    0.314531 0.371816 0.929493 0.156455
H30   H     H_    0.607861 0.427815 0.062534 0.207182
H31   H     H_    0.828265 0.878975 0.927818 0.164858
H32   H     H_    0.101025 0.947612 0.058125 0.175400
C73   C     C_R   0.495002 0.828286 0.421100 0.030824
C74   C     C_R   0.489472 0.837867 0.571605 0.017441
C75   C     C_R   0.009948 0.328660 0.427157 0.024052
C76   C     C_R   0.001824 0.343365 0.577254 0.015746
C77   C     C_R   0.496181 0.723661 0.462537 -0.006507
C78   C     C_R   0.494133 0.729514 0.534944 -0.016270
C79   C     C_R   0.039761 0.241693 0.472251 0.004434
C80   C     C_R   0.036830 0.248518 0.544937 -0.009869
C81   C     C_R   0.478559 0.945917 0.530422 -0.049000
C82   C     C_R   0.476747 0.938575 0.454154 -0.057086
C83   C     C_R   0.983403 0.445691 0.533643 -0.050532
C84   C     C_R   0.983330 0.434831 0.458011 -0.064130
C85   C     C_3   0.546068 0.619308 0.466088 -0.255316
C86   C     C_3   0.542572 0.626302 0.546616 -0.274262
C87   C     C_3   0.034526 0.106723 0.471526 -0.259896
C88   C     C_3   0.035157 0.113472 0.552545 -0.267977
H33   H     H_    0.081520 0.063848 0.449243 0.161937
H34   H     H_    0.987022 0.074063 0.575770 0.156544
H35   H     H_    0.598645 0.645115 0.446214 0.174661
H36   H     H_    0.515500 0.546728 0.570276 0.148558
H37   H     H_    0.522365 0.534621 0.443083 0.135858
H38   H     H_    0.593156 0.654786 0.573486 0.149833
H39   H     H_    0.983555 0.072877 0.448082 0.129503
H40   H     H_    0.084693 0.080018 0.577883 0.149202
C89   C     C_R   0.252970 0.615974 0.416034 0.020205
C90   C     C_R   0.742711 0.589289 0.579816 0.011289
C91   C     C_R   0.752856 0.116961 0.416095 0.021677
C92   C     C_R   0.243108 0.087826 0.579338 0.019103
C93   C     C_R   0.201353 0.679249 0.452727 0.023283
C94   C     C_R   0.761365 0.699883 0.550927 -0.007491
C95   C     C_R   0.701162 0.179990 0.452713 0.027586
C96   C     C_R   0.260196 0.199337 0.550806 0.004881
C97   C     C_R   0.210248 0.704640 0.523535 -0.010732
C98   C     C_R   0.763952 0.709878 0.478596 0.015882
C99   C     C_R   0.710474 0.207336 0.523324 -0.009337
C100  C     C_R   0.262670 0.209857 0.478364 0.027612
C101  C     C_R   0.329120 0.630650 0.521581 -0.163674
C102  C     C_R   0.710561 0.514016 0.460817 -0.172600
C103  C     C_R   0.830719 0.142081 0.520047 -0.163595
C104  C     C_R   0.212765 0.011607 0.460158 -0.171701
C105  C     C_R   0.320505 0.605475 0.448125 -0.167648
C106  C     C_R   0.707597 0.503594 0.534793 -0.167700
C107  C     C_R   0.821012 0.111276 0.447246 -0.165890
C108  C     C_R   0.210005 0.000520 0.534026 -0.171499
C109  C     C_3   0.124078 0.651501 0.461167 -0.260483
C110  C     C_3   0.817759 0.793953 0.563603 -0.281386
C111  C     C_3   0.624328 0.150648 0.461846 -0.265661
C112  C     C_3   0.317282 0.291845 0.563604 -0.284152
C113  C     C_3   0.134572 0.678603 0.539539 -0.239010
C114  C     C_3   0.822458 0.800826 0.482456 -0.264494
C115  C     C_3   0.635420 0.178691 0.540007 -0.241747
C116  C     C_3   0.322157 0.298598 0.482573 -0.268246
C117  C     C_R   0.271555 0.672876 0.560567 0.008210
C118  C     C_R   0.745030 0.614409 0.432239 0.037578
C119  C     C_R   0.772551 0.178797 0.560074 0.006792
C120  C     C_R   0.245237 0.113860 0.431956 0.046941
H41   H     H_    0.377822 0.606714 0.548850 0.149843
H42   H     H_    0.686446 0.444895 0.426545 0.134024
H43   H     H_    0.881087 0.128034 0.546054 0.134804
H44   H     H_    0.190314 0.941232 0.425668 0.126234
H45   H     H_    0.362998 0.563152 0.419801 0.128178
H46   H     H_    0.682996 0.424440 0.556697 0.148440
H47   H     H_    0.863583 0.070629 0.418426 0.119071
H48   H     H_    0.186735 0.920298 0.555828 0.144414
H49   H     H_    0.110557 0.554773 0.450702 0.159004
H50   H     H_    0.866219 0.761493 0.591287 0.178629
H51   H     H_    0.611114 0.053597 0.451756 0.155256
H52   H     H_    0.365047 0.257584 0.591598 0.169173
H53   H     H_    0.089778 0.718016 0.433064 0.132079
H54   H     H_    0.796109 0.877864 0.587313 0.157051
H55   H     H_    0.589720 0.216722 0.433805 0.131152
H56   H     H_    0.296303 0.376198 0.587403 0.156892
H57   H     H_    0.105525 0.759950 0.557097 0.158943
H58   H     H_    0.804493 0.887116 0.460153 0.161050
H59   H     H_    0.605488 0.258864 0.557866 0.156164
H60   H     H_    0.304746 0.384698 0.460027 0.162015
H61   H     H_    0.127889 0.597003 0.573392 0.195577
H62   H     H_    0.872766 0.766331 0.461492 0.134412
H63   H     H_    0.630800 0.096814 0.573936 0.203293
H64   H     H_    0.371944 0.262577 0.461262 0.134720
C121  C     C_2   0.469860 0.066436 0.564315 0.229554
H65   H     H_    0.434277 0.130327 0.540133 0.081165
O53   O     O_2   0.504742 0.097682 0.617121 -0.510386
C122  C     C_2   0.457996 0.045159 0.409425 0.225087
H66   H     H_    0.470268 0.136472 0.427456 0.069174
O54   O     O_2   0.427058 0.031500 0.351850 -0.485548
C123  C     C_2   0.957879 0.560352 0.564187 0.235062
H67   H     H_    0.910241 0.599282 0.541942 0.097733
O55   O     O_2   0.990989 0.613308 0.611949 -0.511776
C124  C     C_2   0.954033 0.532883 0.412022 0.221945
H68   H     H_    0.960755 0.626997 0.427723 0.078481
O56   O     O_2   0.920851 0.508935 0.356842 -0.488294
C125  C     C_2   0.131969 0.716436 0.066020 0.242205
H69   H     H_    0.139829 0.765504 0.116048 0.126055
O57   O     O_2   0.073699 0.717334 0.036500 -0.504742
C126  C     C_2   0.902547 0.633694 0.952214 0.223382
H70   H     H_    0.928523 0.593727 0.907414 0.169067
O58   O     O_2   0.931660 0.720813 0.981182 -0.507531
C127  C     C_2   0.605370 0.144019 0.050170 0.220885
H71   H     H_    0.578101 0.091655 0.089503 0.174592
O59   O     O_2   0.572414 0.225467 0.021683 -0.523702
C128  C     C_2   0.402311 0.131780 0.952734 0.223948
H72   H     H_    0.428378 0.091970 0.907961 0.170248
O60   O     O_2   0.431100 0.219136 0.981684 -0.509227

loop_
_geom_bond_atom_site_label_1
_geom_bond_atom_site_label_2
_geom_bond_distance
_ccdc_geom_bond_type
C18   O42   1.264761 A    
Cr11  O51   1.999291 S    
O4    C12   1.259354 A    
O47   Cr11  1.942716 S    
C49   C69   1.394492 A    
O39   C19   1.268596 A    
C16   C89   1.450622 S    
O20   Cr12  2.074621 S    
C127  O59   1.218377 D    
C98   C118  1.398919 A    
C15   C90   1.434987 S    
O15   C7    1.272664 A    
C39   C40   1.540014 S    
C38   H10   1.108081 S    
C97   C117  1.385936 A    
C92   C96   1.383051 A    
C41   C57   1.427160 A    
C62   H22   1.109417 S    
C78   C86   1.484636 S    
C123  O55   1.220894 D    
C50   C70   1.391214 A    
O1    C9    1.268445 A    
C14   C91   1.454354 S    
C54   C58   1.398789 A    
C77   C78   1.358418 A    
C57   C125  1.484259 S    
C116  H60   1.093559 S    
C30   C37   1.543292 S    
C121  H65   1.075018 S    
C107  H47   1.081073 S    
C68   H32   1.105112 S    
C95   C111  1.499389 S    
O24   C12   1.283227 A    
C79   C87   1.492335 S    
C110  H54   1.112033 S    
C113  H61   1.112500 S    
C39   H11   1.102306 S    
C55   C59   1.382472 A    
C31   C40   1.536260 S    
C87   H33   1.102179 S    
O26   Cr2   2.088992 S    
C125  H69   1.085375 S    
C108  H48   1.071886 S    
C31   H3    1.107335 S    
C56   C60   1.398211 A    
C40   H12   1.107313 S    
C54   C70   1.405158 A    
C63   H17   1.109968 S    
C62   H20   1.108850 S    
C105  H45   1.083152 S    
C24   C120  1.428756 S    
C47   C63   1.490341 S    
O8    Cr4   1.968907 S    
C128  O60   1.219383 D    
O23   Cr11  1.955290 S    
C61   H19   1.110214 S    
C80   C88   1.498800 S    
O30   C14   1.291834 A    
C23   C119  1.453683 S    
C45   C61   1.490092 S    
O32   Cr4   1.951793 S    
C1    O9    1.287797 A    
O44   Cr12  2.078867 S    
O7    C3    1.312521 A    
C61   C65   1.516535 S    
C2    C43   1.452071 S    
C29   C33   1.539337 S    
C45   C49   1.388061 A    
C3    O11   1.286909 A    
C12   C72   1.468940 S    
O11   Cr7   2.083553 S    
C4    O12   1.262707 A    
O21   C9    1.280693 A    
C49   C65   1.489189 S    
C126  H70   1.077650 S    
C25   C34   1.518031 S    
C54   H14   1.083447 S    
O47   C23   1.308683 A    
C88   H40   1.107936 S    
C93   C97   1.359336 A    
C8    C36   1.448942 S    
O6    Cr2   1.968907 S    
O27   Cr3   2.071989 S    
O3    Cr3   2.081497 S    
Cr4   O52   1.978390 S    
C53   C69   1.401034 A    
C42   C58   1.429350 A    
C37   H9    1.103001 S    
C29   C38   1.538583 S    
C48   C52   1.394493 A    
C84   C124  1.490755 S    
O2    C10   1.258234 A    
C13   C92   1.434443 S    
O10   Cr6   2.080258 S    
C102  C118  1.395482 A    
C116  H64   1.109202 S    
C77   C85   1.498855 S    
O18   Cr10  2.074621 S    
O27   C23   1.302582 A    
C100  C120  1.397638 A    
C103  C107  1.409878 A    
C82   C122  1.489690 S    
C89   C93   1.399241 A    
C101  C105  1.406589 A    
C110  H50   1.106168 S    
C63   C67   1.515170 S    
C99   C115  1.491866 S    
C95   C99   1.361015 A    
C109  H49   1.110349 S    
C89   C105  1.404319 A    
O34   Cr6   2.058946 S    
Cr7   O51   1.977967 S    
C101  H41   1.078414 S    
C125  O57   1.220703 D    
C86   H38   1.110917 S    
C26   C30   1.541734 S    
C91   C95   1.398200 A    
C28   C32   1.540836 S    
C85   H35   1.105313 S    
C19   C76   1.465893 S    
O24   Cr12  1.959195 S    
C32   C39   1.546101 S    
O9    Cr5   2.083553 S    
C121  O53   1.220444 D    
O30   Cr2   1.951793 S    
O22   C10   1.284429 A    
C74   C81   1.438591 A    
C76   C80   1.389496 A    
O48   Cr12  1.956398 S    
O14   Cr6   1.940522 S    
C64   C68   1.517135 S    
C6    C34   1.449820 S    
C18   C73   1.459196 S    
C111  H51   1.111411 S    
C46   C62   1.490913 S    
O37   C17   1.269505 A    
C128  H72   1.077370 S    
C110  C114  1.526492 S    
C90   C106  1.412145 A    
C85   H37   1.111863 S    
O16   Cr8   1.940522 S    
C103  C119  1.408969 A    
C52   C72   1.392452 A    
O7    Cr3   1.955125 S    
C74   C78   1.380618 A    
C85   C86   1.512445 S    
C75   C79   1.397077 A    
C50   C66   1.481950 S    
C43   C59   1.435620 A    
C36   C40   1.526299 S    
C8    O20   1.261940 A    
O48   C24   1.270599 A    
C44   C60   1.427276 A    
C113  H57   1.110939 S    
C56   C72   1.403611 A    
C46   C50   1.391374 A    
C124  O56   1.221236 D    
C87   C88   1.518100 S    
C59   C127  1.493139 S    
C42   C46   1.404886 A    
O5    C1    1.311620 A    
C9    C69   1.453479 S    
C111  C115  1.503056 S    
C96   C100  1.363953 A    
C66   H30   1.106537 S    
C109  C113  1.503638 S    
C91   C107  1.403795 A    
C102  C106  1.393032 A    
C28   C35   1.531189 S    
C47   C51   1.384567 A    
C79   C80   1.365131 A    
C64   H18   1.109552 S    
C126  O58   1.220103 D    
C13   O33   1.271888 A    
O8    C4    1.293524 A    
C7    C35   1.455964 S    
O36   Cr8   2.058946 S    
O13   Cr5   1.958358 S    
C106  H46   1.073630 S    
C99   C119  1.386501 A    
C115  H59   1.110914 S    
C102  H42   1.083199 S    
C51   C67   1.490297 S    
O29   C13   1.257595 A    
Cr2   O50   1.978390 S    
O15   Cr7   1.958358 S    
C52   C68   1.483180 S    
O35   Cr7   2.079266 S    
Cr1   O49   1.978821 S    
O2    Cr2   2.074118 S    
C31   C35   1.540362 S    
C67   H27   1.111986 S    
C53   C57   1.387150 A    
C94   C98   1.361490 A    
C76   C83   1.439088 A    
C103  H43   1.072381 S    
O26   C22   1.253113 A    
C100  C116  1.483362 S    
O21   Cr9   1.955290 S    
C7    O19   1.269306 A    
C2    O10   1.251194 A    
O37   Cr5   1.962531 S    
C56   H16   1.083580 S    
O25   C21   1.300321 A    
C115  H63   1.111879 S    
C75   C84   1.407951 A    
C43   C47   1.397041 A    
C111  H55   1.111428 S    
O3    C11   1.268711 A    
C123  H67   1.078343 S    
C94   C110  1.493510 S    
C114  H62   1.109242 S    
C73   C82   1.413194 A    
C27   C28   1.551358 S    
C101  C117  1.408547 A    
C93   C109  1.502220 S    
O31   Cr3   1.961472 S    
C122  O54   1.221263 D    
C17   C74   1.465653 S    
O38   C18   1.286104 A    
O25   Cr1   2.071989 S    
Cr3   O51   1.978821 S    
C19   O43   1.288347 A    
C63   H23   1.111012 S    
C5    O17   1.262513 A    
C30   C34   1.540290 S    
C58   C126  1.493325 S    
O22   Cr10  1.959195 S    
O28   C24   1.252985 A    
C25   H5    1.104913 S    
C112  H52   1.104958 S    
O14   C6    1.274088 A    
C20   C75   1.451613 S    
C35   C39   1.522698 S    
C27   C36   1.518583 S    
C48   C64   1.491307 S    
O5    Cr1   1.955125 S    
C112  C116  1.524530 S    
C26   C33   1.522045 S    
C27   H7    1.105880 S    
O17   Cr9   2.063972 S    
C87   H39   1.109008 S    
C66   H26   1.104475 S    
C15   O35   1.271811 A    
C127  H71   1.076920 S    
C17   O41   1.288053 A    
O42   Cr10  2.078867 S    
O39   Cr7   1.962531 S    
C41   C45   1.400550 A    
C104  C120  1.391941 A    
C60   C128  1.491598 S    
C68   H28   1.099355 S    
C14   O34   1.260821 A    
C112  H56   1.111931 S    
C109  H53   1.111842 S    
O40   Cr8   1.958531 S    
C61   H21   1.111319 S    
C81   C121  1.483606 S    
C20   O44   1.262061 A    
O1    Cr1   2.081497 S    
C65   H29   1.112652 S    
C98   C114  1.485452 S    
O19   Cr11  2.063972 S    
C124  H68   1.083398 S    
C25   C26   1.551050 S    
C97   C113  1.494696 S    
C104  H44   1.083227 S    
Cr8   O52   1.999262 S    
O32   C16   1.290329 A    
C26   H6    1.104655 S    
O33   Cr5   2.079266 S    
C64   H24   1.110190 S    
O46   Cr10  1.956398 S    
Cr10  O50   1.978720 S    
C10   C70   1.469076 S    
C73   C77   1.395524 A    
Cr6   O50   1.999262 S    
C90   C94   1.383972 A    
Cr12  O52   1.978720 S    
C33   C37   1.525691 S    
C67   H31   1.112540 S    
Cr5   O49   1.977967 S    
O45   C21   1.304427 A    
C32   H4    1.110988 S    
O23   C11   1.274508 A    
C104  C108  1.391449 A    
C22   C118  1.430331 S    
C29   H1    1.108088 S    
C88   H34   1.104544 S    
C55   H15   1.084680 S    
C62   C66   1.522011 S    
C11   C71   1.440598 S    
C83   C123  1.477503 S    
C114  H58   1.096862 S    
C25   C29   1.547327 S    
C65   H25   1.111914 S    
Cr9   O49   1.999291 S    
O4    Cr4   2.074118 S    
C96   C112  1.491334 S    
O6    C2    1.294629 A    
C28   H8    1.108814 S    
O29   Cr1   1.961472 S    
C83   C84   1.420421 A    
C92   C108  1.410685 A    
O28   Cr4   2.088992 S    
C16   O36   1.260773 A    
O40   C20   1.285585 A    
O46   C22   1.270920 A    
C27   C31   1.549666 S    
C34   C38   1.528758 S    
C81   C82   1.429362 A    
C6    O18   1.259187 A    
O43   Cr11  2.075723 S    
C37   C38   1.541722 S    
C1    C44   1.474938 S    
C30   H2    1.110954 S    
O45   Cr9   1.942716 S    
C32   C36   1.539358 S    
O41   Cr9   2.075723 S    
C55   C71   1.393251 A    
C4    C41   1.465370 S    
C21   C117  1.446382 S    
O12   Cr8   2.080258 S    
C53   H13   1.083089 S    
C86   H36   1.111597 S    
C3    C42   1.474805 S    
O31   C15   1.258109 A    
O16   C8    1.270997 A    
C5    C33   1.452555 S    
C44   C48   1.405181 A    
C51   C71   1.393120 A    
C122  H66   1.082004 S    
O38   Cr6   1.958531 S    
O13   C5    1.276614 A    
