data_mof_unit_46018.cif
_audit_creation_date              2012-12-11T19:47:11-0500
_audit_creation_method            fapswitch 2.2
_symmetry_space_group_name_H-M    P1
_symmetry_Int_Tables_number       1
_space_group_crystal_system       triclinic
_cell_length_a                    8.327084
_cell_length_b                    15.129182
_cell_length_c                    18.652535
_cell_angle_alpha                 101.937869
_cell_angle_beta                  90.750119
_cell_angle_gamma                 98.718244
_cell_volume                      2270.09559621

loop_
_atom_site_label
_atom_site_type_symbol
_atom_type_description
_atom_site_fract_x
_atom_site_fract_y
_atom_site_fract_z
_atom_type_partial_charge
Ba1   Ba    Ba6+2 0.853520 0.540910 0.466490 1.702659
Ba2   Ba    Ba6+2 0.336320 0.459170 0.533520 1.705078
C1    C     C_3   0.764837 0.865919 0.302362 0.157258
C2    C     C_3   0.716919 0.771057 0.320395 0.312632
C3    C     C_3   0.466817 0.312368 0.307450 0.247748
C4    C     C_3   0.464857 0.286536 0.223803 -0.245311
C5    C     C_3   0.068062 0.257507 0.732628 0.608707
C6    C     C_3   0.123523 0.222602 0.801160 0.204766
C7    C     C_3   0.493614 0.230594 0.678478 0.346454
C8    C     C_3   0.490139 0.136052 0.696901 -0.272893
C9    C     C_R   0.990704 0.460248 0.048240 0.029747
C10   C     C_R   0.899570 0.409542 0.093903 -0.072929
C11   C     C_R   0.765656 0.432083 0.953522 -0.097925
C12   C     C_3   0.154532 0.740707 0.269248 0.968315
C13   C     C_R   0.928754 0.466590 0.978038 0.036593
C14   C     C_R   0.709453 0.432645 0.883186 -0.019498
C15   C     C_R   0.813116 0.467163 0.833499 -0.004074
C16   C     C_R   0.973163 0.509898 0.858379 -0.015745
C17   C     C_R   0.030916 0.510827 0.931196 0.023387
C18   C     C_R   0.762022 0.459444 0.759436 -0.020168
C19   C     C_R   0.871756 0.490068 0.710670 -0.281987
C20   C     C_R   0.025674 0.538415 0.734868 0.073002
C21   C     C_R   0.075658 0.551198 0.810227 -0.123868
C22   C     C_R   0.152195 0.501344 0.072270 0.051946
C23   C     C_3   0.173457 0.788988 0.204607 -0.175008
C24   C     C_R   0.212981 0.497630 0.143658 0.030963
C25   C     C_R   0.111655 0.454394 0.191213 -0.036313
C26   C     C_R   0.959390 0.406015 0.163106 -0.011769
C27   C     C_R   0.223077 0.605002 0.839394 0.010353
C28   C     C_R   0.275839 0.612226 0.912090 0.356173
C29   C     C_R   0.189894 0.556001 0.956512 -0.042576
C30   C     C_R   0.254321 0.545125 0.025249 0.018528
C31   C     C_R   0.421078 0.570483 0.046515 -0.113375
C32   C     C_R   0.375603 0.536445 0.167171 -0.007627
C33   C     C_R   0.479469 0.568489 0.116372 -0.083199
C34   C     C_3   0.275720 0.746189 0.640253 0.395186
C35   C     C_R   0.429841 0.540535 0.240308 0.060484
C36   C     C_R   0.322864 0.505922 0.288545 -0.246478
C37   C     C_R   0.166000 0.461086 0.265160 0.013214
C38   C     C_R   0.852597 0.173473 0.544005 -0.045708
C39   C     C_R   0.790189 0.079424 0.535907 -0.092030
C40   C     C_R   0.650739 0.893557 0.531840 -0.080492
C41   C     C_R   0.797961 0.935401 0.572933 -0.043984
C42   C     C_R   0.872083 0.022396 0.567622 -0.051649
C43   C     C_R   0.582863 0.798711 0.523021 -0.002769
C44   C     C_R   0.433980 0.765412 0.483793 -0.267093
C45   C     C_3   0.352803 0.842749 0.678062 0.254708
C46   C     C_R   0.612382 0.194677 0.478285 0.004888
C47   C     C_R   0.549980 0.100718 0.468917 -0.092697
C48   C     C_R   0.636111 0.043399 0.500530 0.046084
C49   C     C_R   0.401238 0.063227 0.430926 -0.034965
C50   C     C_R   0.333989 0.972832 0.427102 -0.105452
C51   C     C_R   0.414946 0.914724 0.459171 -0.041048
C52   C     C_R   0.568514 0.949913 0.496250 0.078061
C53   C     C_R   0.346211 0.822684 0.455112 0.019012
C54   C     C_R   0.757120 0.231090 0.519933 0.115392
C55   C     C_3   0.940716 0.253581 0.365878 0.206857
C56   C     C_3   0.881175 0.151172 0.338108 -0.256979
C57   C     C_3   0.733349 0.669822 0.687652 0.314823
C58   C     C_3   0.747308 0.700245 0.770918 -0.317485
H1    H     H_    0.814886 0.758268 0.355359 0.125602
H2    H     H_    0.411408 0.879460 0.637183 -0.068541
H3    H     H_    0.256399 0.879714 0.704132 0.168120
H4    H     H_    0.835647 0.285821 0.386976 0.011429
H5    H     H_    0.036369 0.263521 0.410126 0.037621
H6    H     H_    0.770181 0.141445 0.301738 0.148867
H7    H     H_    0.848601 0.119140 0.385270 0.028281
H8    H     H_    0.852558 0.655483 0.667181 0.008980
H9    H     H_    0.640257 0.607449 0.672614 0.048467
H10   H     H_    0.839644 0.762826 0.787126 0.140719
H11   H     H_    0.783997 0.646375 0.796616 0.036784
H12   H     H_    0.628105 0.715265 0.792041 0.179038
H13   H     H_    0.607257 0.770263 0.353211 -0.039664
H14   H     H_    0.346756 0.329989 0.325204 -0.019013
H15   H     H_    0.561787 0.373413 0.325294 0.061259
H16   H     H_    0.452694 0.347296 0.200719 -0.040109
H17   H     H_    0.582151 0.264045 0.206466 0.131376
H18   H     H_    0.871866 0.864877 0.267280 0.112428
H19   H     H_    0.229126 0.746609 0.158577 0.092270
H20   H     H_    0.252819 0.214958 0.794892 0.112381
H21   H     H_    0.600681 0.242646 0.645481 -0.028320
H22   H     H_    0.386849 0.232575 0.643512 0.105568
H23   H     H_    0.606372 0.110464 0.682579 0.070701
H24   H     H_    0.477224 0.140074 0.756699 0.169525
H25   H     H_    0.832862 0.480770 0.653678 0.100551
H26   H     H_    0.583640 0.404193 0.868298 0.126098
H27   H     H_    0.883120 0.364871 0.194144 0.097992
H28   H     H_    0.296322 0.646229 0.807328 0.131513
H29   H     H_    0.607800 0.591400 0.129430 0.127764
H30   H     H_    0.364513 0.511420 0.344728 0.059839
H31   H     H_    0.676520 0.404863 0.987876 0.076330
H32   H     H_    0.781461 0.369860 0.077287 0.067169
H33   H     H_    0.510397 0.590280 0.009017 0.138353
H34   H     H_    0.988755 0.047799 0.595774 0.167133
H35   H     H_    0.216808 0.950236 0.398888 0.096199
H36   H     H_    0.332275 0.103674 0.405115 0.099078
H37   H     H_    0.381506 0.694236 0.478287 0.062489
H38   H     H_    0.053170 0.799671 0.184683 0.108957
H39   H     H_    0.252213 0.856610 0.221335 0.071701
H40   H     H_    0.372672 0.706096 0.620652 -0.000853
H41   H     H_    0.196071 0.749232 0.592865 -0.011533
O1    O     O_2   0.871960 0.437280 0.322960 -0.475712
O2    O     O_3   0.687789 0.741322 0.659522 -0.618398
O3    O     O_3   0.098795 0.800560 0.329264 -0.676879
O4    O     O_2   0.317750 0.562750 0.677090 -0.469698
O5    O     O_3   0.068300 0.555620 0.587560 -0.492138
O6    O     O_3   0.528270 0.392500 0.627460 -0.445752
O7    O     O_3   0.181629 0.708514 0.691018 -0.639783
O8    O     O_3   0.609290 0.386840 0.459690 -0.439265
O9    O     O_3   0.105700 0.342700 0.589730 -0.416016
O10   O     O_2   0.181113 0.178643 0.534583 -0.517477
O11   O     O_3   0.098347 0.193534 0.669480 -0.627680
O12   O     O_3   0.121410 0.444460 0.412450 -0.493934
O13   O     O_3   0.580430 0.613240 0.540320 -0.496253
O14   O     O_2   0.337390 0.273050 0.457610 -0.470097
O15   O     O_3   0.502340 0.238662 0.336602 -0.646855
O16   O     O_2   0.430119 0.465269 0.758395 -0.463131
O17   O     O_3   0.498051 0.298497 0.743265 -0.568588
O18   O     O_3   0.661450 0.607570 0.372550 -0.498037
O19   O     O_2   0.762131 0.536928 0.242175 -0.472505
O20   O     O_3   0.002696 0.291292 0.307839 -0.646045
O21   O     O_3   0.693994 0.702891 0.255430 -0.597374
O22   O     O_2   0.852310 0.726980 0.542430 -0.439728
O23   O     O_3   0.084010 0.657370 0.410280 -0.476896
O24   O     O_2   0.016138 0.822183 0.464936 -0.472027
P1    P     P_3+3 0.039430 0.410940 0.333230 0.963658
P2    P     P_3+3 0.676770 0.715000 0.563590 0.987509
P3    P     P_3+3 0.138456 0.774538 0.415182 0.952825
P4    P     P_3+3 0.150290 0.589140 0.666780 0.998580
P5    P     P_3+3 0.058310 0.224328 0.585215 0.978632
P6    P     P_3+3 0.636170 0.595525 0.277747 0.986073
P7    P     P_3+3 0.516802 0.271781 0.432419 0.971572
P8    P     P_3+3 0.555168 0.406284 0.722167 1.027333
O25   O     O_3   0.467273 0.839518 0.732678 -0.708626
H42   H     H_    0.516443 0.903933 0.753307 0.313503
C59   C     C_2   0.009394 0.103903 0.297724 0.613098
H43   H     H_    0.127258 0.107981 0.324352 -0.046242
O26   O     O_2   0.981967 0.060751 0.234725 -0.526230
O27   O     O_3   0.803201 0.932115 0.367344 -0.785554
H44   H     H_    0.918306 0.932187 0.381631 0.322229
C60   C     C_2   0.628802 0.891694 0.261592 0.625718
H45   H     H_    0.525042 0.913669 0.290687 -0.049103
O28   O     O_2   0.635298 0.890159 0.196014 -0.537943
C61   C     C_2   0.325155 0.212543 0.194015 0.577546
H46   H     H_    0.201325 0.225807 0.201129 0.009083
O29   O     O_2   0.349587 0.137513 0.161261 -0.513876
O30   O     O_3   0.162637 0.342087 0.731885 -0.691868
H47   H     H_    0.145603 0.384832 0.777950 0.305363
C62   C     C_2   0.890903 0.268367 0.733065 0.441331
H48   H     H_    0.844298 0.298139 0.690979 -0.052310
O31   O     O_2   0.801479 0.247376 0.780196 -0.609735
O32   O     O_3   0.118100 0.287276 0.866979 -0.768056
H49   H     H_    0.003884 0.283733 0.881877 0.323938
C63   C     C_2   0.037413 0.129172 0.808042 0.571411
H50   H     H_    0.070451 0.101050 0.854149 0.018664
O33   O     O_2   0.933159 0.084333 0.762820 -0.576610
C64   C     C_2   0.354456 0.068528 0.654801 0.437396
H51   H     H_    0.354592 0.049109 0.595572 0.018100
O34   O     O_2   0.241457 0.036150 0.686969 -0.556544
O35   O     O_3   0.038347 0.662216 0.246775 -0.695165
H52   H     H_    0.050084 0.621109 0.280594 0.330819
O36   O     O_3   0.403123 0.681187 0.938916 -0.724993
H53   H     H_    0.380589 0.708381 0.990156 0.317625
O37   O     O_3   0.304778 0.716584 0.285691 -0.792510
H54   H     H_    0.379156 0.774956 0.301623 0.233469
C65   C     C_2   0.863669 0.903150 0.634389 0.614588
H55   H     H_    0.792007 0.900010 0.682073 0.041721
O38   O     O_2   0.001751 0.885683 0.634176 -0.564990
O39   O     O_3   0.799870 0.324256 0.541013 -0.720939
H56   H     H_    0.883140 0.342354 0.507260 0.297302

loop_
_geom_bond_atom_site_label_1
_geom_bond_atom_site_label_2
_ccdc_geom_bond_type
O5    P4    S    
C65   O38   D    
Ba2   O8    S    
C64   H51   S    
C54   O39   S    
C34   O7    S    
C32   C35   A    
O39   H56   S    
C9    C22   A    
O30   H47   S    
C1    C60   S    
C17   C29   A    
C15   C18   A    
C45   H2    S    
Ba1   O22   S    
C5    C6    S    
C51   C52   A    
C13   C17   A    
C24   C25   A    
C48   C52   A    
C10   C26   A    
C21   C27   A    
O37   H54   S    
C6    O32   S    
C35   C36   A    
C22   C24   A    
C32   C33   A    
C60   O28   D    
C45   H3    S    
C3    C4    S    
C31   C33   A    
Ba2   O12   S    
O7    P4    S    
C58   H12   S    
O19   P6    D    
C8    H23   S    
Ba2   P4    S    
C5    O11   S    
C50   H35   S    
C16   C17   A    
Ba1   O18   S    
C3    H14   S    
C27   H28   S    
Ba1   O8    S    
C5    C62   S    
C9    C13   A    
C23   H39   S    
Ba2   O9    S    
C25   C37   A    
C14   C15   A    
C38   C54   A    
O3    P3    S    
C44   C53   A    
O24   P3    D    
O18   P6    S    
C18   P8    S    
C6    C63   S    
C7    C8    S    
C63   O33   D    
C49   H36   S    
O23   P3    S    
O16   P8    D    
C57   C58   S    
C64   O34   D    
C37   P1    S    
C19   C20   A    
C11   H31   S    
C14   H26   S    
C7    O17   S    
C65   H55   S    
Ba1   O12   S    
O8    P7    S    
C56   H6    S    
C5    O30   S    
O14   P7    D    
C51   C53   A    
C19   H25   S    
C49   C50   A    
Ba1   P1    S    
C61   O29   D    
C61   H46   S    
C4    H17   S    
O4    P4    D    
O12   P1    S    
C58   H11   S    
C47   C49   A    
C43   C44   A    
C2    H1    S    
Ba2   O5    S    
C12   O3    S    
C16   C21   A    
C12   O35   S    
C34   H41   S    
C40   C43   A    
C39   C48   A    
C3    H15   S    
C41   C42   A    
C22   C30   A    
C27   C28   A    
C57   H8    S    
Ba2   O14   S    
C56   H7    S    
O10   P5    D    
O22   P2    D    
C29   C30   A    
O15   P7    S    
C58   H10   S    
C28   C29   A    
C9    C10   A    
C26   H27   S    
C15   C16   A    
C63   H50   S    
C2    O21   S    
C34   H40   S    
C36   H30   S    
C53   P3    S    
C8    C64   S    
C2    H13   S    
O17   P8    S    
C57   H9    S    
C33   H29   S    
C59   O26   D    
C38   C39   A    
C44   H37   S    
C11   C13   A    
C45   O25   S    
Ba2   O6    S    
Ba1   O5    S    
C34   C45   S    
C1    O27   S    
Ba1   O13   S    
C28   O36   S    
C4    C61   S    
C1    C2    S    
O21   P6    S    
O2    P2    S    
C50   C51   A    
C55   H4    S    
O36   H53   S    
C41   C65   S    
C46   C54   A    
C38   P5    S    
C46   C47   A    
C24   C32   A    
C23   H19   S    
C10   H32   S    
Ba1   P2    S    
C55   H5    S    
C59   H43   S    
O1    P1    D    
C31   H33   S    
O27   H44   S    
C4    H16   S    
O25   H42   S    
C7    H22   S    
Ba2   O4    S    
C20   P4    S    
C56   C59   S    
C30   C31   A    
C62   O31   D    
Ba1   O23   S    
C57   O2    S    
O20   P1    S    
C3    O15   S    
C62   H48   S    
O35   H52   S    
O13   P2    S    
Ba2   O13   S    
C55   C56   S    
C36   C37   A    
C43   P2    S    
Ba1   Ba2   S    
C8    H24   S    
C39   C42   A    
O9    P5    S    
C12   C23   S    
C12   O37   S    
C42   H34   S    
C55   O20   S    
C35   P6    S    
C23   H38   S    
C18   C19   A    
O6    P8    S    
C47   C48   A    
C40   C41   A    
C11   C14   A    
C25   C26   A    
C6    H20   S    
C20   C21   A    
C46   P7    S    
O32   H49   S    
O11   P5    S    
C60   H45   S    
C1    H18   S    
Ba1   O1    S    
C40   C52   A    
C7    H21   S    
