data_mof_unit_13268.cif
_audit_creation_date              2012-12-11T14:48:09-0500
_audit_creation_method            fapswitch 2.2
_symmetry_space_group_name_H-M    P1
_symmetry_Int_Tables_number       1
_space_group_crystal_system       triclinic
_cell_length_a                    11.502226
_cell_length_b                    11.484254
_cell_length_c                    19.538077
_cell_angle_alpha                 90.187128
_cell_angle_beta                  89.52939
_cell_angle_gamma                 60.322973
_cell_volume                      2242.18396827

loop_
_atom_site_label
_atom_site_type_symbol
_atom_type_description
_atom_site_fract_x
_atom_site_fract_y
_atom_site_fract_z
_atom_type_partial_charge
C1    C     C_R   0.640195 0.117434 0.599274 0.550559
C2    C     C_1   0.650190 0.683590 0.664084 0.006829
C3    C     C_1   0.147159 0.189388 0.863224 0.003182
C4    C     C_1   0.227775 0.144757 0.735612 -0.027462
C5    C     C_1   0.188303 0.164816 0.805107 -0.026534
C6    C     C_1   0.258870 0.132312 0.675912 0.001834
C7    C     C_1   0.679129 0.191163 0.860753 0.003913
C8    C     C_1   0.658218 0.167518 0.729022 -0.029035
C9    C     C_1   0.665908 0.180931 0.800343 -0.029736
C10   C     C_1   0.652399 0.150059 0.668633 0.006491
C11   C     C_R   0.504334 0.781266 0.285440 -0.144027
C12   C     C_R   0.613293 0.743421 0.597943 0.554555
C13   C     C_R   0.522557 0.737385 0.218419 0.252153
C14   C     C_R   0.650204 0.688114 0.187861 0.021440
C15   C     C_R   0.756117 0.683777 0.224113 -0.199429
C16   C     C_R   0.741457 0.712942 0.293109 -0.049997
C17   C     C_R   0.613040 0.763701 0.323864 -0.030290
C18   C     C_R   0.288408 0.199958 0.278551 -0.153150
C19   C     C_R   0.236501 0.230023 0.213258 -0.146272
C20   C     C_R   0.141880 0.194638 0.193007 -0.008191
C21   C     C_R   0.097259 0.130388 0.239877 -0.058865
C22   C     C_R   0.140417 0.111595 0.307353 -0.041910
C23   C     C_R   0.298067 0.120080 0.605293 0.557131
C24   C     C_R   0.240562 0.141488 0.325628 0.003746
C25   C     C_R   0.699125 0.041250 0.283963 -0.170957
C26   C     C_R   0.698284 0.066122 0.214962 -0.133015
C27   C     C_R   0.664438 0.194324 0.193714 -0.011227
C28   C     C_R   0.617363 0.300793 0.241193 -0.124658
C29   C     C_R   0.609943 0.277332 0.311091 0.254461
C30   C     C_R   0.658907 0.144565 0.332253 0.053580
C31   C     C_R   0.084747 0.230105 0.929326 0.538763
C32   C     C_R   0.709195 0.546763 0.922546 0.553862
C33   C     C_R   0.708678 0.206830 0.930062 0.535654
C34   C     C_R   0.645009 0.112602 0.402415 0.576392
C35   C     C_R   0.080933 0.236660 0.126015 0.543520
C36   C     C_R   0.680633 0.615251 0.124206 0.572932
C37   C     C_R   0.705929 0.211949 0.126318 0.551350
C38   C     C_R   0.585352 0.798609 0.395283 0.535666
C39   C     C_R   0.294777 0.118299 0.393770 0.520963
C40   C     C_1   0.699539 0.581750 0.851724 0.003031
C41   C     C_1   0.672044 0.645173 0.722277 -0.025477
C42   C     C_1   0.689308 0.609413 0.791886 -0.028798
Cr1   Cr    Cr6+3 0.404720 0.198220 0.499960 1.050693
Cr2   Cr    Cr6+3 0.698290 0.897110 0.500380 1.065307
Cr3   Cr    Cr6+3 0.396970 0.904720 0.499610 1.047614
Cr4   Cr    Cr6+3 0.926180 0.152240 0.028110 1.038756
Cr5   Cr    Cr6+3 0.921340 0.452070 0.027460 1.032244
Cr6   Cr    Cr6+3 0.626260 0.447120 0.028700 1.048811
H1    H     H_    0.407338 0.817365 0.309686 0.127528
H2    H     H_    0.734355 0.983449 0.178742 0.145452
H3    H     H_    0.595494 0.399403 0.224572 0.157336
H4    H     H_    0.854507 0.643829 0.200599 0.151905
H5    H     H_    0.364316 0.224887 0.293005 0.118471
H6    H     H_    0.271524 0.279287 0.178233 0.137080
H7    H     H_    0.730604 0.940949 0.299969 0.138594
O1    O     O_R   0.267740 0.231990 0.575440 -0.483497
O2    O     O_R   0.685970 0.784630 0.430010 -0.478163
O3    O     O_R   0.502530 0.766960 0.423990 -0.504962
O4    O     O_R   0.288330 0.026310 0.429250 -0.498939
O5    O     O_3   0.499990 0.000020 0.499980 -0.330650
O6    O     O_R   0.821500 0.119550 0.952820 -0.503469
O7    O     O_R   0.037130 0.162750 0.957360 -0.495439
O8    O     O_R   0.056440 0.344950 0.951330 -0.510544
O9    O     O_R   0.797900 0.560570 0.957460 -0.490584
O10   O     O_R   0.596140 0.579600 0.952720 -0.500789
O11   O     O_R   0.639070 0.321380 0.958660 -0.512374
O12   O     O_R   0.527280 0.186680 0.570530 -0.506235
O13   O     O_R   0.821240 0.124490 0.104360 -0.481268
O14   O     O_R   0.036900 0.167320 0.097830 -0.498043
O15   O     O_R   0.056190 0.349890 0.102870 -0.510965
O16   O     O_R   0.797670 0.565150 0.097930 -0.515555
O17   O     O_R   0.595880 0.584540 0.104260 -0.444530
O18   O     O_R   0.638830 0.325960 0.099140 -0.505217
O19   O     O_3   0.824590 0.350480 0.028090 -0.281274
O20   O     O_R   0.728090 0.003480 0.576380 -0.491929
O21   O     O_R   0.682970 0.789220 0.570490 -0.485944
O22   O     O_R   0.499290 0.771920 0.575530 -0.503413
O23   O     O_R   0.285330 0.030900 0.569730 -0.472423
O24   O     O_R   0.270980 0.227040 0.423900 -0.480130
O25   O     O_R   0.530280 0.182090 0.430050 -0.496609
O26   O     O_R   0.731330 0.998530 0.424830 -0.503049
O27   O     O_3   0.570685 0.378378 0.359900 -0.546218
C43   C     C_3   0.441989 0.485411 0.345116 -0.081377
H8    H     H_    0.402195 0.550245 0.391328 0.166070
H9    H     H_    0.370474 0.449795 0.332309 0.118050
H10   H     H_    0.446619 0.548420 0.303404 0.148846
O28   O     O_3   0.427335 0.714322 0.187783 -0.558222
C44   C     C_3   0.304483 0.832707 0.183534 -0.101970
H11   H     H_    0.316167 0.920193 0.169240 0.114094
H12   H     H_    0.249971 0.848743 0.232705 0.128074
H13   H     H_    0.244594 0.819839 0.143074 0.165360
C45   C     C_1   0.861879 0.682697 0.329943 0.250930
N1    N     N_1   0.958441 0.658362 0.359083 -0.264935
C46   C     C_1   0.024865 0.063457 0.219404 0.203647
N2    N     N_1   0.975177 0.000416 0.205931 -0.282591
C47   C     C_1   0.078301 0.064816 0.357303 0.247863
N3    N     N_1   0.028438 0.027788 0.396747 -0.244392

loop_
_geom_bond_atom_site_label_1
_geom_bond_atom_site_label_2
_ccdc_geom_bond_type
O28   C44   S    
Cr3   O5    S    
C41   C42   S    
C19   C20   A    
C2    C12   S    
C23   O1    A    
C26   C27   A    
Cr4   O7    S    
C18   C24   A    
C28   C29   A    
C27   C37   S    
C26   H2    S    
Cr5   O8    S    
C28   H3    S    
C21   C46   S    
C2    C41   T    
Cr1   O24   S    
C15   C16   A    
C37   O13   A    
C24   C39   S    
C18   C19   A    
Cr2   O21   S    
Cr4   O14   S    
C18   H5    S    
C34   O25   A    
C38   O3    A    
C20   C35   S    
C11   C17   A    
C35   O15   A    
C8    C9    S    
Cr3   O23   S    
C34   O26   A    
Cr6   O10   S    
C36   O16   A    
C40   C42   T    
C21   C22   A    
C47   N3    T    
C7    C33   S    
C31   O7    A    
Cr6   O17   S    
C33   O11   A    
Cr3   O3    S    
C30   C34   S    
Cr4   O6    S    
C1    O20   A    
Cr6   O19   S    
C32   O9    A    
C4    C6    T    
Cr2   O26   S    
Cr5   O9    S    
C16   C17   A    
Cr1   O25   S    
C39   O24   A    
Cr2   O20   S    
Cr5   O15   S    
Cr4   O13   S    
C29   C30   A    
C11   H1    S    
C31   O8    A    
C38   O2    A    
C43   H8    S    
C44   H13   S    
Cr2   O2    S    
C39   O4    A    
C12   O22   A    
C13   O28   S    
C15   H4    S    
C44   H11   S    
C3    C31   S    
Cr5   O16   S    
Cr1   O5    S    
C19   H6    S    
C8    C10   T    
C43   H9    S    
C44   H12   S    
C16   C45   S    
C12   O21   A    
C22   C24   A    
Cr4   O19   S    
C25   C30   A    
C7    C9    T    
C37   O18   A    
Cr3   O4    S    
C22   C47   S    
Cr6   O18   S    
C1    C10   S    
C25   H7    S    
Cr5   O19   S    
C4    C5    S    
C3    C5    T    
C25   C26   A    
C29   O27   S    
C14   C36   S    
C11   C13   A    
Cr2   O5    S    
C33   O6    A    
C6    C23   S    
C45   N1    T    
C1    O12   A    
C17   C38   S    
C32   C40   S    
C23   O23   A    
C46   N2    T    
Cr1   O1    S    
C43   H10   S    
C20   C21   A    
C35   O14   A    
Cr1   O12   S    
O27   C43   S    
C27   C28   A    
C14   C15   A    
Cr3   O22   S    
Cr6   O11   S    
C13   C14   A    
C36   O17   A    
C32   O10   A    
