data_mof_unit_19431.cif
_audit_creation_date              2012-12-10T18:48:21-0500
_audit_creation_method            fapswitch 2.2
_symmetry_space_group_name_H-M    P1
_symmetry_Int_Tables_number       1
_space_group_crystal_system       triclinic
_cell_length_a                    10.650621
_cell_length_b                    10.08712
_cell_length_c                    11.500053
_cell_angle_alpha                 90.895474
_cell_angle_beta                  93.451323
_cell_angle_gamma                 89.687396
_cell_volume                      1233.09369962

loop_
_atom_site_label
_atom_site_type_symbol
_atom_type_description
_atom_site_fract_x
_atom_site_fract_y
_atom_site_fract_z
_atom_type_partial_charge
C1    C     C_R   0.260795 0.500413 0.500414 0.843295
C2    C     C_R   0.931186 0.599780 0.441724 -0.190534
C3    C     C_R   0.940203 0.402282 0.561929 -0.200714
C4    C     C_R   0.060097 0.600365 0.442093 -0.202705
C5    C     C_R   0.872080 0.500041 0.500821 0.000507
C6    C     C_R   0.128128 0.501616 0.502088 0.006089
C7    C     C_R   0.572197 0.072865 0.582790 0.162706
C8    C     C_R   0.428304 0.927706 0.417591 0.174329
C9    C     C_R   0.421112 0.070577 0.423421 0.166395
C10   C     C_R   0.565753 0.929909 0.586749 0.140756
C11   C     C_3   0.664995 0.146337 0.667092 -0.356606
C12   C     C_R   0.739262 0.499824 0.500419 0.843055
C13   C     C_3   0.624959 0.163338 0.792122 -0.839185
C14   C     C_3   0.357393 0.854812 0.317615 -0.353049
C15   C     C_3   0.430945 0.856130 0.207193 -0.851403
C16   C     C_3   0.316461 0.140894 0.352671 -0.355948
C17   C     C_3   0.191392 0.130573 0.410987 -0.868286
C18   C     C_3   0.625928 0.858956 0.691342 -0.312230
C19   C     C_3   0.533070 0.846405 0.788211 -0.792672
C20   C     C_R   0.499374 0.499155 0.282558 0.896491
C21   C     C_R   0.499981 0.500741 0.717400 0.902042
C22   C     C_1   0.498769 0.497732 0.161793 -0.197759
C23   C     C_1   0.498870 0.501703 0.838065 -0.211984
C24   C     C_1   0.498381 0.498577 0.059338 -0.010909
C25   C     C_1   0.498359 0.500597 0.940463 -0.019194
C26   C     C_R   0.069142 0.403989 0.563585 -0.193393
H1    H     H_    0.122635 0.330663 0.613647 0.145564
H2    H     H_    0.529501 0.822671 0.225513 0.278230
H3    H     H_    0.384913 0.789407 0.139950 0.248267
H4    H     H_    0.433615 0.957378 0.171264 0.235377
H5    H     H_    0.334191 0.753710 0.340892 0.250690
H6    H     H_    0.262669 0.895972 0.296957 0.173802
H7    H     H_    0.204569 0.156770 0.504874 0.271689
H8    H     H_    0.121405 0.199376 0.368855 0.256233
H9    H     H_    0.152491 0.028993 0.404187 0.235283
H10   H     H_    0.336622 0.245298 0.341962 0.264275
H11   H     H_    0.305901 0.103861 0.261584 0.178935
H12   H     H_    0.877758 0.675393 0.394206 0.150557
H13   H     H_    0.438162 0.816341 0.752573 0.273197
H14   H     H_    0.569806 0.773233 0.852911 0.240880
H15   H     H_    0.518536 0.940092 0.835742 0.233176
H16   H     H_    0.662509 0.761848 0.664570 0.238682
H17   H     H_    0.712604 0.907000 0.728192 0.168244
H18   H     H_    0.894106 0.326806 0.609742 0.134042
H19   H     H_    0.106366 0.676081 0.394537 0.134107
H20   H     H_    0.659687 0.259637 0.829291 0.241696
H21   H     H_    0.520929 0.162806 0.795136 0.272873
H22   H     H_    0.669375 0.086705 0.849207 0.242338
H23   H     H_    0.760210 0.101232 0.665804 0.150637
H24   H     H_    0.680079 0.245236 0.638562 0.263052
N1    N     N_R   0.500000 0.857200 0.500000 -0.142279
N2    N     N_R   0.500000 0.142800 0.500000 -0.145155
O1    O     O_R   0.316770 0.614620 0.499990 -0.637949
O2    O     O_R   0.683230 0.385380 0.500010 -0.642842
O3    O     O_R   0.683230 0.614620 0.500010 -0.635498
O4    O     O_R   0.316770 0.385380 0.499990 -0.622460
O5    O     O_R   0.500020 0.614670 0.334450 -0.613308
O6    O     O_R   0.499980 0.385330 0.665550 -0.606426
O7    O     O_R   0.499980 0.614670 0.665550 -0.614364
O8    O     O_R   0.500020 0.385330 0.334450 -0.630315
Zn1   Zn    Zn3+2 0.500000 0.653120 0.500000 0.912126
Zn2   Zn    Zn3+2 0.500000 0.346880 0.500000 0.917548

loop_
_geom_bond_atom_site_label_1
_geom_bond_atom_site_label_2
_ccdc_geom_bond_type
O6    Zn2   S    
C13   H22   S    
C2    C4    A    
O5    Zn1   S    
C11   H23   S    
C7    C10   A    
C17   H9    S    
C2    H12   S    
C15   H4    S    
N1    Zn1   S    
C14   H5    S    
C21   C23   S    
C15   H2    S    
C21   O6    A    
C11   H24   S    
N2    Zn2   S    
C18   H17   S    
C16   H10   S    
C7    C11   S    
C11   C13   S    
C8    N1    A    
C26   H1    S    
C6    C26   A    
C9    N2    A    
C17   H7    S    
C10   C18   S    
C10   N1    A    
C19   H13   S    
C4    C6    A    
C1    O4    A    
C20   C22   S    
C7    N2    A    
C15   H3    S    
O4    Zn2   S    
C4    H19   S    
C18   H16   S    
C13   H20   S    
C22   C24   T    
C3    H18   S    
O7    Zn1   S    
C2    C5    A    
C20   O8    A    
C17   H8    S    
C1    C6    S    
C12   O3    A    
C21   O7    A    
O3    Zn1   S    
C23   C25   T    
C24   C25   S    
C5    C12   S    
O8    Zn2   S    
C18   C19   S    
C19   H14   S    
C13   H21   S    
C1    O1    A    
C14   C15   S    
C16   C17   S    
C8    C14   S    
O2    Zn2   S    
C20   O5    A    
O1    Zn1   S    
C9    C16   S    
C3    C26   A    
C12   O2    A    
C19   H15   S    
C16   H11   S    
C14   H6    S    
C8    C9    A    
C3    C5    A    
