data_mof_unit_8825.cif
_audit_creation_date              2012-10-26T21:00:41-0400
_audit_creation_method            fapswitch 2.2
_symmetry_space_group_name_H-M    P1
_symmetry_Int_Tables_number       1
_space_group_crystal_system       triclinic
_cell_length_a                    10.820382
_cell_length_b                    9.581148
_cell_length_c                    10.762253
_cell_angle_alpha                 89.993948
_cell_angle_beta                  91.208162
_cell_angle_gamma                 89.992117
_cell_volume                      1115.49280624

loop_
_atom_site_label
_atom_site_type_symbol
_atom_type_description
_atom_site_fract_x
_atom_site_fract_y
_atom_site_fract_z
_atom_type_partial_charge
Br1   Br    Br    0.236282 0.467553 0.148725 -0.450643
Br2   Br    Br    0.235794 0.478522 0.839681 -0.452079
C1    C     C_R   0.262251 0.499933 0.499766 0.608028
C2    C     C_R   0.500214 0.499870 0.737191 0.578772
C3    C     C_R   0.730495 0.516375 0.134632 -0.087647
C4    C     C_R   0.731091 0.508131 0.875654 -0.074860
C5    C     C_R   0.842056 0.520880 0.072211 -0.081889
C6    C     C_R   0.842380 0.516232 0.943002 -0.071205
C7    C     C_R   0.616815 0.505245 0.937130 -0.006987
C8    C     C_R   0.616582 0.507695 0.068067 -0.011337
C9    C     C_R   0.502562 0.499520 0.129054 -0.005139
C10   C     C_R   0.502810 0.499020 0.871109 -0.004737
C11   C     C_R   0.390132 0.487829 0.062368 0.175950
C12   C     C_R   0.737742 0.499915 0.500112 0.518982
C13   C     C_R   0.390139 0.489527 0.932863 0.169764
C14   C     C_R   0.063918 0.372972 0.499733 -0.095169
C15   C     C_R   0.936100 0.372965 0.500042 -0.126379
C16   C     C_R   0.871667 0.499811 0.499698 0.006819
C17   C     C_R   0.128294 0.499831 0.499674 0.059292
C18   C     C_R   0.936073 0.626568 0.498937 -0.119750
C19   C     C_R   0.063810 0.626580 0.499678 -0.093733
C20   C     C_R   0.423419 0.075618 0.421897 0.031881
C21   C     C_R   0.576611 0.075606 0.578044 0.036141
C22   C     C_R   0.422853 0.927977 0.421067 0.183333
C23   C     C_R   0.577228 0.927991 0.578821 0.187383
C24   C     C_R   0.499824 0.499950 0.262824 0.579169
Cu1   Cu    Cu3+1 0.500000 0.640660 0.500000 1.050209
Cu2   Cu    Cu3+1 0.500000 0.359340 0.500000 0.990471
H1    H     H_    0.734414 0.519159 0.235031 0.119134
H2    H     H_    0.637893 0.132705 0.640413 0.141734
H3    H     H_    0.735466 0.504148 0.775403 0.129474
H4    H     H_    0.928530 0.527299 0.124351 0.173479
H5    H     H_    0.929106 0.518954 0.894715 0.179083
H6    H     H_    0.112001 0.273794 0.499787 0.149984
H7    H     H_    0.888074 0.273783 0.500494 0.144926
H8    H     H_    0.888148 0.725770 0.497875 0.162551
H9    H     H_    0.111676 0.725791 0.500300 0.161960
H10   H     H_    0.362210 0.132728 0.359440 0.155635
I1    I     I_    0.296395 0.839437 0.290346 -0.266072
I2    I     I_    0.704411 0.839717 0.708883 -0.347919
N1    N     N_R   0.500000 0.852070 0.500000 -0.220232
N2    N     N_R   0.500000 0.147940 0.500000 -0.263978
O1    O     O_R   0.319640 0.618740 0.499990 -0.478006
O2    O     O_R   0.680360 0.618740 0.500010 -0.497743
O3    O     O_R   0.319620 0.381170 0.499990 -0.496113
O4    O     O_R   0.680380 0.381170 0.500010 -0.524415
O5    O     O_R   0.500000 0.618810 0.319650 -0.469944
O6    O     O_R   0.500000 0.618810 0.680350 -0.461389
O7    O     O_R   0.499970 0.381240 0.319640 -0.493341
O8    O     O_R   0.500030 0.381240 0.680360 -0.493449

loop_
_geom_bond_atom_site_label_1
_geom_bond_atom_site_label_2
_ccdc_geom_bond_type
Cu1   O6    S    
C1    C17   S    
C22   N1    A    
C2    C10   S    
Cu2   O7    S    
Cu1   N1    S    
C3    H1    S    
C10   C13   A    
Cu2   O4    S    
C4    C7    A    
C11   C13   A    
C4    H3    S    
C3    C8    A    
C12   O4    A    
Br2   C13   S    
C9    C11   A    
C1    O1    A    
C20   N2    A    
C21   N2    A    
C24   O5    A    
C14   C17   A    
Cu2   N2    S    
C17   C19   A    
C15   C16   A    
C16   C18   A    
C6    H5    S    
C21   C23   A    
C23   I2    S    
C2    O6    A    
C7    C10   A    
C20   C22   A    
Cu2   O3    S    
Br1   C11   S    
C8    C9    A    
C23   N1    A    
C18   H8    S    
C21   H2    S    
Cu1   O1    S    
C5    C6    A    
C22   I1    S    
C19   H9    S    
C18   C19   A    
C12   O2    A    
C7    C8    A    
C24   O7    A    
Cu1   O5    S    
Cu1   Cu2   S    
C3    C5    A    
C12   C16   S    
C4    C6    A    
C5    H4    S    
C15   H7    S    
C9    C24   S    
C14   H6    S    
Cu2   O8    S    
Cu1   O2    S    
C1    O3    A    
C2    O8    A    
C14   C15   A    
C20   H10   S    
