data_mof_unit_16114.cif
_audit_creation_date              2013-03-05T16:12:48-0500
_audit_creation_method            fapswitch 2.2
_symmetry_space_group_name_H-M    P1
_symmetry_Int_Tables_number       1
_space_group_crystal_system       triclinic
_cell_length_a                    10.730926
_cell_length_b                    9.886486
_cell_length_c                    27.203431
_cell_angle_alpha                 90.254809
_cell_angle_beta                  91.136522
_cell_angle_gamma                 89.993998
_cell_volume                      2885.44696917

loop_
_atom_site_label
_atom_site_type_symbol
_atom_site_description
_atom_site_fract_x
_atom_site_fract_y
_atom_site_fract_z
_atom_type_partial_charge
O1    O     O_R   0.316770 0.614620 0.500000 -0.619975
O2    O     O_R   0.683230 0.385380 0.500000 -0.601318
O3    O     O_R   0.683230 0.614620 0.500000 -0.619336
O4    O     O_R   0.316770 0.385380 0.500000 -0.600805
C1    C     C_R   0.260021 0.500197 0.500507 0.854988
C2    C     C_R   0.740008 0.500158 0.499621 0.858732
O5    O     O_R   0.500030 0.614650 0.428760 -0.587511
O6    O     O_R   0.499970 0.385350 0.571240 -0.600985
O7    O     O_R   0.499970 0.614650 0.571240 -0.588552
O8    O     O_R   0.500030 0.385350 0.428760 -0.605727
C3    C     C_R   0.498120 0.499599 0.405784 0.864052
C4    C     C_R   0.498671 0.500300 0.594119 0.859393
Zn1   Zn    Zn3+2 0.500000 0.653120 0.500000 0.969376
Zn2   Zn    Zn3+2 0.500000 0.346880 0.500000 0.978456
C5    C     C_R   0.336432 0.606378 0.178671 0.508406
C6    C     C_R   0.352606 0.354941 0.816302 0.505373
O9    O     O_2   0.318206 0.718811 0.205769 -0.569949
O10   O     O_2   0.366210 0.242148 0.788922 -0.565323
N1    N     N_R   0.382243 0.493579 0.201596 -0.355033
N2    N     N_R   0.357039 0.477925 0.793512 -0.352675
C7    C     C_R   0.399194 0.374916 0.176944 0.500228
C8    C     C_R   0.330880 0.594905 0.818060 0.498239
C9    C     C_R   0.509266 0.579861 0.271170 -0.088867
C10   C     C_R   0.317297 0.548309 0.708029 -0.087765
C11   C     C_R   0.539550 0.580224 0.321272 -0.253844
C12   C     C_R   0.355365 0.558381 0.659698 -0.224590
C13   C     C_R   0.374884 0.417087 0.335015 -0.232298
C14   C     C_R   0.545056 0.435057 0.680254 -0.250432
C15   C     C_R   0.343866 0.417877 0.285306 -0.099025
C16   C     C_R   0.509057 0.429323 0.729121 -0.089963
C17   C     C_R   0.411398 0.498315 0.253132 0.312419
C18   C     C_R   0.394261 0.484680 0.743168 0.300477
C19   C     C_R   0.329450 0.482094 0.101268 -0.092632
C20   C     C_R   0.311823 0.468747 0.893741 -0.091317
C21   C     C_R   0.308798 0.604364 0.127459 -0.040201
C22   C     C_R   0.334261 0.346864 0.867672 -0.041094
C23   C     C_R   0.261461 0.718241 0.101429 0.195556
C24   C     C_R   0.339034 0.223356 0.894099 0.187017
C25   C     C_R   0.371975 0.366435 0.126722 -0.005303
C26   C     C_R   0.303992 0.591834 0.868005 -0.001169
C27   C     C_R   0.472987 0.497598 0.353135 -0.031148
C28   C     C_R   0.468617 0.500864 0.645732 -0.029603
H1    H     H_    0.320062 0.356429 0.359533 0.155479
H2    H     H_    0.632087 0.389118 0.669416 0.142063
H3    H     H_    0.267464 0.355799 0.271645 0.145991
H4    H     H_    0.569789 0.380985 0.756041 0.147966
C29   C     C_R   0.277481 0.592236 0.971145 0.072081
C30   C     C_R   0.330882 0.351622 0.023985 0.069753
C31   C     C_R   0.318718 0.347508 0.971953 -0.001124
C32   C     C_R   0.275950 0.593281 0.023377 -0.002432
C33   C     C_R   0.301268 0.469161 0.945714 0.071759
C34   C     C_R   0.310868 0.475448 0.049462 0.072674
C35   C     C_R   0.262288 0.711781 0.943339 -0.223656
C36   C     C_R   0.369814 0.237376 0.051299 -0.226464
C37   C     C_R   0.274940 0.710943 0.892842 -0.147021
C38   C     C_R   0.389759 0.244958 0.101565 -0.140641
O11   O     O_2   0.334825 0.714770 0.794502 -0.567929
O12   O     O_2   0.444368 0.265671 0.201048 -0.563287
C39   C     C_R   0.244631 0.710037 0.050411 -0.214786
C40   C     C_R   0.328198 0.225717 0.945194 -0.212252
H5    H     H_    0.294593 0.606931 0.632776 0.143000
H6    H     H_    0.614676 0.643837 0.335113 0.147034
H7    H     H_    0.227879 0.589673 0.718168 0.154522
H8    H     H_    0.561948 0.642027 0.246345 0.147576
H9    H     H_    0.264260 0.805341 0.873267 0.185108
H10   H     H_    0.422053 0.154963 0.120527 0.188428
H11   H     H_    0.246534 0.809824 0.959404 0.134504
H12   H     H_    0.391987 0.141331 0.034852 0.141796
H13   H     H_    0.205544 0.797536 0.032491 0.142010
H14   H     H_    0.327330 0.129406 0.963490 0.137643
C41   C     C_R   0.063813 0.378203 0.502785 -0.206946
C42   C     C_R   0.936069 0.624363 0.498912 -0.195104
C43   C     C_R   0.936447 0.377998 0.500280 -0.206436
C44   C     C_R   0.063887 0.624390 0.499334 -0.195093
H15   H     H_    0.111820 0.282434 0.505740 0.164871
H16   H     H_    0.887554 0.720477 0.498007 0.151402
H17   H     H_    0.888605 0.281903 0.499242 0.164534
H18   H     H_    0.112287 0.720486 0.498305 0.150259
C45   C     C_R   0.872564 0.500881 0.499351 -0.011741
C46   C     C_R   0.127524 0.501014 0.501137 -0.012400
C47   C     C_R   0.568640 0.073031 0.534489 0.174618
C48   C     C_R   0.431945 0.927039 0.465321 0.159283
C49   C     C_R   0.430425 0.072191 0.465858 0.175037
C50   C     C_R   0.566867 0.927878 0.535033 0.158343
N3    N     N_R   0.500000 0.857200 0.500000 -0.133137
N4    N     N_R   0.500000 0.142800 0.500000 -0.134990
N5    N     N_2   0.634458 0.147934 0.571351 -0.243831
H19   H     H_    0.590898 0.155815 0.604650 0.230803
C51   C     C_3   0.768731 0.135552 0.574021 -0.797565
H20   H     H_    0.797152 0.071618 0.605741 0.224812
H21   H     H_    0.809891 0.237326 0.579980 0.250170
H22   H     H_    0.806117 0.091105 0.539721 0.222530
N6    N     N_2   0.359120 0.852253 0.430472 -0.251856
H23   H     H_    0.264223 0.861120 0.434436 0.214279
C52   C     C_3   0.399207 0.855987 0.379972 -0.696422
H24   H     H_    0.364976 0.948106 0.361123 0.217682
H25   H     H_    0.359072 0.767908 0.359844 0.251704
H26   H     H_    0.502490 0.851173 0.378123 0.237818
N7    N     N_2   0.362262 0.146259 0.429748 -0.246942
H27   H     H_    0.402942 0.151184 0.395839 0.226859
C53   C     C_3   0.227784 0.134933 0.429078 -0.802233
H28   H     H_    0.195823 0.070310 0.397851 0.226417
H29   H     H_    0.186690 0.236802 0.423696 0.248196
H30   H     H_    0.193384 0.091859 0.463966 0.224690
N8    N     N_2   0.635238 0.853939 0.571228 -0.253033
H31   H     H_    0.730627 0.862986 0.569408 0.214032
C54   C     C_3   0.587554 0.858323 0.620677 -0.696029
H32   H     H_    0.619944 0.950341 0.640440 0.213094
H33   H     H_    0.623064 0.769448 0.641435 0.238382
H34   H     H_    0.483962 0.854820 0.620113 0.246498
C55   C     C_3   0.228831 0.851036 0.125937 -0.778649
H35   H     H_    0.190223 0.926195 0.099490 0.202124
H36   H     H_    0.156649 0.834462 0.153958 0.266364
H37   H     H_    0.313648 0.897293 0.142917 0.267385
C56   C     C_3   0.360664 0.087262 0.870178 -0.757110
H38   H     H_    0.365863 0.004468 0.897540 0.192232
H39   H     H_    0.283013 0.063149 0.844020 0.269274
H40   H     H_    0.451271 0.086946 0.851187 0.269754

loop_
_geom_bond_atom_site_label_1
_geom_bond_atom_site_label_2
_geom_bond_distance
_ccdc_geom_bond_type
C41   H15   1.080390 S    
N5    H19   1.030192 S    
C53   H28   1.109549 S    
C13   C15   1.386239 A    
C52   H24   1.106293 S    
C42   H16   1.083596 S    
O3    C2    1.285265 A    
N1    C17   1.430957 S    
C8    O11   1.350803 S    
C52   H26   1.111467 S    
C19   C34   1.420649 A    
C30   C36   1.413297 A    
N8    C54   1.449144 S    
C20   C33   1.420595 A    
N6    H23   1.029845 S    
C31   C40   1.408955 A    
C20   C26   1.408284 A    
C32   C39   1.410094 A    
C21   C23   1.421155 A    
C12   H5    1.084508 S    
C10   C12   1.388465 A    
C42   C45   1.398405 A    
C36   H12   1.076496 S    
C56   H38   1.109463 S    
O7    Zn1   1.976603 S    
C4    C28   1.446809 S    
C5    N1    1.366791 A    
C19   C25   1.410535 A    
C25   C38   1.394616 A    
C31   C33   1.411868 A    
C32   C34   1.413412 A    
C54   H32   1.107132 S    
C51   H21   1.108870 S    
C47   N4    1.369964 A    
O3    Zn1   2.002691 S    
O6    C4    1.293501 A    
C29   C35   1.413731 A    
C26   C37   1.393401 A    
C53   H29   1.108535 S    
C48   N6    1.421473 S    
C44   C46   1.398411 A    
C54   H33   1.109921 S    
O2    C2    1.288211 A    
C35   H11   1.076219 S    
C5    C21   1.418652 A    
C41   C46   1.394811 A    
C37   H9    1.081510 S    
C29   C32   1.421310 A    
C35   C37   1.383050 A    
C36   C38   1.381560 A    
C50   N3    1.370556 A    
Zn2   N4    2.017634 S    
C42   C44   1.371423 A    
O8    Zn2   1.976609 S    
C11   C27   1.399923 A    
C41   C43   1.367102 A    
C29   C33   1.422592 A    
C56   H39   1.110207 S    
C14   H2    1.084000 S    
C15   H3    1.083026 S    
C1    C46   1.422280 S    
C9    C17   1.403528 A    
O5    C3    1.295391 A    
C10   C18   1.401955 A    
C13   C27   1.400324 A    
N7    H27   1.029667 S    
C7    C25   1.393555 A    
C40   H14   1.076507 S    
C6    N2    1.368520 A    
C56   H40   1.110040 S    
C8    C26   1.395020 A    
C50   N8    1.421193 S    
C43   C45   1.394965 A    
C55   H36   1.110156 S    
C23   C39   1.398003 A    
C51   H22   1.111685 S    
C47   N5    1.420638 S    
C39   H13   1.075847 S    
C24   C40   1.397195 A    
C6    O10   1.347764 S    
C9    H8    1.082731 S    
N7    C53   1.447169 S    
N2    C8    1.364844 A    
C53   H30   1.111703 S    
N5    C51   1.446464 S    
C54   H34   1.111977 S    
O1    C1    1.285051 A    
O1    Zn1   2.002770 S    
C22   C24   1.420128 A    
C47   C50   1.435327 A    
C12   C28   1.400335 A    
N2    C18   1.436015 S    
C5    O9    1.347446 S    
C30   C31   1.419293 A    
O6    Zn2   1.973284 S    
C55   H35   1.110964 S    
N1    C7    1.362692 A    
C16   H4    1.083281 S    
O4    C1    1.288268 A    
C52   H25   1.109078 S    
C10   H7    1.083257 S    
C48   N3    1.370558 A    
N8    H31   1.029711 S    
C14   C16   1.393068 A    
C7    O12   1.350942 S    
C15   C17   1.398246 A    
C6    C22   1.417714 A    
C16   C18   1.407019 A    
C24   C56   1.511889 S    
C2    C45   1.422631 S    
C38   H10   1.083854 S    
C14   C28   1.397439 A    
C19   C21   1.420045 A    
C3    C27   1.452186 S    
C55   H37   1.110149 S    
C20   C22   1.418463 A    
C11   H6    1.083127 S    
C9    C11   1.394864 A    
O4    Zn2   2.002691 S    
O2    Zn2   2.002770 S    
O7    C4    1.293156 A    
C23   C55   1.513972 S    
O8    C3    1.293313 A    
C13   H1    1.081569 S    
O5    Zn1   1.973289 S    
C49   N4    1.369018 A    
N6    C52   1.448293 S    
C48   C49   1.435143 A    
C44   H18   1.083538 S    
Zn1   N3    2.017634 S    
C43   H17   1.079926 S    
C49   N7    1.419143 S    
C51   H20   1.109737 S    
C30   C34   1.422478 A    
