data_mof_unit_21812.cif
_audit_creation_date              2012-12-11T14:29:23-0500
_audit_creation_method            fapswitch 2.2
_symmetry_space_group_name_H-M    P1
_symmetry_Int_Tables_number       1
_space_group_crystal_system       triclinic
_cell_length_a                    6.940327
_cell_length_b                    14.782702
_cell_length_c                    16.225262
_cell_angle_alpha                 90.311609
_cell_angle_beta                  90.060203
_cell_angle_gamma                 90.160943
_cell_volume                      1664.62759823

loop_
_atom_site_label
_atom_site_type_symbol
_atom_type_description
_atom_site_fract_x
_atom_site_fract_y
_atom_site_fract_z
_atom_type_partial_charge
O1    O     O_R   0.494400 0.416610 0.413880 -0.540296
O2    O     O_R   0.823920 0.406790 0.585520 -0.544006
O3    O     O_R   0.994250 0.583390 0.586120 -0.536913
C1    C     C_R   0.654593 0.385986 0.614258 0.743918
O4    O     O_R   0.824110 0.405730 0.414490 -0.541306
O5    O     O_R   0.994440 0.582310 0.413870 -0.537591
C2    C     C_R   0.654377 0.382576 0.387826 0.755428
O6    O     O_R   0.494210 0.417690 0.586130 -0.543799
O7    O     O_3   0.660810 0.557940 0.500000 -0.371508
V1    V     V_3+5 0.935650 0.489250 0.500000 1.422509
O8    O     O_R   0.324160 0.593210 0.414480 -0.546813
C3    C     C_R   0.155497 0.615008 0.386349 0.741714
O9    O     O_R   0.323970 0.594270 0.585510 -0.540597
C4    C     C_R   0.155397 0.615625 0.614304 0.690678
V2    V     V_3+5 0.435660 0.510750 0.500000 1.421426
O10   O     O_3   0.160630 0.442060 0.500000 -0.373683
H1    H     H_    0.337391 0.910346 0.507121 0.124822
C5    C     C_R   0.042591 0.566569 0.779509 -0.143789
C6    C     C_R   0.988527 0.539977 0.858369 -0.116918
C7    C     C_R   0.978759 0.603318 0.921711 -0.112274
C8    C     C_R   0.021953 0.693800 0.906572 -0.139501
C9    C     C_R   0.074779 0.723438 0.826728 0.070705
C10   C     C_R   0.086423 0.658123 0.762018 0.071327
C11   C     C_R   0.117299 0.816056 0.811399 -0.192366
C12   C     C_R   0.170679 0.843688 0.729750 0.026556
C13   C     C_R   0.190514 0.776236 0.666402 0.068027
C14   C     C_R   0.145431 0.684275 0.682096 -0.175168
C15   C     C_R   0.202060 0.936342 0.706990 -0.036264
C16   C     C_R   0.265109 0.958382 0.627759 -0.143122
C17   C     C_R   0.290822 0.891995 0.568485 -0.131582
C18   C     C_R   0.250870 0.802467 0.586707 -0.135345
H2    H     H_    0.050955 0.514259 0.732773 0.102680
H3    H     H_    0.955440 0.469675 0.870485 0.119778
H4    H     H_    0.938113 0.582218 0.983089 0.121465
H5    H     H_    0.013740 0.739819 0.958466 0.098752
H6    H     H_    0.290522 0.028311 0.610893 0.118258
H7    H     H_    0.267124 0.754283 0.536875 0.108261
C19   C     C_2   0.985422 0.709483 0.282874 -0.123919
C20   C     C_2   0.150389 0.682826 0.319541 -0.307033
H8    H     H_    0.849528 0.681063 0.303648 0.137543
H9    H     H_    0.287937 0.710632 0.300884 0.127917
C21   C     C_2   0.972955 0.776987 0.214911 -0.131624
C22   C     C_2   0.126116 0.814582 0.177165 -0.296318
H10   H     H_    0.828984 0.795656 0.195109 0.133647
H11   H     H_    0.271199 0.796520 0.195121 0.127712
C23   C     C_2   0.775399 0.224109 0.794517 -0.117751
C24   C     C_2   0.614209 0.178839 0.815904 -0.299991
H12   H     H_    0.906402 0.213317 0.829525 0.165266
H13   H     H_    0.479968 0.189598 0.783427 0.141872
C25   C     C_2   0.789612 0.288850 0.724622 -0.138842
C26   C     C_2   0.637394 0.320295 0.682159 -0.306791
H14   H     H_    0.933103 0.312801 0.709116 0.135624
H15   H     H_    0.492291 0.300374 0.698684 0.131583
C27   C     C_2   0.770209 0.200845 0.224411 -0.059327
C28   C     C_2   0.620382 0.189716 0.170298 -0.227075
C29   C     C_2   0.786770 0.278412 0.282814 -0.172165
C30   C     C_2   0.637021 0.309097 0.326946 -0.305533
H16   H     H_    0.929605 0.306273 0.294030 0.156676
H17   H     H_    0.496125 0.277895 0.320150 0.149509
O11   O     O_R   0.770210 0.079270 0.910680 -0.529260
O12   O     O_R   0.440150 0.091160 0.082270 -0.532551
O13   O     O_R   0.269970 0.914530 0.082860 -0.543382
C31   C     C_R   0.609680 0.113911 0.109957 0.696927
O14   O     O_R   0.440480 0.090100 0.911240 -0.532747
O15   O     O_R   0.270310 0.913460 0.910610 -0.537544
C32   C     C_R   0.609270 0.112419 0.883666 0.752623
O16   O     O_R   0.769870 0.080340 0.082930 -0.536688
O17   O     O_3   0.603660 0.938980 0.996790 -0.381288
V3    V     V_3+5 0.328750 0.007610 0.996740 1.491361
O18   O     O_R   0.940600 0.902510 0.911180 -0.541333
C33   C     C_R   0.108998 0.881922 0.881629 0.710499
O19   O     O_R   0.940270 0.903570 0.082200 -0.545574
C34   C     C_R   0.109477 0.881888 0.110363 0.754919
V4    V     V_3+5 0.828770 0.986010 0.996670 1.467664
O20   O     O_3   0.103730 0.054750 0.996710 -0.356619
C35   C     C_1   0.928460 0.137263 0.227771 0.342536
N1    N     N_1   0.055220 0.086648 0.230640 -0.370046
C36   C     C_1   0.469536 0.257043 0.163366 0.335594
N2    N     N_1   0.348923 0.310564 0.157538 -0.369349
C37   C     C_1   0.158725 0.012850 0.759010 0.255768
N3    N     N_1   0.123699 0.075038 0.799713 -0.355951

loop_
_geom_bond_atom_site_label_1
_geom_bond_atom_site_label_2
_ccdc_geom_bond_type
C22   C34   S    
C6    C7    A    
C1    O6    A    
C20   H9    S    
C12   C15   A    
C16   H6    S    
C13   C14   A    
C15   C16   A    
C19   C21   S    
O5    C3    A    
C17   C18   A    
C30   H17   S    
O17   V4    S    
V2    O10   S    
C29   C30   D    
C5    C6    A    
O12   C31   A    
C27   C28   D    
O8    V2    S    
O17   V3    S    
C28   C31   S    
O18   V4    S    
C25   H14   S    
O13   C34   A    
O18   C33   A    
O1    V2    S    
C10   C14   A    
C4    C14   S    
O7    V1    S    
C24   C32   S    
C7    H4    S    
O11   C32   A    
C13   C18   A    
O9    C4    A    
H1    C17   S    
C21   H10   S    
C23   H12   S    
C31   O16   A    
V4    O20   S    
C1    C26   S    
C5    C10   A    
C11   C12   A    
O19   V4    S    
C6    H3    S    
O4    C2    A    
C28   C36   S    
C36   N2    T    
C37   N3    T    
C12   C13   A    
O15   C33   A    
C18   H7    S    
O13   V3    S    
C26   H15   S    
O14   C32   A    
O2    C1    A    
C16   C17   A    
C25   C26   D    
O16   V4    S    
O14   V3    S    
C35   N1    T    
C22   H11   S    
O3    C4    A    
C27   C35   S    
O6    V2    S    
O9    V2    S    
C9    C11   A    
C5    H2    S    
C21   C22   D    
O2    V1    S    
O12   V3    S    
C23   C24   D    
O1    C2    A    
O19   C34   A    
O5    V1    S    
O8    C3    A    
C27   C29   S    
C8    H5    S    
C24   H13   S    
C23   C25   S    
C3    C20   S    
O7    V2    S    
O4    V1    S    
O3    V1    S    
V1    O10   S    
C19   H8    S    
C19   C20   D    
O15   V3    S    
O11   V4    S    
C29   H16   S    
V3    O20   S    
C15   C37   S    
C7    C8    A    
C9    C10   A    
C8    C9    A    
C2    C30   S    
C11   C33   S    
