data_mof_unit_61945.cif
_audit_creation_date              2012-12-10T18:43:31-0500
_audit_creation_method            fapswitch 2.2
_symmetry_space_group_name_H-M    P1
_symmetry_Int_Tables_number       1
_space_group_crystal_system       triclinic
_cell_length_a                    19.387588
_cell_length_b                    18.236634
_cell_length_c                    10.981143
_cell_angle_alpha                 89.215187
_cell_angle_beta                  91.98326
_cell_angle_gamma                 90.032233
_cell_volume                      3879.85091335

loop_
_atom_site_label
_atom_site_type_symbol
_atom_type_description
_atom_site_fract_x
_atom_site_fract_y
_atom_site_fract_z
_atom_type_partial_charge
C1    C     C_R   0.367903 0.499974 0.499617 0.965984
C2    C     C_R   0.632073 0.500000 0.500476 0.975906
C3    C     C_R   0.707358 0.499627 0.501374 -0.195432
C4    C     C_R   0.292573 0.499549 0.499062 -0.194938
C5    C     C_R   0.963527 0.562920 0.500335 0.244025
C6    C     C_R   0.036567 0.562796 0.505656 0.244194
C7    C     C_R   0.072036 0.495900 0.498075 -0.022070
C8    C     C_R   0.927873 0.495825 0.503538 -0.022059
C9    C     C_R   0.036112 0.428980 0.493231 0.268979
C10   C     C_R   0.963617 0.428782 0.504186 0.269141
C11   C     C_R   0.468935 0.723028 0.404480 0.401416
C12   C     C_R   0.531262 0.721946 0.594846 0.410489
C13   C     C_R   0.470791 0.801076 0.400510 0.268664
C14   C     C_R   0.528990 0.799919 0.598211 0.266428
C15   C     C_R   0.499766 0.839780 0.499227 -0.100811
C16   C     C_R   0.530875 0.962763 0.405633 -0.079377
C17   C     C_R   0.468393 0.961336 0.591908 -0.078485
C18   C     C_R   0.531336 0.040017 0.404820 0.141257
C19   C     C_R   0.467989 0.038572 0.592449 0.141373
C20   C     C_R   0.499699 0.079121 0.498590 0.172075
C21   C     C_R   0.504251 0.500541 0.265579 0.810706
C22   C     C_R   0.498281 0.499434 0.734245 0.825348
C23   C     C_R   0.499644 0.922461 0.498874 0.136586
C24   C     C_R   0.450771 0.201418 0.427791 0.190396
C25   C     C_R   0.549210 0.199868 0.569957 0.190336
C26   C     C_R   0.452305 0.279780 0.428432 0.237634
C27   C     C_R   0.547664 0.278221 0.570785 0.210759
C28   C     C_R   0.499910 0.161754 0.498718 -0.025282
C29   C     C_2   0.524213 0.448256 0.934878 0.306315
C30   C     C_2   0.510998 0.442629 0.066205 0.307649
C31   C     C_2   0.488551 0.497265 0.864929 0.292700
C32   C     C_2   0.518912 0.502796 0.135279 0.287469
C33   C     C_R   0.740922 0.471426 0.401023 0.261004
C34   C     C_R   0.259108 0.467419 0.597713 0.259711
C35   C     C_R   0.813914 0.470804 0.402255 0.087342
C36   C     C_R   0.186117 0.466870 0.596916 0.087409
C37   C     C_R   0.851695 0.495785 0.505586 0.075493
C38   C     C_R   0.148202 0.495927 0.495571 0.075471
C39   C     C_R   0.817132 0.522341 0.607970 0.341934
C40   C     C_R   0.182622 0.526502 0.394799 0.342756
C41   C     C_R   0.744449 0.525839 0.603760 0.298663
C42   C     C_R   0.255313 0.529830 0.398750 0.295784
Cu1   Cu    Cu3+1 0.500000 0.573360 0.500000 1.008533
Cu2   Cu    Cu3+1 0.500000 0.426640 0.500000 1.058836
H1    H     H_    0.555748 0.933976 0.333496 0.185265
H2    H     H_    0.443540 0.931444 0.664197 0.185474
N1    N     N_R   0.500000 0.683620 0.500000 -0.298207
N2    N     N_R   0.500000 0.316380 0.500000 -0.181659
O1    O     O_R   0.400190 0.561980 0.499980 -0.603193
O2    O     O_R   0.599810 0.561980 0.500020 -0.606609
O3    O     O_R   0.400190 0.438070 0.500040 -0.548252
O4    O     O_R   0.599810 0.438070 0.499960 -0.544229
O5    O     O_R   0.500000 0.561940 0.321950 -0.588530
O6    O     O_R   0.500000 0.561940 0.678050 -0.574655
O7    O     O_R   0.500010 0.438030 0.322010 -0.514168
O8    O     O_R   0.499990 0.438030 0.677990 -0.538406
O9    O     O_3   0.573159 0.403846 0.884630 -0.748952
H3    H     H_    0.595465 0.373948 0.951046 0.331352
O10   O     O_3   0.490976 0.376266 0.116076 -0.748078
H4    H     H_    0.485832 0.340219 0.049552 0.326100
O11   O     O_3   0.441350 0.841186 0.304240 -0.692325
H5    H     H_    0.425336 0.808051 0.238537 0.387664
O12   O     O_3   0.558418 0.838898 0.694006 -0.691842
H6    H     H_    0.574180 0.804985 0.760306 0.387957
N3    N     N_3   0.565012 0.077632 0.308153 -0.562500
H7    H     H_    0.528814 0.111122 0.261776 0.256670
H8    H     H_    0.603473 0.111178 0.346563 0.239108
N4    N     N_3   0.434370 0.074695 0.689034 -0.562991
H9    H     H_    0.470623 0.107406 0.735391 0.254895
H10   H     H_    0.395982 0.108890 0.650544 0.237753
O13   O     O_3   0.402817 0.161686 0.359605 -0.715867
H11   H     H_    0.369455 0.194795 0.316987 0.331695
O14   O     O_3   0.597175 0.158663 0.637407 -0.715752
H12   H     H_    0.631648 0.190799 0.677923 0.331490
N5    N     N_3   0.404284 0.321746 0.354227 -0.491190
H13   H     H_    0.408686 0.306704 0.263371 0.241749
H14   H     H_    0.354307 0.310252 0.381853 0.203240
N6    N     N_3   0.595156 0.318478 0.646671 -0.477220
H15   H     H_    0.590778 0.299946 0.736498 0.236838
H16   H     H_    0.645253 0.308502 0.618710 0.208843
O15   O     O_3   0.439453 0.541661 0.915546 -0.699972
H17   H     H_    0.416080 0.570946 0.849500 0.343960
O16   O     O_3   0.544605 0.566348 0.082382 -0.693412
H18   H     H_    0.552758 0.603992 0.145341 0.360142
O17   O     O_3   0.700416 0.447079 0.303314 -0.725685
H19   H     H_    0.729414 0.426756 0.239798 0.335681
O18   O     O_3   0.299710 0.439312 0.693593 -0.725618
H20   H     H_    0.270776 0.416489 0.755881 0.336433
N7    N     N_3   0.850811 0.446572 0.298999 -0.551193
H21   H     H_    0.835868 0.478557 0.222877 0.233433
H22   H     H_    0.838739 0.391600 0.282895 0.246206
N8    N     N_3   0.149359 0.438604 0.698742 -0.551440
H23   H     H_    0.164523 0.467548 0.776713 0.232772
H24   H     H_    0.161311 0.383065 0.711265 0.246001
O19   O     O_3   0.852203 0.544701 0.712994 -0.701065
H25   H     H_    0.900407 0.526988 0.714091 0.338871
O20   O     O_3   0.147397 0.552980 0.291544 -0.700517
H26   H     H_    0.099174 0.535267 0.289563 0.338849
O21   O     O_3   0.707613 0.551980 0.699879 -0.707799
H27   H     H_    0.739544 0.570331 0.764763 0.393400
O22   O     O_3   0.291975 0.559720 0.304118 -0.714296
H28   H     H_    0.259952 0.580791 0.240867 0.393916
O23   O     O_3   0.925522 0.626961 0.491319 -0.686769
H29   H     H_    0.953414 0.665220 0.451261 0.350003
O24   O     O_3   0.074748 0.626380 0.518730 -0.686660
H30   H     H_    0.046976 0.663003 0.561253 0.349931
O25   O     O_3   0.073250 0.365445 0.476670 -0.712549
H31   H     H_    0.042693 0.328832 0.436554 0.343084
O26   O     O_3   0.926300 0.364690 0.516637 -0.712164
H32   H     H_    0.956741 0.326533 0.554433 0.343131
O27   O     O_3   0.434954 0.688300 0.309819 -0.695338
H33   H     H_    0.408344 0.647836 0.345075 0.394244
O28   O     O_3   0.566302 0.686252 0.688935 -0.687660
H34   H     H_    0.593165 0.646732 0.653214 0.390303

loop_
_geom_bond_atom_site_label_1
_geom_bond_atom_site_label_2
_ccdc_geom_bond_type
C27   N2    A    
C38   C40   A    
O18   H20   S    
C5    O23   S    
O22   H28   S    
O14   H12   S    
C11   N1    A    
O19   H25   S    
Cu1   Cu2   S    
C27   N6    S    
O20   H26   S    
C39   C41   A    
O17   H19   S    
C18   N3    S    
C17   C23   A    
C35   C37   A    
C24   C26   A    
O28   H34   S    
C5    C6    A    
N6    H16   S    
C3    C33   A    
C10   O26   S    
C33   O17   S    
C2    O2    A    
C33   C35   A    
Cu1   O5    S    
O27   H33   S    
N4    H9    S    
N3    H8    S    
C1    O1    A    
O25   H31   S    
C41   O21   S    
N7    H22   S    
C9    C10   A    
C25   O14   S    
C26   N2    A    
C36   N8    S    
C40   C42   A    
O10   H4    S    
C12   N1    A    
O15   H17   S    
C37   C39   A    
C21   C32   S    
C4    C34   A    
C22   C31   S    
C11   O27   S    
C30   C32   D    
C17   H2    S    
C22   O6    A    
C40   O20   S    
C21   O7    A    
N6    H15   S    
Cu1   O1    S    
C22   O8    A    
C20   C28   S    
C25   C28   A    
N5    H13   S    
C29   C30   S    
N5    H14   S    
Cu2   O8    S    
Cu1   O6    S    
O16   H18   S    
C30   O10   S    
N8    H24   S    
C26   N5    S    
C19   N4    S    
C1    O3    A    
C39   O19   S    
C2    O4    A    
C35   N7    S    
Cu2   O3    S    
C8    C10   A    
C12   C14   A    
C16   C23   A    
C13   C15   A    
C9    O25   S    
C8    C37   S    
C42   O22   S    
C12   O28   S    
C7    C9    A    
C32   O16   S    
C3    C41   A    
C24   C28   A    
C29   O9    S    
C16   H1    S    
C5    C8    A    
Cu1   O2    S    
C7    C38   S    
C6    C7    A    
C25   C27   A    
O24   H30   S    
C31   O15   S    
O21   H27   S    
C1    C4    S    
C19   C20   A    
C36   C38   A    
C2    C3    S    
O13   H11   S    
C29   C31   D    
O26   H32   S    
C21   O5    A    
C11   C13   A    
Cu2   O7    S    
Cu2   O4    S    
O9    H3    S    
C4    C42   A    
C14   O12   S    
C15   C23   S    
N8    H23   S    
C17   C19   A    
C6    O24   S    
C18   C20   A    
C34   O18   S    
O11   H5    S    
O12   H6    S    
C13   O11   S    
C34   C36   A    
C16   C18   A    
N3    H7    S    
O23   H29   S    
N4    H10   S    
C14   C15   A    
N7    H21   S    
Cu1   N1    S    
Cu2   N2    S    
C24   O13   S    
