data_mof_unit_8653.cif
_audit_creation_date              2012-12-10T18:30:30-0500
_audit_creation_method            fapswitch 2.2
_symmetry_space_group_name_H-M    P1
_symmetry_Int_Tables_number       1
_space_group_crystal_system       triclinic
_cell_length_a                    15.047709
_cell_length_b                    14.159666
_cell_length_c                    15.218956
_cell_angle_alpha                 90.040671
_cell_angle_beta                  82.427452
_cell_angle_gamma                 104.236514
_cell_volume                      3114.01576735

loop_
_atom_site_label
_atom_site_type_symbol
_atom_type_description
_atom_site_fract_x
_atom_site_fract_y
_atom_site_fract_z
_atom_type_partial_charge
C1    C     C_R   0.558543 0.515352 0.336537 0.912332
C2    C     C_R   0.374092 0.402006 0.083141 -0.138673
C3    C     C_R   0.651814 0.405083 0.987654 0.426174
C4    C     C_R   0.308377 0.374277 0.023669 0.487229
C5    C     C_R   0.151241 0.337572 0.383247 -0.285489
C6    C     C_R   0.846815 0.662780 0.618250 -0.306750
C7    C     C_R   0.239373 0.364059 0.407325 0.023132
C8    C     C_R   0.755248 0.626168 0.606397 0.016919
C9    C     C_R   0.210547 0.506466 0.474547 -0.024103
C10   C     C_R   0.793890 0.505066 0.511759 -0.020053
C11   C     C_R   0.117639 0.480128 0.457781 -0.038391
C12   C     C_R   0.441753 0.485770 0.663006 0.903378
C13   C     C_R   0.888713 0.539749 0.519709 -0.061816
C14   C     C_R   0.090098 0.396361 0.406819 0.051547
C15   C     C_R   0.914715 0.621373 0.573452 0.047518
C16   C     C_R   0.498485 0.329126 0.499787 0.897155
C17   C     C_R   0.501432 0.670855 0.500321 0.852435
C18   C     C_R   0.051126 0.531523 0.492014 0.012969
C19   C     C_R   0.957659 0.496753 0.476080 0.011791
C20   C     C_R   0.936040 0.420087 0.417117 -0.302074
C21   C     C_R   0.074492 0.615028 0.543159 -0.321557
C22   C     C_R   0.001575 0.371847 0.381196 0.463120
C23   C     C_R   0.544871 0.458579 0.101430 0.006385
C24   C     C_R   0.008140 0.661522 0.580668 0.491635
C25   C     C_1   0.495722 0.226833 0.499394 -0.190654
C26   C     C_1   0.503752 0.773041 0.501126 -0.210945
C27   C     C_1   0.495852 0.141548 0.499616 -0.002450
C28   C     C_1   0.502977 0.858157 0.501180 -0.015993
C29   C     C_1   0.497912 0.042095 0.500216 0.011431
C30   C     C_1   0.500360 0.957456 0.500757 0.008167
C31   C     C_R   0.594698 0.517067 0.240948 -0.273460
C32   C     C_R   0.404242 0.460285 0.756381 -0.260479
C33   C     C_R   0.708289 0.483942 0.122726 0.472232
C34   C     C_R   0.432648 0.413948 0.901627 -0.023584
C35   C     C_R   0.274420 0.400285 0.872648 0.426368
C36   C     C_R   0.687458 0.518026 0.208883 0.350523
C37   C     C_R   0.308453 0.438587 0.786290 0.368306
C38   C     C_R   0.530975 0.504567 0.181487 -0.248716
C39   C     C_R   0.464883 0.449304 0.814813 -0.276096
C40   C     C_3   0.788570 0.418959 0.892370 0.110632
C41   C     C_3   0.821543 0.345184 0.831107 -0.311998
C42   C     C_3   0.880161 0.395429 0.746533 -0.946993
C43   C     C_3   0.200162 0.239355 0.092067 0.039183
C44   C     C_3   0.244567 0.169047 0.034039 -0.404425
C45   C     C_R   0.635774 0.448944 0.070356 -0.122888
C46   C     C_3   0.209988 0.064525 0.071346 -0.906456
C47   C     C_3   0.240659 0.555873 0.743760 0.125110
C48   C     C_3   0.138813 0.557535 0.762175 -0.373870
C49   C     C_3   0.127894 0.660488 0.779244 -0.901358
C50   C     C_3   0.775438 0.649056 0.271843 0.076005
C51   C     C_3   0.861948 0.683081 0.317409 -0.316386
C52   C     C_3   0.888774 0.793694 0.324362 -0.973043
C53   C     C_3   0.861435 0.568168 0.073775 0.076549
C54   C     C_3   0.828910 0.641345 0.018074 -0.447334
C55   C     C_3   0.907011 0.732179 0.991951 -0.919981
C56   C     C_R   0.337234 0.394724 0.932723 -0.138652
C57   C     C_3   0.137845 0.284777 0.872061 0.141448
C58   C     C_3   0.060677 0.291233 0.818391 -0.347100
C59   C     C_3   0.001835 0.190108 0.801987 -0.978928
C60   C     C_2   0.587613 0.319902 0.856707 0.938145
C61   C     C_2   0.336641 0.406108 0.176712 0.894145
C62   C     C_3   0.987520 0.337174 0.237281 0.062538
C63   C     C_3   0.941220 0.259306 0.176869 -0.320488
C64   C     C_3   0.953045 0.298576 0.081444 -0.908670
C65   C     C_3   0.049876 0.828539 0.575644 0.066157
C66   C     C_3   0.152555 0.864965 0.538699 -0.360104
C67   C     C_R   0.471209 0.423867 0.050480 -0.024409
C68   C     C_3   0.172161 0.963713 0.490147 -0.931017
C69   C     C_R   0.495793 0.407594 0.960587 -0.049487
C70   C     C_R   0.581294 0.385003 0.932535 -0.156355
H1    H     H_    0.868733 0.395460 0.396356 0.172267
H2    H     H_    0.864194 0.724386 0.660439 0.179750
H3    H     H_    0.850843 0.466741 0.915005 0.162270
H4    H     H_    0.756765 0.466339 0.854338 0.139345
H5    H     H_    0.862227 0.306614 0.867127 0.221614
H6    H     H_    0.761984 0.288918 0.813041 0.251767
H7    H     H_    0.838352 0.430864 0.708504 0.294813
H8    H     H_    0.905205 0.341046 0.704036 0.268329
H9    H     H_    0.940767 0.451472 0.763186 0.253316
H10   H     H_    0.124272 0.208097 0.102539 0.170721
H11   H     H_    0.222099 0.241928 0.158944 0.162192
H12   H     H_    0.144067 0.647018 0.555615 0.150083
H13   H     H_    0.228101 0.171305 0.965337 0.214529
H14   H     H_    0.321046 0.190904 0.031682 0.234447
H15   H     H_    0.226573 0.060077 0.139991 0.267907
H16   H     H_    0.244213 0.015989 0.029337 0.272125
H17   H     H_    0.133976 0.038801 0.071766 0.254458
H18   H     H_    0.272308 0.597969 0.681005 0.141577
H19   H     H_    0.276990 0.594138 0.798264 0.118641
H20   H     H_    0.103705 0.528422 0.704520 0.228107
H21   H     H_    0.105002 0.510377 0.821507 0.249253
H22   H     H_    0.157544 0.688046 0.840163 0.254663
H23   H     H_    0.538441 0.473996 0.793876 0.225000
H24   H     H_    0.053250 0.659629 0.788752 0.285143
H25   H     H_    0.163710 0.710376 0.722216 0.283822
H26   H     H_    0.716946 0.669948 0.312793 0.154166
H27   H     H_    0.787328 0.688728 0.206608 0.117496
H28   H     H_    0.848446 0.649686 0.385064 0.235920
H29   H     H_    0.920706 0.659277 0.279896 0.215592
H30   H     H_    0.904657 0.829425 0.257220 0.265488
H31   H     H_    0.951219 0.815511 0.358470 0.261623
H32   H     H_    0.831578 0.818846 0.363258 0.269653
H33   H     H_    0.924798 0.553897 0.035750 0.162148
H34   H     H_    0.469472 0.529549 0.200673 0.191542
H35   H     H_    0.884253 0.600468 0.135564 0.172327
H36   H     H_    0.805009 0.607317 0.957009 0.215618
H37   H     H_    0.770083 0.664267 0.056261 0.201634
H38   H     H_    0.931143 0.768759 0.052168 0.260306
H39   H     H_    0.881685 0.783907 0.952878 0.267867
H40   H     H_    0.965950 0.712415 0.950682 0.265764
H41   H     H_    0.106452 0.238317 0.932365 0.169702
H42   H     H_    0.186022 0.247181 0.832097 0.101956
H43   H     H_    0.016565 0.334169 0.855441 0.228726
H44   H     H_    0.090699 0.329279 0.753547 0.260628
H45   H     H_    0.767185 0.445088 0.471505 0.146820
H46   H     H_    0.045574 0.145830 0.765975 0.270525
H47   H     H_    0.947676 0.196793 0.761150 0.273773
H48   H     H_    0.967454 0.152239 0.865943 0.264721
H49   H     H_    0.629916 0.306090 0.726910 0.345446
H50   H     H_    0.263997 0.475199 0.264772 0.339606
H51   H     H_    0.062622 0.362406 0.211752 0.187762
H52   H     H_    0.954896 0.399819 0.235057 0.158635
H53   H     H_    0.971740 0.195520 0.178270 0.211363
H54   H     H_    0.866137 0.234457 0.201774 0.244345
H55   H     H_    0.918324 0.358910 0.078127 0.303889
H56   H     H_    0.238686 0.569365 0.510891 0.124301
H57   H     H_    0.921546 0.239528 0.038675 0.259431
H58   H     H_    0.027507 0.325927 0.055529 0.298247
H59   H     H_    0.029126 0.885406 0.618169 0.171248
H60   H     H_    0.006520 0.819225 0.520501 0.126032
H61   H     H_    0.194964 0.871799 0.593995 0.232534
H62   H     H_    0.173287 0.811813 0.491616 0.214931
H63   H     H_    0.131381 0.958214 0.433756 0.262423
H64   H     H_    0.246890 0.987751 0.463896 0.270198
H65   H     H_    0.154176 0.019179 0.536153 0.264569
H66   H     H_    0.702822 0.660446 0.637361 0.135980
H67   H     H_    0.285963 0.317387 0.392224 0.188502
H68   H     H_    0.131120 0.271187 0.347512 0.189335
N1    N     N_R   0.268300 0.449640 0.447270 -0.102371
N2    N     N_R   0.731700 0.550360 0.552730 -0.091620
O1    O     O_R   0.616880 0.525390 0.394380 -0.579506
O2    O     O_3   0.215381 0.334704 0.053793 -0.607275
O3    O     O_3   0.247069 0.458157 0.733016 -0.624948
O4    O     O_3   0.756998 0.546566 0.261880 -0.620866
O5    O     O_3   0.797113 0.476175 0.091645 -0.607252
O6    O     O_3   0.180092 0.378863 0.899863 -0.604242
O7    O     O_2   0.550906 0.232802 0.867312 -0.613691
O8    O     O_R   0.632664 0.357825 0.773253 -0.846132
O9    O     O_2   0.359064 0.359130 0.233523 -0.650863
O10   O     O_R   0.276240 0.465884 0.198969 -0.796556
O11   O     O_3   0.976300 0.296736 0.324194 -0.651372
O12   O     O_R   0.383120 0.474610 0.605620 -0.562419
O13   O     O_3   0.035143 0.743366 0.629860 -0.665844
O14   O     O_R   0.468100 0.493070 0.360490 -0.574213
O15   O     O_R   0.531900 0.506930 0.639510 -0.603225
O16   O     O_R   0.574410 0.389880 0.516950 -0.590793
O17   O     O_R   0.425590 0.610120 0.483050 -0.609482
O18   O     O_R   0.425630 0.357560 0.483060 -0.598038
O19   O     O_R   0.574370 0.642440 0.516940 -0.609099
O20   O     O_3   0.729979 0.369182 0.967504 -0.593659
Zn1   Zn    Zn3+2 0.599340 0.521580 0.522630 0.950773
Zn2   Zn    Zn3+2 0.400660 0.478420 0.477370 0.964351

loop_
_geom_bond_atom_site_label_1
_geom_bond_atom_site_label_2
_ccdc_geom_bond_type
C66   C68   S    
C11   C18   A    
O1    Zn1   S    
C23   C45   A    
C8    H66   S    
C18   C21   A    
C33   C45   A    
C41   C42   S    
C12   O12   A    
C2    C4    A    
C19   C20   A    
C44   H13   S    
C65   H60   S    
C5    H68   S    
C53   C54   S    
O15   Zn1   S    
C34   C56   A    
C52   H32   S    
C29   C30   T    
C54   H37   S    
C17   C26   S    
C68   H63   S    
C35   C37   A    
C46   H17   S    
C4    O2    S    
C11   C14   A    
C57   H42   S    
C27   C29   S    
C47   O3    S    
C1    C31   S    
C33   C36   A    
C40   H3    S    
C14   C22   A    
C18   C19   A    
C32   C39   A    
C23   C67   A    
C39   H23   S    
C38   H34   S    
C6    C15   A    
C22   O11   S    
C44   C46   S    
C59   H46   S    
C64   H58   S    
C48   H21   S    
C16   O16   A    
C58   H43   S    
C65   O13   S    
O19   Zn1   S    
C20   H1    S    
C60   O7    D    
C49   H24   S    
C17   O17   A    
C61   O10   S    
C2    C61   S    
C46   H15   S    
C51   H28   S    
C42   H9    S    
C59   H47   S    
C48   H20   S    
C57   O6    S    
C55   H39   S    
C47   H19   S    
C69   C70   A    
C10   N2    A    
C50   O4    S    
C63   H54   S    
C66   H62   S    
N1    Zn2   S    
C51   H29   S    
C52   H31   S    
C62   O11   S    
C13   C19   A    
C16   O18   A    
C34   C39   A    
C3    C70   A    
C2    C67   A    
C5    C7    A    
C54   H36   S    
C6    C8    A    
C43   H10   S    
C3    C45   A    
C51   C52   S    
C67   C69   A    
C35   O6    S    
C6    H2    S    
C43   C44   S    
C62   C63   S    
C41   H5    S    
C65   H59   S    
C47   C48   S    
C60   C70   S    
C64   H57   S    
C53   O5    S    
C50   C51   S    
C32   C37   A    
C49   H25   S    
C9    C11   A    
C34   C69   A    
C5    C14   A    
C33   O5    S    
C15   C24   A    
C20   C22   A    
O16   Zn1   S    
C42   H8    S    
C59   H48   S    
C13   C15   A    
C55   H40   S    
C3    O20   S    
C43   H11   S    
C58   C59   S    
C12   C32   S    
C49   H22   S    
O14   Zn2   S    
C62   H52   S    
C24   O13   S    
C7    H67   S    
C66   H61   S    
C16   C25   S    
C54   C55   S    
C48   C49   S    
C50   H27   S    
C37   O3    S    
C35   C56   A    
H50   O10   S    
C40   O20   S    
C68   H65   S    
C44   H14   S    
C10   C13   A    
C63   H53   S    
C25   C27   T    
C23   C38   A    
C60   O8    S    
C26   C28   T    
C9    H56   S    
C31   C38   A    
C55   H38   S    
C8    N2    A    
C47   H18   S    
N2    Zn1   S    
C68   H64   S    
H49   O8    S    
C41   H6    S    
C7    N1    A    
C9    N1    A    
C50   H26   S    
C57   C58   S    
C57   H41   S    
C53   H33   S    
C28   C30   S    
C40   H4    S    
C65   C66   S    
C36   O4    S    
C1    O14   A    
C17   O19   A    
O12   Zn2   S    
C1    O1    A    
O18   Zn2   S    
C63   C64   S    
C53   H35   S    
C21   H12   S    
C42   H7    S    
C64   H55   S    
C21   C24   A    
C58   H44   S    
C52   H30   S    
C31   C36   A    
C43   O2    S    
C40   C41   S    
C12   O15   A    
C61   O9    D    
O17   Zn2   S    
C62   H51   S    
C4    C56   A    
C10   H45   S    
C46   H16   S    
