data_mof_unit_64361.cif
_audit_creation_date              2012-12-10T17:00:48-0500
_audit_creation_method            fapswitch 2.2
_symmetry_space_group_name_H-M    P1
_symmetry_Int_Tables_number       1
_space_group_crystal_system       triclinic
_cell_length_a                    13.115265
_cell_length_b                    13.12362
_cell_length_c                    19.521001
_cell_angle_alpha                 100.267472
_cell_angle_beta                  80.509522
_cell_angle_gamma                 90.939413
_cell_volume                      3260.60151259

loop_
_atom_site_label
_atom_site_type_symbol
_atom_type_description
_atom_site_fract_x
_atom_site_fract_y
_atom_site_fract_z
_atom_type_partial_charge
C1    C     C_R   0.223051 0.535938 0.526931 0.865069
C2    C     C_2   0.489967 0.527417 0.985775 -0.238569
C3    C     C_2   0.533386 0.453633 0.011421 -0.126688
C4    C     C_R   0.776054 0.463232 0.472963 0.845752
C5    C     C_R   0.516451 0.477694 0.233355 -0.066475
C6    C     C_2   0.887461 0.450387 0.462101 -0.276344
C7    C     C_2   0.940503 0.493851 0.512101 -0.152216
C8    C     C_2   0.110192 0.546155 0.540653 -0.327239
C9    C     C_2   0.053465 0.487433 0.498369 -0.138637
C10   C     C_2   0.544740 0.887811 0.529897 -0.279503
C11   C     C_2   0.507173 0.940358 0.486912 -0.149016
C12   C     C_R   0.486394 0.521228 0.909993 0.190491
C13   C     C_2   0.458480 0.110182 0.466822 -0.322255
C14   C     C_2   0.511827 0.053524 0.499641 -0.140290
C15   C     C_R   0.467152 0.223193 0.478858 0.863271
C16   C     C_R   0.533555 0.776305 0.521121 0.845363
C17   C     C_R   0.510416 0.486391 0.309594 0.823341
C18   C     C_R   0.489311 0.513169 0.690410 0.796918
C19   C     C_R   0.484204 0.516433 0.766111 -0.005478
C20   C     C_R   0.505003 0.425906 0.790212 -0.201121
C21   C     C_R   0.504774 0.427747 0.861499 -0.114512
C22   C     C_R   0.462443 0.611217 0.886028 -0.163289
C23   C     C_R   0.460880 0.608847 0.814460 -0.186472
C24   C     C_R   0.567152 0.547694 0.126621 -0.207620
C25   C     C_R   0.562371 0.555992 0.199054 -0.187405
C26   C     C_R   0.476972 0.390093 0.194422 -0.266158
C27   C     C_R   0.483044 0.380082 0.121414 0.402032
C28   C     C_R   0.527748 0.460235 0.087534 0.037781
H1    H     H_    0.520833 0.353179 0.753856 0.164824
H2    H     H_    0.593308 0.624105 0.228368 0.170636
H3    H     H_    0.442532 0.329081 0.220973 0.203138
H4    H     H_    0.569210 0.384816 0.977668 0.190454
H5    H     H_    0.446419 0.683719 0.922584 0.145737
H6    H     H_    0.602292 0.609206 0.100814 0.166876
H7    H     H_    0.444113 0.679473 0.796740 0.164161
H8    H     H_    0.455475 0.595225 0.022186 0.161147
H9    H     H_    0.518280 0.355284 0.877620 0.162694
H10   H     H_    0.303672 0.352633 0.052892 0.350129
H11   H     H_    0.090785 0.434222 0.452102 0.190949
H12   H     H_    0.900545 0.536836 0.561904 0.156549
H13   H     H_    0.073208 0.600796 0.586188 0.159647
H14   H     H_    0.926914 0.412908 0.410586 0.140095
H15   H     H_    0.559274 0.091081 0.537341 0.188717
H16   H     H_    0.470298 0.899901 0.444001 0.156305
H17   H     H_    0.409481 0.072997 0.430113 0.161728
H18   H     H_    0.575927 0.927882 0.575466 0.136357
O1    O     O_3   0.500000 0.500000 0.500000 -0.491287
O2    O     O_R   0.441420 0.437150 0.344000 -0.642837
O3    O     O_R   0.438960 0.578560 0.667440 -0.643283
O4    O     O_R   0.575450 0.541060 0.341470 -0.643702
O5    O     O_R   0.544160 0.443230 0.647100 -0.645293
O6    O     O_2   0.519577 0.203318 0.029187 -0.266137
O7    O     O_2   0.371073 0.205555 0.123584 -0.284438
O8    O     O_3   0.354612 0.303422 0.021227 -0.523948
O9    O     O_R   0.530110 0.266880 0.518530 -0.643600
O10   O     O_R   0.465470 0.738830 0.563940 -0.634469
O11   O     O_R   0.266890 0.467300 0.476120 -0.641029
O12   O     O_R   0.737530 0.526990 0.441410 -0.632228
O13   O     O_R   0.276880 0.592620 0.567490 -0.637318
O14   O     O_R   0.718700 0.413090 0.514970 -0.630908
O15   O     O_R   0.414920 0.276880 0.447500 -0.636720
O16   O     O_R   0.589510 0.717410 0.470040 -0.631201
S1    S     S_3+6 0.431816 0.268512 0.074085 0.026665
Zn1   Zn    Zn3+2 0.571990 0.407410 0.544380 0.972359
Zn2   Zn    Zn3+2 0.407420 0.421690 0.442900 0.980476
Zn3   Zn    Zn3+2 0.598910 0.570150 0.439280 0.978760
Zn4   Zn    Zn3+2 0.421690 0.600750 0.573440 0.979263

loop_
_geom_bond_atom_site_label_1
_geom_bond_atom_site_label_2
_ccdc_geom_bond_type
C17   O4    A    
C10   H18   S    
C19   C23   A    
C7    H12   S    
C16   O10   A    
C24   C25   A    
C6    C7    D    
C1    O11   A    
O2    Zn2   S    
O1    Zn1   S    
O10   Zn4   S    
O7    S1    D    
O1    Zn3   S    
C19   C20   A    
H10   O8    S    
C17   O2    A    
C9    H11   S    
O14   Zn1   S    
C2    C12   S    
O9    Zn1   S    
C4    O14   A    
C1    O13   A    
C2    C3    D    
C15   O15   A    
C10   C11   D    
C21   H9    S    
C26   H3    S    
C10   C16   S    
C13   C14   D    
C8    H13   S    
C13   H17   S    
O4    Zn3   S    
O12   Zn3   S    
C26   C27   A    
C27   S1    S    
C5    C25   A    
O1    Zn4   S    
C3    C28   S    
O1    Zn2   S    
C18   O5    A    
C23   H7    S    
C20   H1    S    
C13   C15   S    
C3    H4    S    
C11   C14   S    
C5    C17   S    
O8    S1    S    
O16   Zn3   S    
C4    O12   A    
C5    C26   A    
C1    C8    S    
O15   Zn2   S    
C11   H16   S    
C12   C22   A    
C20   C21   A    
C4    C6    S    
C18   C19   S    
C6    H14   S    
C2    H8    S    
C25   H2    S    
C7    C9    S    
C22   H5    S    
C22   C23   A    
C8    C9    D    
O3    Zn4   S    
O13   Zn4   S    
C12   C21   A    
C16   O16   A    
C24   H6    S    
O5    Zn1   S    
C24   C28   A    
C18   O3    A    
O11   Zn2   S    
C14   H15   S    
C27   C28   A    
O6    S1    D    
C15   O9    A    
