data_mof_unit_15090.cif
_audit_creation_date              2012-12-10T19:00:15-0500
_audit_creation_method            fapswitch 2.2
_symmetry_space_group_name_H-M    P1
_symmetry_Int_Tables_number       1
_space_group_crystal_system       triclinic
_cell_length_a                    9.559326
_cell_length_b                    10.844569
_cell_length_c                    13.443484
_cell_angle_alpha                 90.865163
_cell_angle_beta                  72.657248
_cell_angle_gamma                 90.832957
_cell_volume                      1330.06048873

loop_
_atom_site_label
_atom_site_type_symbol
_atom_type_description
_atom_site_fract_x
_atom_site_fract_y
_atom_site_fract_z
_atom_type_partial_charge
C1    C     C_R   0.499616 0.737498 0.503238 0.812183
C2    C     C_R   0.432732 0.478553 0.979493 0.087077
C3    C     C_R   0.470480 0.451780 0.871175 0.094487
C4    C     C_R   0.541056 0.464648 0.031550 0.077461
C5    C     C_R   0.679207 0.413493 0.977498 0.171119
C6    C     C_R   0.706436 0.372836 0.874908 -0.246616
C7    C     C_R   0.602749 0.389504 0.823083 -0.198660
C8    C     C_R   0.517127 0.501771 0.135493 -0.255772
C9    C     C_R   0.759103 0.434940 0.131868 -0.202353
C10   C     C_R   0.373710 0.486796 0.814550 -0.097803
C11   C     C_R   0.366627 0.933656 0.527420 0.128729
C12   C     C_R   0.421537 0.493346 0.699903 0.791956
C13   C     C_R   0.496323 0.870307 0.515939 -0.099778
C14   C     C_R   0.621329 0.937409 0.520043 -0.198943
C15   C     C_R   0.620336 0.066108 0.519195 -0.218259
C16   C     C_R   0.494586 0.128756 0.513825 -0.099802
C17   C     C_R   0.365408 0.060624 0.526340 0.131324
C18   C     C_3   0.257449 0.060242 0.465705 -0.492944
C19   C     C_3   0.258481 0.920709 0.467766 -0.452182
C20   C     C_R   0.961140 0.457810 0.415258 0.238359
C21   C     C_R   0.896652 0.561915 0.575202 0.027290
C22   C     C_R   0.044718 0.558778 0.576302 -0.125477
C23   C     C_R   0.498505 0.262101 0.502247 0.791204
C24   C     C_R   0.108460 0.459888 0.414432 0.255480
C25   C     C_3   0.134537 0.336375 0.363517 -0.511363
C26   C     C_3   0.974569 0.333035 0.366029 -0.493375
C27   C     C_R   0.578345 0.498203 0.300095 0.799345
C28   C     C_R   0.787743 0.401037 0.027485 -0.202374
C29   C     C_R   0.622051 0.482339 0.186801 -0.046619
C30   C     C_R   0.232010 0.526637 0.868636 -0.188301
C31   C     C_R   0.188664 0.538371 0.976317 -0.155439
C32   C     C_R   0.287913 0.517188 0.031389 -0.187474
Cu1   Cu    Cu3+1 0.359330 0.500020 0.500010 0.938107
Cu2   Cu    Cu3+1 0.640670 0.499980 0.499990 0.946742
H1    H     H_    0.841924 0.420072 0.170288 0.144324
H2    H     H_    0.720231 0.115539 0.517317 0.158264
H3    H     H_    0.150167 0.098439 0.512073 0.196132
H4    H     H_    0.304925 0.097329 0.385874 0.201032
H5    H     H_    0.152898 0.879724 0.515387 0.197460
H6    H     H_    0.305799 0.877722 0.389469 0.201231
H7    H     H_    0.076846 0.605007 0.638171 0.141766
H8    H     H_    0.212263 0.340414 0.283450 0.196867
H9    H     H_    0.160392 0.268635 0.415224 0.216419
H10   H     H_    0.960122 0.334261 0.287144 0.188876
H11   H     H_    0.808619 0.328084 0.834307 0.145776
H12   H     H_    0.908971 0.261814 0.419010 0.209121
H13   H     H_    0.893545 0.362433 0.986465 0.139971
H14   H     H_    0.416865 0.545657 0.179092 0.145701
H15   H     H_    0.154931 0.551304 0.827490 0.152314
H16   H     H_    0.246465 0.529189 0.114685 0.122376
H17   H     H_    0.078543 0.567923 0.017237 0.148300
H18   H     H_    0.627064 0.349973 0.745700 0.171088
H19   H     H_    0.721859 0.891203 0.518011 0.167892
N1    N     N_R   0.852320 0.499070 0.499340 -0.210161
N2    N     N_R   0.148230 0.499110 0.499340 -0.186869
O1    O     O_R   0.381190 0.680360 0.500000 -0.581213
O2    O     O_R   0.618780 0.680320 0.499990 -0.580297
O3    O     O_R   0.323230 0.500000 0.650990 -0.587673
O4    O     O_R   0.560820 0.499960 0.650980 -0.577722
O5    O     O_R   0.381220 0.319680 0.500010 -0.575776
O6    O     O_R   0.618810 0.319640 0.500000 -0.592918
O7    O     O_R   0.439180 0.500040 0.349020 -0.584489
O8    O     O_R   0.676770 0.500000 0.349010 -0.582171
C33   C     C_1   0.797451 0.638019 0.652462 0.294225
N3    N     N_1   0.718961 0.700085 0.714752 -0.297172

loop_
_geom_bond_atom_site_label_1
_geom_bond_atom_site_label_2
_ccdc_geom_bond_type
C25   H8    S    
Cu1   N2    S    
Cu2   O2    S    
C2    C4    A    
C8    H14   S    
C28   H13   S    
Cu1   O3    S    
C27   O7    A    
C1    O2    A    
C27   C29   S    
C5    C28   A    
C10   C30   A    
C31   C32   A    
C17   C18   S    
C9    C29   A    
C30   C31   A    
C4    C8    A    
C12   O3    A    
C33   N3    T    
C25   H9    S    
Cu1   O1    S    
C2    C3    A    
C18   H4    S    
C26   H10   S    
C3    C10   A    
C13   C14   A    
C24   N2    A    
C23   O5    A    
C11   C13   A    
C32   H16   S    
C22   N2    A    
C27   O8    A    
Cu1   O5    S    
C5    C6    A    
C19   H5    S    
C2    C32   A    
Cu2   O8    S    
C6    H11   S    
C18   H3    S    
Cu1   Cu2   S    
C7    H18   S    
Cu2   N1    S    
C16   C23   S    
C3    C7    A    
C21   N1    A    
C10   C12   S    
C1    O1    A    
Cu2   O4    S    
C22   H7    S    
C1    C13   S    
C19   H6    S    
C8    C29   A    
C15   C16   A    
C16   C17   A    
C15   H2    S    
C23   O6    A    
C14   H19   S    
C24   C25   S    
C20   N1    A    
C18   C19   S    
C9    H1    S    
C26   H12   S    
C14   C15   A    
C11   C19   S    
C21   C33   S    
C25   C26   S    
C21   C22   A    
C12   O4    A    
Cu1   O7    S    
C30   H15   S    
Cu2   O6    S    
C11   C17   A    
C6    C7    A    
C20   C24   A    
C9    C28   A    
C31   H17   S    
C4    C5    A    
C20   C26   S    
