data_mof_unit_19421.cif
_audit_creation_date              2012-12-11T15:34:28-0500
_audit_creation_method            fapswitch 2.2
_symmetry_space_group_name_H-M    P1
_symmetry_Int_Tables_number       1
_space_group_crystal_system       triclinic
_cell_length_a                    15.063809
_cell_length_b                    15.071603
_cell_length_c                    34.935054
_cell_angle_alpha                 90.394082
_cell_angle_beta                  89.952592
_cell_angle_gamma                 60.061888
_cell_volume                      6872.91978544

loop_
_atom_site_label
_atom_site_type_symbol
_atom_type_description
_atom_site_fract_x
_atom_site_fract_y
_atom_site_fract_z
_atom_type_partial_charge
C1    C     C_R   0.302327 0.608131 0.555691 0.556951
C2    C     C_R   0.275414 0.680968 0.381878 -0.149646
C3    C     C_R   0.752554 0.144881 0.266639 -0.117124
C4    C     C_R   0.758404 0.137664 0.226847 -0.111277
C5    C     C_R   0.671135 0.197420 0.204521 0.029307
C6    C     C_R   0.723573 0.226133 0.348779 -0.122359
C7    C     C_R   0.707770 0.245413 0.387997 -0.125630
C8    C     C_R   0.552035 0.235888 0.383960 -0.124465
C9    C     C_R   0.739983 0.583122 0.647778 -0.121846
C10   C     C_R   0.567605 0.217229 0.344766 -0.122400
C11   C     C_R   0.651256 0.216236 0.326703 0.029954
C12   C     C_R   0.619447 0.254881 0.405616 0.022328
C13   C     C_R   0.254445 0.678557 0.343438 -0.129405
C14   C     C_R   0.081406 0.708035 0.094366 0.029494
C15   C     C_R   0.108835 0.609355 0.107234 -0.104224
C16   C     C_R   0.139422 0.581880 0.144959 -0.075452
C17   C     C_R   0.142346 0.652987 0.170030 0.072488
C18   C     C_R   0.122710 0.748429 0.156679 -0.097860
C19   C     C_R   0.092641 0.775860 0.118927 -0.118646
C20   C     C_R   0.256363 0.598062 0.225305 -0.152821
C21   C     C_2   0.131428 0.513239 0.916653 0.233134
C22   C     C_2   0.968634 0.689880 0.223521 0.212389
C23   C     C_2   0.152276 0.534670 0.424131 0.223209
C24   C     C_R   0.206208 0.624877 0.331081 0.023093
C25   C     C_R   0.566715 0.727092 0.649400 -0.123666
C26   C     C_R   0.249193 0.629159 0.408891 0.043602
C27   C     C_R   0.736096 0.025279 0.943256 0.542504
C28   C     C_R   0.746004 0.722986 0.945025 0.538951
C29   C     C_R   0.039203 0.733537 0.948453 0.573685
C30   C     C_R   0.723100 0.038550 0.052872 0.547481
C31   C     C_R   0.733562 0.734424 0.054732 0.544536
C32   C     C_R   0.658515 0.662085 0.668449 0.033014
C33   C     C_R   0.027335 0.744660 0.057893 0.554284
C34   C     C_R   0.553640 0.707894 0.611308 -0.132617
C35   C     C_R   0.674860 0.675917 0.787755 0.344955
C36   C     C_R   0.666308 0.670195 0.710250 0.344596
C37   C     C_R   0.763530 0.600111 0.849293 -0.122903
C38   C     C_R   0.779523 0.610494 0.887929 -0.130361
C39   C     C_R   0.628755 0.779463 0.888864 -0.130832
C40   C     C_R   0.612624 0.768952 0.850207 -0.123786
C41   C     C_R   0.682280 0.680859 0.829706 0.034182
C42   C     C_R   0.610777 0.588415 0.555194 0.546979
C43   C     C_R   0.272900 0.591111 0.264513 -0.126814
C44   C     C_R   0.714755 0.701993 0.907659 0.022907
C45   C     C_R   0.723913 0.071327 0.905161 0.022781
C46   C     C_R   0.634037 0.100282 0.884242 -0.121384
C47   C     C_R   0.630992 0.119434 0.845213 -0.118764
C48   C     C_R   0.717304 0.110903 0.826479 0.030697
C49   C     C_R   0.804321 0.090143 0.847804 -0.121874
C50   C     C_R   0.807734 0.070266 0.886910 -0.127310
C51   C     C_R   0.749910 0.180142 0.766672 -0.113667
C52   C     C_R   0.743368 0.191483 0.726998 -0.111513
C53   C     C_R   0.705653 0.139764 0.704547 0.026519
C54   C     C_R   0.191207 0.617846 0.289911 0.022724
C55   C     C_R   0.590439 0.300171 0.553483 0.541189
C56   C     C_R   0.678550 0.073398 0.722358 -0.115589
C57   C     C_R   0.684283 0.062799 0.761991 -0.114974
C58   C     C_R   0.717892 0.117775 0.784478 0.024265
C59   C     C_R   0.592795 0.178796 0.647534 -0.117718
C60   C     C_R   0.564999 0.216941 0.610610 -0.124918
C61   C     C_R   0.724428 0.218242 0.603792 -0.123746
C62   C     C_R   0.752391 0.179691 0.640707 -0.119430
C63   C     C_R   0.685199 0.163055 0.663397 0.032313
C64   C     C_R   0.628820 0.240649 0.588936 0.021752
C65   C     C_R   0.093873 0.645896 0.275723 -0.145015
C66   C     C_R   0.091792 0.698514 0.910836 0.040012
C67   C     C_R   0.299274 0.610796 0.446383 0.591790
C68   C     C_R   0.096412 0.772519 0.887850 -0.144648
C69   C     C_R   0.113639 0.757235 0.848725 -0.127094
C70   C     C_R   0.126997 0.667517 0.831349 0.022639
C71   C     C_R   0.132835 0.588783 0.854343 -0.140202
C72   C     C_R   0.117998 0.602077 0.894157 0.011218
C73   C     C_R   0.206904 0.566954 0.771363 -0.107336
C74   C     C_R   0.217080 0.561467 0.731589 -0.108398
C75   C     C_R   0.153769 0.646828 0.709022 0.030973
C76   C     C_R   0.075507 0.654020 0.236241 0.025514
C77   C     C_R   0.077495 0.736394 0.726759 -0.110346
C78   C     C_R   0.067080 0.741765 0.766478 -0.108017
C79   C     C_R   0.608036 0.589920 0.445359 0.542444
C80   C     C_R   0.133234 0.657908 0.789188 0.036269
C81   C     C_R   0.179595 0.725951 0.650651 -0.116410
C82   C     C_R   0.215190 0.717090 0.613152 -0.124317
C83   C     C_R   0.231939 0.548946 0.607994 -0.119894
C84   C     C_R   0.196843 0.557670 0.645516 -0.120524
C85   C     C_R   0.173679 0.644746 0.667561 0.031868
C86   C     C_R   0.245192 0.626928 0.591950 0.025430
C87   C     C_R   0.158089 0.631720 0.210930 0.031988
C88   C     C_R   0.692568 0.718544 0.090738 0.024434
C89   C     C_R   0.607286 0.800561 0.108704 -0.123481
C90   C     C_R   0.581898 0.791591 0.146355 -0.118822
C91   C     C_R   0.587750 0.303139 0.443708 0.538658
C92   C     C_R   0.641193 0.700467 0.166558 0.037227
C93   C     C_R   0.721726 0.616238 0.147598 -0.101206
C94   C     C_R   0.747011 0.625107 0.110037 -0.110318
C95   C     C_R   0.638753 0.605491 0.224550 -0.119449
C96   C     C_R   0.638928 0.596019 0.264171 -0.117645
C97   C     C_R   0.626120 0.676804 0.288094 0.025823
C98   C     C_R   0.172609 0.579293 0.357961 -0.145932
C99   C     C_R   0.609397 0.768650 0.271883 -0.119505
C100  C     C_R   0.610209 0.777851 0.232184 -0.107406
C101  C     C_R   0.626628 0.695657 0.208167 0.032992
C102  C     C_R   0.552101 0.736541 0.353385 -0.124359
C103  C     C_R   0.632198 0.623423 0.591687 0.023072
C104  C     C_R   0.548894 0.716341 0.392134 -0.131328
C105  C     C_R   0.707885 0.555303 0.384873 -0.123480
C106  C     C_R   0.710456 0.575119 0.346146 -0.123414
C107  C     C_R   0.630721 0.664020 0.329887 0.029358
C108  C     C_R   0.624729 0.623608 0.407874 0.023507
C109  C     C_R   0.192618 0.581619 0.397079 0.007193
C110  C     C_R   0.699600 0.100786 0.088036 0.024812
C111  C     C_R   0.773839 0.119939 0.104217 -0.124313
C112  C     C_R   0.761357 0.158572 0.141390 -0.121557
C113  C     C_R   0.674546 0.178592 0.162926 0.032802
C114  C     C_R   0.596331 0.167888 0.145561 -0.117340
C115  C     C_R   0.726965 0.564000 0.609745 -0.127463
C116  C     C_R   0.608652 0.129487 0.108371 -0.122494
C117  C     C_R   0.578784 0.266976 0.222638 -0.121606
C118  C     C_R   0.572856 0.273790 0.262433 -0.119439
C119  C     C_R   0.659224 0.211370 0.284694 0.027563
Cr1   Cr    Cr6+3 0.421670 0.426920 0.499620 1.054424
Cr2   Cr    Cr6+3 0.427030 0.651190 0.500980 1.015522
Cr3   Cr    Cr6+3 0.651280 0.421870 0.499380 1.012845
Cr4   Cr    Cr6+3 0.910810 0.908010 0.001130 1.013622
Cr5   Cr    Cr6+3 0.682800 0.909890 0.998370 1.015677
Cr6   Cr    Cr6+3 0.908370 0.682300 0.002180 1.064429
H1    H     H_    0.789341 0.499042 0.595218 0.132810
H2    H     H_    0.775659 0.234914 0.587614 0.126320
H3    H     H_    0.079414 0.846158 0.899507 0.133270
H4    H     H_    0.191389 0.494757 0.657799 0.106812
H5    H     H_    0.259240 0.501556 0.788212 0.107315
H6    H     H_    0.112799 0.817565 0.831770 0.110582
H7    H     H_    0.027029 0.802707 0.709920 0.109931
H8    H     H_    0.008030 0.812074 0.779518 0.110845
H9    H     H_    0.162713 0.793718 0.667162 0.107344
H10   H     H_    0.846162 0.549167 0.901668 0.131603
H11   H     H_    0.224393 0.778498 0.601563 0.127797
H12   H     H_    0.878182 0.047925 0.902236 0.124067
H13   H     H_    0.146994 0.517544 0.841160 0.090540
H14   H     H_    0.253731 0.478733 0.592307 0.131906
H15   H     H_    0.563632 0.873468 0.094497 0.126326
H16   H     H_    0.812923 0.560423 0.096923 0.130633
H17   H     H_    0.772735 0.519098 0.328513 0.104751
H18   H     H_    0.649615 0.525287 0.276203 0.109908
H19   H     H_    0.649887 0.541634 0.206718 0.103087
H20   H     H_    0.518338 0.857096 0.160147 0.100739
H21   H     H_    0.599300 0.831783 0.289933 0.106183
H22   H     H_    0.812357 0.532797 0.661453 0.132858
H23   H     H_    0.824912 0.166384 0.652015 0.103589
H24   H     H_    0.602292 0.847659 0.220365 0.112030
H25   H     H_    0.490022 0.805744 0.341316 0.103767
H26   H     H_    0.483895 0.770468 0.409156 0.122507
H27   H     H_    0.769414 0.545293 0.162515 0.107660
H28   H     H_    0.767609 0.483316 0.396116 0.128257
H29   H     H_    0.844242 0.099684 0.089033 0.124064
H30   H     H_    0.549893 0.116016 0.096586 0.128190
H31   H     H_    0.512170 0.207444 0.328274 0.105731
H32   H     H_    0.500632 0.327455 0.275872 0.107251
H33   H     H_    0.510829 0.314693 0.206041 0.102192
H34   H     H_    0.763403 0.244326 0.714121 0.112673
H35   H     H_    0.502900 0.789334 0.664439 0.131815
H36   H     H_    0.821793 0.168127 0.153963 0.100677
H37   H     H_    0.819940 0.096057 0.283331 0.105787
H38   H     H_    0.830106 0.082031 0.213629 0.109874
H39   H     H_    0.788867 0.225229 0.335358 0.102236
H40   H     H_    0.761162 0.259566 0.403943 0.125509
H41   H     H_    0.483586 0.242106 0.396722 0.131374
H42   H     H_    0.101556 0.555357 0.088755 0.127893
H43   H     H_    0.071972 0.852276 0.109770 0.125257
H44   H     H_    0.817565 0.530477 0.834435 0.131138
H45   H     H_    0.776063 0.223133 0.783566 0.112015
H46   H     H_    0.319586 0.580940 0.206104 0.110583
H47   H     H_    0.155423 0.507623 0.155141 0.107922
H48   H     H_    0.132445 0.540386 0.348302 0.090412
H49   H     H_    0.125673 0.803394 0.176020 0.105315
H50   H     H_    0.318606 0.717926 0.390035 0.131887
H51   H     H_    0.577203 0.850760 0.903358 0.129207
H52   H     H_    0.548590 0.832046 0.836009 0.130698
H53   H     H_    0.567991 0.102349 0.897487 0.131820
H54   H     H_    0.538934 0.167646 0.664451 0.104904
H55   H     H_    0.871614 0.083513 0.833830 0.102571
H56   H     H_    0.562324 0.137508 0.829334 0.108089
H57   H     H_    0.479871 0.755431 0.598060 0.129147
H58   H     H_    0.121792 0.453796 0.902898 0.086676
H59   H     H_    0.277509 0.491959 0.718597 0.107681
H60   H     H_    0.528844 0.182179 0.161601 0.103185
H61   H     H_    0.278457 0.716528 0.323112 0.114899
H62   H     H_    0.348929 0.567950 0.275121 0.112573
H63   H     H_    0.031054 0.666560 0.295588 0.092242
H64   H     H_    0.909547 0.706200 0.244725 0.100270
H65   H     H_    0.128429 0.482004 0.413465 0.090212
H66   H     H_    0.650965 0.031281 0.705701 0.113191
H67   H     H_    0.661447 0.012375 0.775183 0.118282
H68   H     H_    0.490849 0.233383 0.599966 0.128368
N1    N     N_R   0.751739 0.598909 0.767384 -0.237156
N2    N     N_R   0.747396 0.595940 0.729435 -0.237277
N3    N     N_R   0.589438 0.747475 0.730593 -0.239453
N4    N     N_R   0.593910 0.750590 0.768592 -0.239324
O1    O     O_R   0.502070 0.323090 0.541280 -0.520663
O2    O     O_R   0.831550 0.656950 0.958960 -0.516408
O3    O     O_R   0.998590 0.685540 0.963930 -0.450631
O4    O     O_R   0.338340 0.520690 0.539540 -0.489936
O5    O     O_R   0.008220 0.831200 0.045060 -0.521112
O6    O     O_R   0.813270 0.997930 0.038810 -0.502248
O7    O     O_R   0.657500 0.016560 0.039940 -0.518287
O8    O     O_R   0.685680 0.820940 0.038120 -0.503509
O9    O     O_R   0.822130 0.666070 0.043610 -0.514996
O10   O     O_R   0.989860 0.694000 0.042400 -0.489342
O11   O     O_3   0.833990 0.833400 0.000560 -0.247094
O12   O     O_R   0.520720 0.641670 0.461580 -0.506376
O13   O     O_R   0.324760 0.674070 0.543580 -0.520111
O14   O     O_R   0.522400 0.640310 0.540110 -0.503420
O15   O     O_R   0.675940 0.500630 0.542210 -0.517107
O16   O     O_R   0.641790 0.337020 0.538150 -0.502343
O17   O     O_R   0.500260 0.324550 0.456580 -0.518200
O18   O     O_R   0.336660 0.522040 0.461020 -0.457809
O19   O     O_R   0.322940 0.675540 0.458880 -0.529252
O20   O     O_2   0.158961 0.502300 0.949987 -0.496661
O21   O     O_2   0.944473 0.701741 0.189826 -0.499298
O22   O     O_2   0.140938 0.557185 0.458118 -0.497118
O23   O     O_R   0.674120 0.502090 0.457500 -0.518475
O24   O     O_R   0.640110 0.338380 0.459630 -0.504989
O25   O     O_3   0.499990 0.499990 0.499990 -0.248151
O26   O     O_R   0.017640 0.822070 0.960410 -0.534231
O27   O     O_R   0.822000 0.989470 0.960340 -0.505879
O28   O     O_R   0.666920 0.007430 0.955290 -0.517933
O29   O     O_R   0.694410 0.812480 0.959650 -0.505044

loop_
_geom_bond_atom_site_label_1
_geom_bond_atom_site_label_2
_ccdc_geom_bond_type
C105  H28   S    
C55   O16   A    
C93   C94   A    
Cr5   O8    S    
C73   C74   A    
C46   H53   S    
C12   C91   S    
C67   O18   A    
C95   C96   A    
C22   C76   S    
C47   H56   S    
C11   C119  S    
C42   C103  S    
C14   C33   S    
C83   H14   S    
Cr5   O28   S    
C57   C58   A    
C50   H12   S    
C81   H9    S    
C54   C65   A    
C77   C78   A    
Cr1   O18   S    
C112  H36   S    
C27   O27   A    
C62   C63   A    
C114  H60   S    
Cr3   O23   S    
Cr5   O7    S    
C83   C84   A    
C24   C98   A    
C26   C67   S    
C32   C36   S    
C104  H26   S    
C31   O8    A    
C91   O17   A    
C115  H1    S    
C37   H44   S    
C78   C80   A    
C55   O1    A    
C74   H59   S    
C106  C107  A    
Cr1   O17   S    
C15   C16   A    
C20   C87   A    
Cr6   O9    S    
N3    N4    A    
C56   C57   A    
C28   C44   S    
C29   O26   A    
C18   C19   A    
C2    C13   A    
C118  C119  A    
C92   C93   A    
C116  H30   S    
C3    H37   S    
C110  C111  A    
C75   C85   S    
C66   C72   A    
C99   C100  A    
Cr6   O3    S    
C16   C17   A    
Cr3   O24   S    
C79   C108  S    
Cr1   O1    S    
Cr2   O25   S    
C78   H8    S    
C70   C71   A    
C13   H61   S    
Cr2   O12   S    
C91   O24   A    
C57   H67   S    
C68   H3    S    
C35   N1    A    
C8    C12   A    
C25   C34   A    
C49   H55   S    
C27   C45   S    
C25   C32   A    
N1    N2    A    
C22   O21   D    
C56   H66   S    
C1    O4    A    
C59   C60   A    
C98   C109  A    
C21   O20   D    
Cr5   O11   S    
C82   H11   S    
Cr1   O4    S    
C15   H42   S    
C67   O19   A    
C69   C70   A    
C112  C113  A    
C97   C99   A    
C60   H68   S    
C106  H17   S    
C71   H13   S    
C23   O22   D    
C55   C64   S    
C7    C12   A    
C23   C109  S    
C105  C108  A    
C88   C94   A    
C28   O2    A    
C66   C68   A    
C21   C72   S    
C70   C80   S    
C51   C52   A    
C9    C115  A    
Cr2   O19   S    
C84   C85   A    
C31   O9    A    
C2    C26   A    
C74   C75   A    
C10   H31   S    
C39   C40   A    
C98   H48   S    
C33   O5    A    
C27   O28   A    
C45   C46   A    
Cr4   O26   S    
C104  C108  A    
Cr6   O10   S    
C81   C82   A    
C29   C66   S    
C13   C24   A    
C5    C117  A    
C114  C116  A    
C77   H7    S    
C61   C64   A    
C103  C115  A    
C36   N3    A    
C38   C44   A    
C37   C38   A    
C30   O6    A    
C2    H50   S    
C75   C77   A    
C16   H47   S    
C43   C54   A    
C90   C92   A    
C47   C48   A    
C26   C109  A    
C43   H62   S    
C69   H6    S    
C89   H15   S    
C73   H5    S    
C96   C97   A    
C20   H46   S    
C25   H35   S    
C17   C18   A    
C1    O13   A    
C4    H38   S    
C102  C107  A    
C61   H2    S    
C51   C58   A    
Cr2   O13   S    
C22   H64   S    
C102  C104  A    
C65   C76   A    
C76   C87   A    
C6    C7    A    
C3    C119  A    
C92   C101  S    
C102  H25   S    
C18   H49   S    
C40   C41   A    
C99   H21   S    
C30   C110  S    
Cr3   O15   S    
C9    C32   A    
C19   H43   S    
C28   O29   A    
C3    C4    A    
C110  C116  A    
C6    C11   A    
C20   C43   A    
C42   O15   A    
C52   C53   A    
C35   N4    A    
C113  C114  A    
Cr4   O27   S    
C53   C56   A    
C1    C86   S    
C21   H58   S    
C46   C47   A    
C33   O10   A    
Cr1   O25   S    
C31   C88   S    
C111  C112  A    
C5    C113  S    
C117  H33   S    
C17   C87   S    
C94   H16   S    
C14   C19   A    
C68   C69   A    
C51   H45   S    
C29   O3    A    
C6    H39   S    
C39   H51   S    
C118  H32   S    
C79   O12   A    
Cr5   O29   S    
C48   C58   S    
C39   C44   A    
C7    H40   S    
C100  H24   S    
C90   H20   S    
C30   O7    A    
C105  C106  A    
Cr6   O11   S    
C59   C63   A    
C34   C103  A    
Cr3   O16   S    
Cr4   O6    S    
C60   C64   A    
C59   H54   S    
C36   N2    A    
C71   C72   A    
Cr4   O5    S    
C82   C86   A    
C117  C118  A    
C96   H18   S    
C53   C63   S    
C79   O23   A    
C45   C50   A    
C52   H34   S    
C48   C49   A    
C4    C5    A    
C8    H41   S    
C100  C101  A    
C38   H10   S    
C73   C80   A    
C9    H22   S    
Cr4   O11   S    
C34   H57   S    
C84   H4    S    
Cr2   O14   S    
C37   C41   A    
C61   C62   A    
C35   C41   S    
C111  H29   S    
C65   H63   S    
C10   C11   A    
C40   H52   S    
C97   C107  S    
C95   H19   S    
C83   C86   A    
C88   C89   A    
Cr6   O2    S    
C8    C10   A    
C49   C50   A    
Cr3   O25   S    
C14   C15   A    
C93   H27   S    
C62   H23   S    
C89   C90   A    
C24   C54   S    
C23   H65   S    
C81   C85   A    
C42   O14   A    
C95   C101  A    
