data_mof_unit_21433.cif
_audit_creation_date              2012-12-11T15:34:04-0500
_audit_creation_method            fapswitch 2.2
_symmetry_space_group_name_H-M    P1
_symmetry_Int_Tables_number       1
_space_group_crystal_system       triclinic
_cell_length_a                    15.042032
_cell_length_b                    15.056644
_cell_length_c                    34.869644
_cell_angle_alpha                 90.739026
_cell_angle_beta                  90.098568
_cell_angle_gamma                 60.084361
_cell_volume                      6844.45456673

loop_
_atom_site_label
_atom_site_type_symbol
_atom_type_description
_atom_site_fract_x
_atom_site_fract_y
_atom_site_fract_z
_atom_type_partial_charge
C1    C     C_R   0.301933 0.608688 0.555830 0.544756
C2    C     C_R   0.269846 0.685776 0.381313 -0.135420
C3    C     C_R   0.650831 0.125395 0.264649 -0.096290
C4    C     C_R   0.650035 0.122798 0.224732 -0.110410
C5    C     C_R   0.660752 0.195744 0.203743 0.027423
C6    C     C_R   0.730550 0.216385 0.348975 0.059122
C7    C     C_R   0.710062 0.241148 0.388169 -0.133623
C8    C     C_R   0.551677 0.236948 0.383104 -0.129786
C9    C     C_R   0.739444 0.573526 0.649472 -0.004333
C10   C     C_R   0.570083 0.213948 0.344173 -0.152166
C11   C     C_R   0.656860 0.207372 0.326410 0.007012
C12   C     C_R   0.619326 0.254850 0.405145 -0.007000
C13   C     C_R   0.257763 0.677942 0.342070 -0.119793
C14   C     C_R   0.085568 0.707124 0.094204 0.052589
C15   C     C_R   0.155853 0.600866 0.099107 -0.014900
C16   C     C_R   0.197419 0.564777 0.135470 -0.006216
C17   C     C_R   0.172138 0.632716 0.166508 0.056630
C18   C     C_R   0.108648 0.737546 0.161252 -0.079718
C19   C     C_R   0.063942 0.775779 0.125734 -0.012376
C20   C     C_R   0.295803 0.578940 0.221027 0.062222
C21   C     C_3   0.853383 0.169002 0.656175 -0.410147
C22   C     C_3   0.656348 0.349188 0.717259 -0.380333
C23   C     C_3   0.515501 0.241764 0.834111 -0.390615
C24   C     C_R   0.232115 0.606393 0.327725 0.021465
C25   C     C_3   0.514171 0.171378 0.672555 -0.392006
C26   C     C_2   0.354027 0.469548 0.719311 0.545466
C27   C     C_3   0.210754 0.812645 0.600531 -0.381648
C28   C     C_3   0.519634 0.887666 0.086771 -0.361579
C29   C     C_3   0.844032 0.507645 0.666685 -0.389874
C30   C     C_2   0.503202 0.179664 0.078681 0.575233
C31   C     C_2   0.828948 0.200108 0.332632 0.557076
C32   C     C_3   0.472182 0.253722 0.158601 -0.354401
C33   C     C_3   0.186721 0.524702 0.066317 -0.378507
C34   C     C_3   0.987921 0.888680 0.123269 -0.377840
C35   C     C_R   0.561263 0.710672 0.653026 -0.129673
C36   C     C_3   0.415743 0.543695 0.277412 -0.374747
C37   C     C_2   0.376764 0.572327 0.194745 0.558351
C38   C     C_2   0.024670 0.614484 0.216519 0.573951
C39   C     C_3   0.190956 0.496709 0.419122 -0.382434
C40   C     C_3   0.534176 0.203482 0.916843 -0.376261
C41   C     C_R   0.255533 0.622837 0.407086 0.036906
C42   C     C_R   0.735414 0.027048 0.943778 0.540791
C43   C     C_R   0.745348 0.722463 0.945302 0.544997
C44   C     C_R   0.038446 0.733838 0.948361 0.539009
C45   C     C_R   0.721546 0.041677 0.052216 0.552537
C46   C     C_R   0.732873 0.734437 0.054716 0.541870
C47   C     C_R   0.653986 0.645543 0.671550 0.047976
C48   C     C_R   0.027539 0.744845 0.058014 0.543381
C49   C     C_R   0.549627 0.698341 0.614087 -0.135247
C50   C     C_R   0.657847 0.661866 0.791404 0.345452
C51   C     C_R   0.656925 0.651588 0.713729 0.344413
C52   C     C_R   0.747374 0.589008 0.853118 -0.123515
C53   C     C_R   0.768739 0.603610 0.890824 -0.130819
C54   C     C_R   0.624331 0.776871 0.890370 -0.131630
C55   C     C_R   0.603355 0.762470 0.852635 -0.123570
C56   C     C_R   0.667346 0.669937 0.833153 0.032707
C57   C     C_R   0.610662 0.588290 0.555348 0.545446
C58   C     C_R   0.311148 0.572860 0.261245 -0.010848
C59   C     C_R   0.710017 0.699146 0.909184 0.021471
C60   C     C_R   0.724057 0.074964 0.906129 0.025697
C61   C     C_R   0.627761 0.148706 0.891097 0.007800
C62   C     C_R   0.619769 0.171112 0.851325 0.027585
C63   C     C_R   0.709582 0.123841 0.828134 0.028362
C64   C     C_R   0.804639 0.058308 0.844376 -0.144368
C65   C     C_R   0.811843 0.034018 0.882760 -0.144477
C66   C     C_R   0.686800 0.231123 0.771301 -0.088420
C67   C     C_R   0.680728 0.245358 0.731586 0.021519
C68   C     C_R   0.696606 0.162855 0.706945 0.045133
C69   C     C_R   0.228554 0.591650 0.285872 -0.008824
C70   C     C_R   0.590499 0.300310 0.553508 0.546504
C71   C     C_R   0.722054 0.067717 0.722450 -0.136149
C72   C     C_R   0.727117 0.055062 0.761972 -0.124658
C73   C     C_R   0.707184 0.137330 0.786469 0.006578
C74   C     C_R   0.588463 0.188710 0.649256 -0.013548
C75   C     C_R   0.563278 0.222075 0.611499 -0.113705
C76   C     C_R   0.723600 0.221368 0.604179 -0.119176
C77   C     C_R   0.751068 0.187302 0.641761 -0.007754
C78   C     C_R   0.680594 0.176215 0.665192 0.051580
C79   C     C_R   0.628084 0.243172 0.589442 -0.007918
C80   C     C_R   0.138222 0.601652 0.270527 -0.138243
C81   C     C_R   0.092253 0.696858 0.911305 0.021150
C82   C     C_R   0.300711 0.609563 0.445746 0.540668
C83   C     C_R   0.110392 0.763345 0.888970 -0.131320
C84   C     C_R   0.134653 0.742122 0.850252 -0.122520
C85   C     C_R   0.143343 0.653207 0.833454 0.029802
C86   C     C_R   0.134874 0.581819 0.856243 -0.118905
C87   C     C_R   0.108804 0.603797 0.895019 -0.126329
C88   C     C_R   0.239669 0.558209 0.774928 -0.116958
C89   C     C_R   0.254496 0.552292 0.734969 0.075174
C90   C     C_R   0.176838 0.628755 0.711697 0.000894
C91   C     C_R   0.123778 0.601954 0.230961 0.034248
C92   C     C_R   0.088008 0.708212 0.728930 -0.148373
C93   C     C_R   0.076470 0.714512 0.768544 -0.118291
C94   C     C_R   0.607845 0.589502 0.445220 0.541558
C95   C     C_R   0.152684 0.640330 0.791668 -0.000634
C96   C     C_R   0.186685 0.718123 0.653995 -0.080678
C97   C     C_R   0.213879 0.717621 0.615533 0.000087
C98   C     C_R   0.236049 0.546447 0.608170 -0.125013
C99   C     C_R   0.206898 0.549277 0.646236 -0.082628
C100  C     C_R   0.188602 0.632320 0.669882 0.052228
C101  C     C_R   0.245909 0.627364 0.592805 0.035071
C102  C     C_R   0.200931 0.596107 0.206056 -0.036997
C103  C     C_R   0.689866 0.716461 0.090194 0.031071
C104  C     C_R   0.594479 0.790617 0.106828 -0.019363
C105  C     C_R   0.569609 0.775191 0.144019 -0.084029
C106  C     C_R   0.587431 0.303587 0.443436 0.546877
C107  C     C_R   0.637026 0.688263 0.164759 0.028318
C108  C     C_R   0.726134 0.611683 0.146962 -0.128725
C109  C     C_R   0.751909 0.625366 0.110172 -0.133864
C110  C     C_R   0.644262 0.589021 0.222739 -0.063905
C111  C     C_R   0.643917 0.580652 0.262461 -0.106168
C112  C     C_R   0.620509 0.665587 0.286246 0.029418
C113  C     C_R   0.207760 0.550683 0.353311 -0.098016
C114  C     C_R   0.593361 0.760098 0.269722 -0.097444
C115  C     C_R   0.594037 0.768446 0.229994 -0.092802
C116  C     C_R   0.621350 0.682506 0.206190 0.059447
C117  C     C_R   0.545301 0.727433 0.351461 -0.125922
C118  C     C_R   0.630572 0.620472 0.592878 0.008313
C119  C     C_R   0.544124 0.710734 0.390634 -0.128835
C120  C     C_R   0.706749 0.552660 0.384254 -0.117859
C121  C     C_R   0.707627 0.569236 0.345097 -0.109730
C122  C     C_R   0.625208 0.654860 0.328218 0.024760
C123  C     C_R   0.622895 0.621123 0.407111 0.016480
C124  C     C_R   0.217845 0.558920 0.392982 -0.001975
C125  C     C_R   0.693680 0.111583 0.086176 -0.012844
C126  C     C_R   0.772598 0.116306 0.105882 -0.168999
C127  C     C_R   0.758125 0.153032 0.143395 -0.139861
C128  C     C_R   0.663665 0.188277 0.161648 0.023060
C129  C     C_R   0.578087 0.200496 0.140486 -0.010398
C130  C     C_R   0.726459 0.561972 0.610295 -0.108896
C131  C     C_R   0.592823 0.162901 0.102117 0.069982
C132  C     C_R   0.672255 0.271604 0.222954 -0.106148
C133  C     C_R   0.671834 0.274950 0.263005 -0.079076
C134  C     C_R   0.662254 0.201123 0.284100 0.070926
Cr1   Cr    Cr6+3 0.421670 0.426920 0.499620 1.004745
Cr2   Cr    Cr6+3 0.427030 0.651190 0.500980 1.008895
Cr3   Cr    Cr6+3 0.651280 0.421870 0.499380 1.018555
Cr4   Cr    Cr6+3 0.910810 0.908010 0.001130 1.010122
Cr5   Cr    Cr6+3 0.682800 0.909890 0.998370 1.028883
Cr6   Cr    Cr6+3 0.908370 0.682300 0.002180 1.009971
H1    H     H_    0.790083 0.503175 0.593785 0.128258
H2    H     H_    0.098644 0.835470 0.900616 0.127871
H3    H     H_    0.095552 0.551072 0.911565 0.124285
H4    H     H_    0.205342 0.483755 0.657936 0.111537
H5    H     H_    0.298642 0.502247 0.793351 0.138397
H6    H     H_    0.142324 0.797236 0.832958 0.112128
H7    H     H_    0.028337 0.767064 0.711599 0.110447
H8    H     H_    0.008503 0.778175 0.781290 0.115871
H9    H     H_    0.168892 0.783754 0.672291 0.106131
H10   H     H_    0.834652 0.541984 0.904776 0.130712
H11   H     H_    0.142084 0.512484 0.843530 0.112537
H12   H     H_    0.886267 0.977868 0.893633 0.135874
H13   H     H_    0.256862 0.477613 0.591466 0.124031
H14   H     H_    0.824269 0.566287 0.098326 0.141032
H15   H     H_    0.771140 0.513373 0.327746 0.135481
H16   H     H_    0.662604 0.507643 0.274660 0.097123
H17   H     H_    0.664212 0.522067 0.204966 0.108062
H18   H     H_    0.499178 0.833058 0.157559 0.116895
H19   H     H_    0.575341 0.826468 0.287554 0.106001
H20   H     H_    0.577855 0.840959 0.217985 0.102139
H21   H     H_    0.480975 0.794085 0.339010 0.105987
H22   H     H_    0.478331 0.764791 0.407476 0.125350
H23   H     H_    0.673693 0.293745 0.790526 0.122679
H24   H     H_    0.779669 0.543875 0.162399 0.112567
H25   H     H_    0.768608 0.482924 0.396059 0.152008
H26   H     H_    0.848463 0.083907 0.093423 0.132765
H27   H     H_    0.513061 0.207118 0.327371 0.113011
H28   H     H_    0.678296 0.335353 0.277602 0.100571
H29   H     H_    0.680427 0.328390 0.206992 0.109800
H30   H     H_    0.495338 0.767451 0.669133 0.133996
H31   H     H_    0.823279 0.146135 0.159238 0.124471
H32   H     H_    0.642576 0.068359 0.280403 0.111333
H33   H     H_    0.641856 0.063368 0.210092 0.117508
H34   H     H_    0.735493 0.003959 0.703852 0.114518
H35   H     H_    0.763766 0.252667 0.405287 0.159062
H36   H     H_    0.480963 0.247163 0.395319 0.135943
H37   H     H_    0.272768 0.724689 0.322706 0.125146
H38   H     H_    0.797420 0.516353 0.838977 0.131994
H39   H     H_    0.246348 0.483398 0.140056 0.142323
H40   H     H_    0.076888 0.612773 0.289790 0.155069
H41   H     H_    0.184476 0.497843 0.342206 0.110388
H42   H     H_    0.089706 0.789056 0.185764 0.118391
H43   H     H_    0.297625 0.736069 0.391125 0.131868
H44   H     H_    0.576955 0.851077 0.903931 0.132582
H45   H     H_    0.744685 0.981665 0.773550 0.122941
H46   H     H_    0.540086 0.825673 0.838180 0.133241
H47   H     H_    0.870981 0.137045 0.685457 0.142847
H48   H     H_    0.915290 0.113491 0.636804 0.125556
H49   H     H_    0.854289 0.242316 0.656437 0.129536
H50   H     H_    0.645774 0.356825 0.685821 0.142980
H51   H     H_    0.584629 0.409499 0.731031 0.178862
H52   H     H_    0.719763 0.363528 0.725009 0.145632
H53   H     H_    0.460839 0.215600 0.841919 0.129868
H54   H     H_    0.486093 0.321139 0.845074 0.129904
H55   H     H_    0.516414 0.243770 0.802396 0.175548
H56   H     H_    0.490197 0.236928 0.600023 0.134438
H57   H     H_    0.442941 0.191598 0.656432 0.122414
H58   H     H_    0.550368 0.089417 0.680337 0.134528
H59   H     H_    0.492199 0.218910 0.699108 0.198028
H60   H     H_    0.460776 0.420038 0.677206 0.334336
H61   H     H_    0.171418 0.878397 0.620917 0.104570
H62   H     H_    0.289764 0.798668 0.596221 0.154806
H63   H     H_    0.167638 0.835560 0.573173 0.145735
H64   H     H_    0.446209 0.930692 0.102882 0.129252
H65   H     H_    0.552415 0.939005 0.084217 0.196468
H66   H     H_    0.501351 0.868985 0.057964 0.138977
H67   H     H_    0.873460 0.022513 0.826783 0.112757
H68   H     H_    0.903941 0.469117 0.644170 0.110689
H69   H     H_    0.865684 0.555544 0.684480 0.150822
H70   H     H_    0.844045 0.446942 0.684399 0.154177
H71   H     H_    0.374464 0.170098 0.074468 0.332333
H72   H     H_    0.939997 0.130648 0.292450 0.339068
H73   H     H_    0.416700 0.313971 0.139278 0.169167
H74   H     H_    0.447186 0.197041 0.164109 0.161980
H75   H     H_    0.469505 0.292616 0.186169 0.150864
H76   H     H_    0.252313 0.448844 0.074119 0.139219
H77   H     H_    0.121743 0.513205 0.058272 0.154755
H78   H     H_    0.475097 0.745219 0.601281 0.126155
H79   H     H_    0.210604 0.552651 0.041223 0.135787
H80   H     H_    0.017114 0.925320 0.103377 0.152386
H81   H     H_    0.913033 0.899811 0.113192 0.153755
H82   H     H_    0.974535 0.928463 0.151513 0.119059
H83   H     H_    0.425081 0.516185 0.307304 0.134171
H84   H     H_    0.476859 0.479581 0.260357 0.140001
H85   H     H_    0.427931 0.610537 0.276701 0.167451
H86   H     H_    0.463435 0.507952 0.147419 0.341017
H87   H     H_    0.946930 0.593624 0.173360 0.337924
H88   H     H_    0.139829 0.473407 0.404592 0.118403
H89   H     H_    0.775323 0.235368 0.587043 0.131619
H90   H     H_    0.261621 0.426019 0.427745 0.156204
H91   H     H_    0.149684 0.542706 0.444954 0.132959
H92   H     H_    0.494447 0.287199 0.911775 0.124910
H93   H     H_    0.480637 0.174381 0.910940 0.137499
H94   H     H_    0.553889 0.194262 0.947726 0.171736
N1    N     N_R   0.716200 0.571515 0.772600 -0.246969
N2    N     N_R   0.715064 0.566424 0.734539 -0.250080
N3    N     N_R   0.596912 0.741593 0.732538 -0.238227
N4    N     N_R   0.597821 0.746727 0.770629 -0.236320
O1    O     O_R   0.502070 0.323090 0.541280 -0.518985
O2    O     O_R   0.831550 0.656950 0.958960 -0.518449
O3    O     O_R   0.998590 0.685540 0.963930 -0.502263
O4    O     O_R   0.338340 0.520690 0.539540 -0.504589
O5    O     O_R   0.008220 0.831200 0.045060 -0.520445
O6    O     O_R   0.813270 0.997930 0.038810 -0.510036
O7    O     O_R   0.657500 0.016560 0.039940 -0.485739
O8    O     O_R   0.685680 0.820940 0.038120 -0.508087
O9    O     O_R   0.822130 0.666070 0.043610 -0.517676
O10   O     O_R   0.989860 0.694000 0.042400 -0.498447
O11   O     O_3   0.833990 0.833400 0.000560 -0.238270
O12   O     O_R   0.520720 0.641670 0.461580 -0.503417
O13   O     O_R   0.324760 0.674070 0.543580 -0.520098
O14   O     O_R   0.522400 0.640310 0.540110 -0.501027
O15   O     O_R   0.675940 0.500630 0.542210 -0.519560
O16   O     O_R   0.641790 0.337020 0.538150 -0.500467
O17   O     O_R   0.500260 0.324550 0.456580 -0.520164
O18   O     O_R   0.336660 0.522040 0.461020 -0.501739
O19   O     O_R   0.322940 0.675540 0.458880 -0.520633
O20   O     O_2   0.401853 0.389375 0.736749 -0.575997
O21   O     O_R   0.395364 0.483739 0.685609 -0.699374
O22   O     O_2   0.492391 0.214757 0.046469 -0.522306
O23   O     O_R   0.674120 0.502090 0.457500 -0.516784
O24   O     O_R   0.431572 0.155322 0.093253 -0.739544
O25   O     O_2   0.872814 0.241486 0.347610 -0.546264
O26   O     O_R   0.873115 0.135495 0.300718 -0.689751
O27   O     O_2   0.416626 0.624680 0.200998 -0.534922
O28   O     O_R   0.407449 0.506113 0.162932 -0.734553
O29   O     O_2   0.948641 0.652850 0.237252 -0.525847
O30   O     O_R   0.018280 0.580572 0.179635 -0.705218
O31   O     O_R   0.640110 0.338380 0.459630 -0.501152
O32   O     O_3   0.499990 0.499990 0.499990 -0.233938
O33   O     O_R   0.017640 0.822070 0.960410 -0.521604
O34   O     O_R   0.822000 0.989470 0.960340 -0.503531
O35   O     O_R   0.666920 0.007430 0.955290 -0.507199
O36   O     O_R   0.694410 0.812480 0.959650 -0.503055

loop_
_geom_bond_atom_site_label_1
_geom_bond_atom_site_label_2
_ccdc_geom_bond_type
C77   C78   A    
C55   C56   A    
C36   H85   S    
C20   C37   S    
C110  C116  A    
C27   H62   S    
C28   H66   S    
C111  C112  A    
C76   C79   A    
C38   O29   D    
Cr4   O11   S    
C35   C47   A    
C128  C129  A    
C70   O16   A    
C112  C114  A    
C114  C115  A    
C53   C59   A    
C29   H70   S    
C43   O36   A    
Cr4   O34   S    
C9    C130  A    
C42   C60   S    
C26   C89   S    
C112  C122  S    
C108  H24   S    
C126  C127  A    
C29   H68   S    
C72   H45   S    
C21   H48   S    
C27   H63   S    
C35   C49   A    
C80   H40   S    
Cr1   O4    S    
C92   C93   A    
C23   H55   S    
C46   O9    A    
C18   C19   A    
C36   C58   S    
C117  C119  A    
C34   H80   S    
C3    H32   S    
C20   C102  A    
C96   H9    S    
C2    C41   A    
C127  H31   S    
C30   C131  S    
Cr6   O9    S    
Cr6   O2    S    
C108  C109  A    
C23   H54   S    
C93   H8    S    
C31   O25   D    
Cr6   O3    S    
C55   H46   S    
C2    C13   A    
C130  H1    S    
C38   O30   S    
C110  C111  A    
C32   C129  S    
C25   H58   S    
C42   O35   A    
C90   C92   A    
Cr5   O35   S    
C5    C132  A    
C113  H41   S    
C26   O21   S    
C83   C84   A    
C45   C125  S    
C16   C17   A    
C7    H35   S    
C44   O3    A    
N1    N2    A    
Cr5   O36   S    
Cr1   O18   S    
C22   H50   S    
C121  H15   S    
C111  H16   S    
C36   H84   S    
C45   O6    A    
Cr3   O16   S    
C34   H81   S    
C43   C59   S    
Cr4   O33   S    
C32   H74   S    
C94   C123  S    
C125  C131  A    
C6    C31   S    
C88   C95   A    
C24   C113  A    
C93   C95   A    
C27   H61   S    
N3    N4    A    
C92   H7    S    
C57   O15   A    
C28   H65   S    
C32   H75   S    
Cr2   O12   S    
Cr5   O11   S    
C34   H82   S    
C31   O26   S    
C48   O5    A    
C50   N1    A    
C94   O12   A    
C119  H22   S    
C90   C100  S    
C104  C105  A    
C81   C83   A    
C33   H76   S    
C24   C69   S    
C21   H47   S    
C54   C59   A    
C23   C62   S    
C68   C78   S    
C7    C12   A    
C22   C67   S    
C64   H67   S    
C9    C29   S    
C74   C75   A    
C67   C68   A    
C28   H64   S    
Cr1   O17   S    
C99   H4    S    
C50   N4    A    
C82   O19   A    
C84   C85   A    
C46   O8    A    
C39   H90   S    
C40   H94   S    
C44   C81   S    
C43   O2    A    
C11   C134  S    
C45   O7    A    
C6    C11   A    
Cr3   O31   S    
C86   C87   A    
C10   H27   S    
C47   C51   S    
C63   C73   S    
C117  H21   S    
C85   C86   A    
C66   C73   A    
C4    C5    A    
C38   C91   S    
Cr1   O32   S    
C50   C56   S    
C39   C124  S    
C13   C24   A    
C60   C61   A    
C30   O24   S    
C120  C123  A    
C117  C122  A    
C39   H91   S    
C62   C63   A    
C118  C130  A    
C132  C133  A    
C105  C107  A    
C28   C104  S    
C21   H49   S    
C99   C100  A    
C26   O20   D    
C91   C102  A    
C8    C12   A    
C97   C101  A    
C96   C97   A    
C23   H53   S    
C120  H25   S    
C1    O13   A    
C17   C18   A    
C39   H88   S    
C88   H5    S    
C51   N3    A    
C37   O27   D    
C52   C53   A    
C76   C77   A    
C57   O14   A    
C109  H14   S    
C36   H83   S    
C121  C122  A    
C81   C87   A    
C110  H17   S    
H86   O28   S    
C44   O33   A    
C132  H29   S    
C32   H73   S    
C60   C65   A    
C9    C47   A    
C17   C102  S    
C33   H77   S    
C4    H33   S    
C125  C126  A    
C30   O22   D    
C133  H28   S    
C40   H92   S    
C70   O1    A    
C107  C108  A    
C22   H52   S    
C3    C4    A    
Cr5   O7    S    
C37   O28   S    
C1    C101  S    
C103  C104  A    
Cr4   O6    S    
C120  C121  A    
C41   C124  A    
H60   O21   S    
C54   C55   A    
H72   O26   S    
H71   O24   S    
C82   O18   A    
C70   C79   S    
Cr6   O10   S    
C33   H79   S    
C106  O17   A    
Cr2   O14   S    
Cr6   O11   S    
C72   C73   A    
C126  H26   S    
C19   C34   S    
C8    H36   S    
C83   H2    S    
C14   C48   S    
Cr3   O32   S    
C16   H39   S    
C58   C69   A    
C29   H69   S    
C6    C7    A    
C119  C123  A    
C98   C101  A    
C46   C103  S    
C49   H78   S    
C71   H34   S    
C115  H20   S    
C103  C109  A    
C25   C74   S    
C10   C11   A    
C64   C65   A    
C3    C134  A    
C80   C91   A    
C89   C90   A    
C71   C72   A    
C48   O10   A    
C105  H18   S    
C86   H11   S    
C75   H56   S    
C12   C106  S    
C27   C97   S    
C85   C95   S    
Cr2   O13   S    
C115  C116  A    
C133  C134  A    
C113  C124  A    
C75   C79   A    
C65   H12   S    
C68   C71   A    
C13   H37   S    
C41   C82   S    
C96   C100  A    
C5    C128  S    
C14   C19   A    
C25   H59   S    
C53   H10   S    
Cr1   O1    S    
C66   H23   S    
C66   C67   A    
C54   H44   S    
C2    H43   S    
C42   O34   A    
C61   C62   A    
H87   O30   S    
C52   H38   S    
C114  H19   S    
C98   H13   S    
C25   H57   S    
C1    O4    A    
C40   C61   S    
C63   C64   A    
C49   C118  A    
C52   C56   A    
C107  C116  S    
C40   H93   S    
C94   O23   A    
C88   C89   A    
C106  O31   A    
C8    C10   A    
C98   C99   A    
C74   C78   A    
C21   C77   S    
Cr2   O19   S    
C127  C128  A    
C35   H30   S    
C18   H42   S    
C14   C15   A    
C51   N2    A    
C69   C80   A    
Cr2   O32   S    
C84   H6    S    
C76   H89   S    
C87   H3    S    
C22   H51   S    
Cr5   O8    S    
C20   C58   A    
C15   C33   S    
Cr3   O15   S    
Cr4   O5    S    
C15   C16   A    
C57   C118  S    
C129  C131  A    
Cr3   O23   S    
