data_mof_unit_48784.cif
_audit_creation_date              2012-12-10T17:53:14-0500
_audit_creation_method            fapswitch 2.2
_symmetry_space_group_name_H-M    P1
_symmetry_Int_Tables_number       1
_space_group_crystal_system       triclinic
_cell_length_a                    23.351499
_cell_length_b                    10.744257
_cell_length_c                    9.983218
_cell_angle_alpha                 92.201851
_cell_angle_beta                  86.895463
_cell_angle_gamma                 92.743246
_cell_volume                      2496.58011044

loop_
_atom_site_label
_atom_site_type_symbol
_atom_type_description
_atom_site_fract_x
_atom_site_fract_y
_atom_site_fract_z
_atom_type_partial_charge
C1    C     C_R   0.500022 0.260256 0.498121 0.892342
C2    C     C_R   0.976996 0.441619 0.283779 -0.149167
C3    C     C_R   0.036423 0.443154 0.289222 -0.143140
C4    C     C_R   0.063993 0.514957 0.389254 -0.030382
C5    C     C_R   0.031680 0.589032 0.481810 -0.019291
C6    C     C_R   0.059128 0.661670 0.582291 -0.028169
C7    C     C_R   0.026454 0.736245 0.672954 -0.146288
C8    C     C_R   0.966963 0.736086 0.666214 -0.148407
C9    C     C_R   0.123162 0.512464 0.401163 0.540077
C10   C     C_R   0.118557 0.655085 0.591041 0.536197
C11   C     C_R   0.247377 0.659226 0.469963 -0.168776
C12   C     C_R   0.389296 0.506341 0.502248 1.017780
C13   C     C_R   0.306135 0.639554 0.458518 0.309304
C14   C     C_R   0.326881 0.526169 0.504006 -0.327011
C15   C     C_R   0.285973 0.429840 0.540847 0.382243
C16   C     C_R   0.227903 0.453795 0.553429 -0.134444
C17   C     C_R   0.208649 0.567189 0.516834 0.157825
C18   C     C_R   0.763687 0.508984 0.593928 -0.094046
C19   C     C_R   0.704399 0.488853 0.599245 -0.198179
C20   C     C_R   0.673118 0.516794 0.489120 -0.027973
C21   C     C_R   0.701701 0.565743 0.374065 -0.209859
C22   C     C_R   0.760870 0.587568 0.369778 -0.082113
C23   C     C_R   0.504472 0.739987 0.503134 0.927988
C24   C     C_R   0.792029 0.558918 0.479497 0.297288
C25   C     C_R   0.421940 0.111139 0.673294 -0.026785
C26   C     C_R   0.389857 0.038619 0.765557 -0.131765
C27   C     C_R   0.411227 0.927411 0.803301 -0.193192
C28   C     C_R   0.463492 0.889493 0.744839 0.457676
C29   C     C_R   0.483605 0.941135 0.621831 0.009192
C30   C     C_R   0.469028 0.061962 0.598504 0.057243
C31   C     C_R   0.500430 0.127038 0.497262 -0.024778
C32   C     C_R   0.536860 0.064950 0.404273 -0.093598
C33   C     C_R   0.539013 0.936851 0.407153 -0.151978
C34   C     C_R   0.610626 0.502351 0.496712 0.845173
C35   C     C_R   0.511363 0.874016 0.514157 -0.055857
C36   C     C_R   0.418919 0.349773 0.141143 0.443548
C37   C     C_R   0.363121 0.341198 0.097934 -0.210288
C38   C     C_R   0.355816 0.357525 0.962449 -0.204405
C39   C     C_R   0.403137 0.395082 0.879004 -0.132549
C40   C     C_R   0.453965 0.445305 0.933846 0.152595
C41   C     C_R   0.457015 0.435988 0.075718 0.088143
C42   C     C_R   0.544528 0.551045 0.067818 -0.019321
C43   C     C_R   0.545613 0.545953 0.924874 0.060228
C44   C     C_R   0.879227 0.653662 0.564962 0.509084
C45   C     C_R   0.884293 0.506541 0.379141 0.509376
C46   C     C_R   0.944192 0.512482 0.377749 -0.015878
C47   C     C_R   0.971645 0.588266 0.475572 -0.016376
C48   C     C_R   0.939099 0.660852 0.569134 -0.017780
H1    H     H_    0.956844 0.383393 0.207072 0.195771
H2    H     H_    0.683106 0.451163 0.688946 0.165595
H3    H     H_    0.678262 0.589556 0.288619 0.158799
H4    H     H_    0.782609 0.626306 0.281172 0.157001
H5    H     H_    0.562329 0.114828 0.328153 0.192194
H6    H     H_    0.408512 0.202589 0.656807 0.200516
H7    H     H_    0.352024 0.074247 0.818118 0.206502
H8    H     H_    0.392195 0.883163 0.891706 0.190093
H9    H     H_    0.562661 0.887005 0.327333 0.165503
H10   H     H_    0.580592 0.594601 0.118082 0.125700
H11   H     H_    0.060507 0.386088 0.216544 0.198187
H12   H     H_    0.329691 0.290116 0.155308 0.205743
H13   H     H_    0.315531 0.327731 0.920334 0.222768
H14   H     H_    0.399094 0.376610 0.775833 0.209646
H15   H     H_    0.583132 0.583095 0.869266 0.166387
H16   H     H_    0.046608 0.793454 0.750458 0.196743
H17   H     H_    0.942843 0.793165 0.738798 0.195489
H18   H     H_    0.230724 0.744303 0.436215 0.198388
H19   H     H_    0.196560 0.380185 0.580737 0.200710
H20   H     H_    0.787739 0.485286 0.678393 0.154471
N1    N     N_R   0.853185 0.575272 0.472903 -0.356961
N2    N     N_R   0.148788 0.579474 0.502734 -0.338958
N3    N     N_R   0.499460 0.498800 0.142780 -0.124645
N4    N     N_R   0.499440 0.498720 0.857170 -0.111898
O1    O     O_R   0.500000 0.316780 0.614690 -0.649145
O2    O     O_2   0.857219 0.430182 0.289850 -0.552349
O3    O     O_2   0.155020 0.442874 0.312702 -0.521494
O4    O     O_2   0.145805 0.721713 0.687820 -0.537185
O5    O     O_R   0.500000 0.316750 0.385360 -0.553074
O6    O     O_R   0.416160 0.499970 0.614690 -0.653432
O7    O     O_R   0.416150 0.499950 0.385360 -0.577422
O8    O     O_R   0.500000 0.683250 0.614640 -0.592681
O9    O     O_R   0.500000 0.683220 0.385310 -0.574354
O10   O     O_R   0.583850 0.500050 0.614640 -0.621402
O11   O     O_R   0.583840 0.500030 0.385310 -0.643794
O12   O     O_2   0.847175 0.723409 0.652720 -0.546299
Zn1   Zn    Zn3+2 0.500000 0.500020 0.653130 1.008828
Zn2   Zn    Zn3+2 0.500000 0.499980 0.346870 1.052024
S1    S     S_3+6 0.514625 0.859579 0.861545 0.046160
O13   O     O_2   0.565777 0.798584 0.794931 -0.308097
O14   O     O_2   0.535041 0.982072 0.924319 -0.226931
O15   O     O_3   0.483580 0.770349 0.982378 -0.568804
H21   H     H_    0.469791 0.829365 0.054348 0.405536
S2    S     S_3+6 0.445555 0.199496 0.154029 0.064744
O16   O     O_2   0.510036 0.204878 0.142309 -0.273154
O17   O     O_2   0.424306 0.141534 0.282622 -0.244535
O18   O     O_3   0.421872 0.107013 0.028410 -0.540369
H22   H     H_    0.383501 0.074037 0.061130 0.365974
S3    S     S_3+6 0.349471 0.758990 0.380411 0.045444
O19   O     O_2   0.393614 0.707458 0.281290 -0.231934
O20   O     O_2   0.313149 0.842921 0.306895 -0.283953
O21   O     O_3   0.381700 0.844233 0.500367 -0.577687
H23   H     H_    0.350175 0.888024 0.549522 0.368067
S4    S     S_3+6 0.301676 0.271748 0.542252 -0.014518
O22   O     O_2   0.357778 0.249777 0.467460 -0.329077
O23   O     O_2   0.303023 0.234246 0.685045 -0.393381
O24   O     O_3   0.249701 0.185255 0.467543 -0.509531
H24   H     H_    0.261404 0.098077 0.471276 0.402577

loop_
_geom_bond_atom_site_label_1
_geom_bond_atom_site_label_2
_ccdc_geom_bond_type
S1    O13   D    
C43   N4    A    
O18   H22   S    
C1    O5    A    
C19   C20   A    
C26   H7    S    
C42   H10   S    
N4    Zn1   S    
C43   H15   S    
C7    C8    A    
C45   C46   A    
C2    C46   A    
C5    C47   A    
C26   C27   A    
C29   C30   A    
C18   C24   A    
C36   C37   A    
C37   C38   A    
C30   C31   A    
C18   H20   S    
C15   C16   A    
C12   O7    A    
C1    C31   S    
S4    O24   S    
C18   C19   A    
S2    O16   D    
C10   O4    S    
C11   C17   A    
C31   C32   A    
C16   C17   A    
C12   O6    A    
C23   O8    A    
C23   O9    A    
O9    Zn2   S    
C11   H18   S    
C41   N3    A    
C38   H13   S    
C20   C34   S    
C36   S2    S    
C8    H17   S    
C21   C22   A    
C36   C41   A    
S3    O20   D    
C24   N1    S    
S3    O19   D    
C38   C39   A    
C45   N1    A    
C25   H6    S    
C39   C40   A    
C27   H8    S    
C25   C26   A    
S2    O18   S    
C45   O2    S    
C8    C48   A    
O8    Zn1   S    
C2    H1    S    
N3    Zn2   S    
C47   C48   A    
C28   S1    S    
S2    O17   D    
C44   N1    A    
C16   H19   S    
C9    N2    A    
S4    O23   D    
O1    Zn1   S    
C10   N2    A    
O6    Zn1   S    
C40   C41   A    
C12   C14   S    
O5    Zn2   S    
C23   C35   S    
S1    O14   D    
C22   C24   A    
C34   O11   A    
C3    C4    A    
C32   H5    S    
C21   H3    S    
S3    O21   S    
C22   H4    S    
C25   C30   A    
C39   H14   S    
C46   C47   A    
C28   C29   A    
C33   H9    S    
C40   N4    A    
C4    C5    A    
C44   O12   S    
C6    C10   A    
C6    C7    A    
O10   Zn1   S    
C34   O10   A    
O24   H24   S    
C29   C35   A    
C1    O1    A    
C32   C33   A    
C2    C3    A    
C11   C13   A    
C19   H2    S    
O15   H21   S    
C5    C6    A    
C42   N3    A    
C33   C35   A    
C15   S4    S    
C13   S3    S    
S4    O22   D    
C7    H16   S    
C37   H12   S    
C17   N2    S    
O11   Zn2   S    
C20   C21   A    
C42   C43   A    
S1    O15   S    
C27   C28   A    
C14   C15   A    
O21   H23   S    
C9    O3    S    
C4    C9    A    
C13   C14   A    
O7    Zn2   S    
C44   C48   A    
C3    H11   S    
