data_mof_unit_63436.cif
_audit_creation_date              2012-10-26T21:10:13-0400
_audit_creation_method            fapswitch 2.2
_symmetry_space_group_name_H-M    P1
_symmetry_Int_Tables_number       1
_space_group_crystal_system       triclinic
_cell_length_a                    15.921757
_cell_length_b                    16.444605
_cell_length_c                    17.762339
_cell_angle_alpha                 89.84955
_cell_angle_beta                  90.441948
_cell_angle_gamma                 69.454694
_cell_volume                      4354.65449068

loop_
_atom_site_label
_atom_site_type_symbol
_atom_type_description
_atom_site_fract_x
_atom_site_fract_y
_atom_site_fract_z
_atom_type_partial_charge
C1    C     C_R   0.500171 0.499854 0.644853 0.591858
C2    C     C_R   0.517446 0.566439 0.768132 0.362816
C3    C     C_R   0.499589 0.500223 0.272029 -0.033606
C4    C     C_R   0.500410 0.499777 0.727971 -0.033608
C5    C     C_R   0.516510 0.566772 0.231598 0.350713
C6    C     C_R   0.483496 0.433224 0.768402 0.350713
C7    C     C_R   0.516424 0.566286 0.153133 -0.127282
C8    C     C_R   0.483582 0.433710 0.846868 -0.127283
C9    C     C_R   0.499571 0.499957 0.114157 -0.084427
C10   C     C_R   0.500429 0.500043 0.885843 -0.084427
C11   C     C_1   0.499874 0.500031 0.033740 0.112067
C12   C     C_R   0.499828 0.500146 0.355146 0.591861
C13   C     C_1   0.500126 0.499969 0.966260 0.112067
C14   C     C_R   0.448633 0.188797 0.447032 -0.128657
C15   C     C_R   0.551366 0.811203 0.552968 -0.128655
C16   C     C_R   0.673039 0.447155 0.499489 0.588635
C17   C     C_R   0.326961 0.552845 0.500511 0.588636
C18   C     C_R   0.449715 0.274274 0.448138 0.050215
C19   C     C_R   0.550284 0.725726 0.551862 0.050218
C20   C     C_R   0.549656 0.239508 0.552138 0.603171
C21   C     C_R   0.450345 0.760492 0.447861 0.603170
C22   C     C_R   0.550362 0.153498 0.552747 -0.055257
C23   C     C_R   0.096273 0.395479 0.497411 -0.071905
C24   C     C_R   0.449638 0.846502 0.447252 -0.055257
C25   C     C_R   0.499572 0.126997 0.499765 -0.035212
C26   C     C_R   0.500428 0.873003 0.500235 -0.035211
C27   C     C_1   0.499788 0.037350 0.499848 0.036291
C28   C     C_1   0.500212 0.962650 0.500151 0.036291
C29   C     C_R   0.772488 0.414554 0.500199 -0.038593
C30   C     C_R   0.227512 0.585446 0.499801 -0.038592
C31   C     C_R   0.918634 0.301169 0.516156 0.416038
C32   C     C_R   0.081366 0.698831 0.483844 0.416038
C33   C     C_R   0.825242 0.326810 0.515304 0.214847
C34   C     C_R   0.903727 0.604520 0.502588 -0.071906
C35   C     C_R   0.174758 0.673190 0.484696 0.214848
C36   C     C_R   0.815611 0.474497 0.486527 0.306609
C37   C     C_R   0.184389 0.525503 0.513473 0.306609
C38   C     C_R   0.908693 0.451845 0.498640 -0.015324
C39   C     C_R   0.091307 0.548155 0.501360 -0.015324
C40   C     C_R   0.960531 0.362698 0.507733 -0.036797
C41   C     C_R   0.039470 0.637301 0.492267 -0.036797
C42   C     C_R   0.952269 0.514361 0.499554 0.060000
C43   C     C_R   0.047731 0.485639 0.500446 0.060001
C44   C     C_R   0.053773 0.335491 0.505033 -0.078245
C45   C     C_R   0.946227 0.664508 0.494967 -0.078245
C46   C     C_R   0.482598 0.433685 0.153365 0.434633
C47   C     C_R   0.517396 0.566319 0.846635 0.434632
C48   C     C_R   0.482547 0.433564 0.231868 0.362816
Cl1   Cl    Cl    0.220726 0.754864 0.468873 -0.363774
Cl2   Cl    Cl    0.779274 0.245136 0.531126 -0.363775
Cu1   Cu    Cu3+1 0.500000 0.419580 0.500020 1.185377
Cu2   Cu    Cu3+1 0.500000 0.580420 0.499980 1.185379
F1    F     F_    0.598956 0.263154 0.604384 -0.526995
F2    F     F_    0.535116 0.631361 0.731886 -0.572909
F3    F     F_    0.534322 0.631782 0.267479 -0.538066
F4    F     F_    0.465691 0.368210 0.732521 -0.538064
F5    F     F_    0.401044 0.736846 0.395615 -0.527000
F6    F     F_    0.232319 0.448731 0.547065 -0.611685
F7    F     F_    0.767681 0.551269 0.452935 -0.611684
F8    F     F_    0.968731 0.215870 0.526685 -0.540927
F9    F     F_    0.031269 0.784130 0.473315 -0.540927
F10   F     F_    0.465951 0.369178 0.115553 -0.540954
F11   F     F_    0.534035 0.630829 0.884447 -0.540953
F12   F     F_    0.464871 0.368647 0.268114 -0.572912
H1    H     H_    0.094475 0.267061 0.506291 0.201946
H2    H     H_    0.832608 0.631074 0.512402 0.202127
H3    H     H_    0.529770 0.617630 0.122742 0.203026
H4    H     H_    0.470241 0.382364 0.877259 0.203026
H5    H     H_    0.905525 0.732939 0.493708 0.201946
H6    H     H_    0.408176 0.171241 0.405266 0.153066
H7    H     H_    0.591824 0.828759 0.594734 0.153065
H8    H     H_    0.409734 0.321134 0.407358 0.191372
H9    H     H_    0.590265 0.678867 0.592642 0.191368
H10   H     H_    0.590384 0.107943 0.594552 0.160527
H11   H     H_    0.409616 0.892056 0.405447 0.160527
H12   H     H_    0.167392 0.368926 0.487597 0.202127
N1    N     N_R   0.500020 0.298780 0.500030 -0.227295
N2    N     N_R   0.499980 0.701220 0.499970 -0.227293
O1    O     O_R   0.500010 0.432060 0.608760 -0.392282
O2    O     O_R   0.499990 0.567940 0.391240 -0.392281
O3    O     O_R   0.500000 0.567880 0.608730 -0.491354
O4    O     O_R   0.500000 0.432120 0.391270 -0.491355
O5    O     O_R   0.629840 0.394000 0.500020 -0.452405
O6    O     O_R   0.370160 0.606000 0.499980 -0.452404
O7    O     O_R   0.629830 0.529820 0.499990 -0.461384
O8    O     O_R   0.370170 0.470180 0.500010 -0.461383

loop_
_geom_bond_atom_site_label_1
_geom_bond_atom_site_label_2
_ccdc_geom_bond_type
C14   C18   A    
C34   C42   A    
C23   H12   S    
C36   F7    S    
C34   H2    S    
C39   C41   A    
C15   C19   A    
C29   C36   A    
C30   C35   A    
C46   F10   S    
Cu2   O7    S    
C24   C26   A    
C32   F9    S    
C38   C42   A    
C47   F11   S    
C48   F12   S    
C1    O3    A    
C29   C33   A    
C3    C48   A    
C23   C43   A    
C31   C40   A    
Cu2   O6    S    
C3    C12   S    
C22   C25   A    
C21   N2    A    
C35   Cl1   S    
C32   C41   A    
C31   C33   A    
C37   F6    S    
C9    C46   A    
C17   C30   S    
C14   H6    S    
C44   H1    S    
Cu2   N2    S    
Cu1   O8    S    
C18   H8    S    
C46   C48   A    
C45   H5    S    
C17   O8    A    
C32   C35   A    
C19   H9    S    
C4    C6    A    
C2    F2    S    
C5    C7    A    
C15   C26   A    
C39   C43   A    
C16   C29   S    
C16   O5    A    
C23   C44   A    
Cu1   Cu2   S    
C30   C37   A    
C31   F8    S    
C19   N2    A    
C2    C4    A    
Cu1   N1    S    
C21   F5    S    
C12   O4    A    
C34   C45   A    
C9    C11   S    
Cu1   O4    S    
C20   N1    A    
C20   C22   A    
C8    H4    S    
C16   O7    A    
C1    O1    A    
C42   C43   A    
C22   H10   S    
Cu1   O5    S    
C10   C47   A    
C7    C9    A    
C5    F3    S    
C6    F4    S    
C20   F1    S    
C3    C5    A    
C10   C13   S    
C6    C8    A    
C24   H11   S    
C2    C47   A    
C25   C27   S    
C15   H7    S    
C26   C28   S    
C17   O6    A    
C1    C4    S    
C36   C38   A    
C33   Cl2   S    
C37   C39   A    
C38   C40   A    
C11   C13   T    
C18   N1    A    
C12   O2    A    
C14   C25   A    
Cu2   O3    S    
Cu1   O1    S    
C7    H3    S    
C40   C44   A    
C8    C10   A    
C21   C24   A    
C27   C28   T    
C41   C45   A    
Cu2   O2    S    
