data_mof_unit_56254.cif
_audit_creation_date              2012-12-11T16:57:21-0500
_audit_creation_method            fapswitch 2.2
_symmetry_space_group_name_H-M    P1
_symmetry_Int_Tables_number       1
_space_group_crystal_system       triclinic
_cell_length_a                    14.616473
_cell_length_b                    16.116605
_cell_length_c                    7.098973
_cell_angle_alpha                 91.406935
_cell_angle_beta                  98.117715
_cell_angle_gamma                 89.995526
_cell_volume                      1655.02523912

loop_
_atom_site_label
_atom_site_type_symbol
_atom_type_description
_atom_site_fract_x
_atom_site_fract_y
_atom_site_fract_z
_atom_type_partial_charge
O1    O     O_R   0.584990 0.413650 0.534420 -0.525180
O2    O     O_R   0.584990 0.586350 0.534420 -0.522666
O3    O     O_R   0.596190 0.585230 0.208380 -0.528088
O4    O     O_R   0.596190 0.414770 0.208380 -0.521396
O5    O     O_R   0.415010 0.586420 0.976930 -0.551346
O6    O     O_R   0.415010 0.413580 0.976930 -0.556378
C1    C     C_R   0.616231 0.616400 0.383832 0.701279
C2    C     C_R   0.616343 0.383816 0.379807 0.693658
O7    O     O_3   0.440560 0.500000 0.319140 -0.382817
V1    V     V_3+5 0.511030 0.500000 0.068070 1.445751
O8    O     O_R   0.403810 0.414840 0.643540 -0.528395
O9    O     O_R   0.403810 0.585160 0.643540 -0.555584
C3    C     C_R   0.379277 0.388543 0.805154 0.589081
C4    C     C_R   0.372410 0.602634 0.806053 0.584264
V2    V     V_3+5 0.488970 0.500000 0.560620 1.428692
O10   O     O_3   0.559440 0.500000 0.859420 -0.339349
H1    H     H_    0.347884 0.724924 0.045724 0.125911
H2    H     H_    0.330390 0.299474 0.088840 0.143258
C5    C     C_2   0.289472 0.656627 0.800256 0.291819
C6    C     C_2   0.308641 0.321261 0.793679 0.290110
C7    C     C_2   0.287443 0.715814 0.938975 -0.281101
C8    C     C_2   0.294559 0.278985 0.951222 -0.314558
C9    C     C_2   0.200872 0.823528 0.099986 0.154208
C10   C     C_2   0.203450 0.175233 0.108107 0.143277
C11   C     C_2   0.208440 0.774726 0.943067 0.412724
C12   C     C_2   0.232232 0.204776 0.945654 0.400206
C13   C     C_R   0.681660 0.750195 0.556984 -0.044285
C14   C     C_R   0.737691 0.307264 0.585395 -0.096715
C15   C     C_R   0.682047 0.689656 0.413130 -0.341656
C16   C     C_R   0.689099 0.316897 0.407105 -0.268916
C17   C     C_R   0.724680 0.721500 0.264693 0.357537
C18   C     C_R   0.718185 0.263933 0.263181 0.328899
C19   C     C_R   0.809580 0.765539 0.315114 0.440545
C20   C     C_R   0.802255 0.217584 0.303773 0.455480
C21   C     C_R   0.819339 0.818223 0.479708 -0.200644
C22   C     C_R   0.833173 0.193948 0.489520 -0.195963
C23   C     C_R   0.748816 0.812403 0.590450 -0.140550
C24   C     C_R   0.809883 0.250458 0.625308 -0.206447
C25   C     C_3   0.751478 0.812422 0.798720 -0.303524
C26   C     C_3   0.790169 0.238497 0.816505 -0.257846
C27   C     C_3   0.672150 0.749279 0.759519 0.921796
C28   C     C_3   0.701574 0.286651 0.763338 0.921978
H3    H     H_    0.731601 0.873742 0.855517 0.188840
H4    H     H_    0.780969 0.171762 0.846301 0.224814
H5    H     H_    0.818666 0.789072 0.866689 0.194472
H6    H     H_    0.844907 0.274340 0.902374 0.154256
O11   O     O_R   0.921430 0.915960 0.371040 -0.512048
O12   O     O_R   0.921430 0.084040 0.371040 -0.503396
O13   O     O_R   0.910450 0.087500 0.697310 -0.543697
O14   O     O_R   0.910450 0.912500 0.697310 -0.542086
O15   O     O_R   0.091710 0.087460 0.928430 -0.529454
O16   O     O_R   0.091710 0.912540 0.928430 -0.538476
C29   C     C_R   0.893410 0.117971 0.524250 0.740802
C30   C     C_R   0.890615 0.884590 0.519632 0.755579
O17   O     O_3   0.065970 0.000000 0.586140 -0.392713
V3    V     V_3+5 0.995640 0.000000 0.837400 1.497454
O18   O     O_R   0.103020 0.915700 0.261710 -0.552118
O19   O     O_R   0.103020 0.084300 0.261710 -0.522363
C31   C     C_R   0.125682 0.886956 0.097594 0.663793
C32   C     C_R   0.128156 0.111286 0.100141 0.652137
V4    V     V_3+5 0.017940 0.000000 0.344880 1.489163
O20   O     O_3   0.947330 0.000000 0.046180 -0.352552
O21   O     O_3   0.141573 0.778801 0.784370 -0.548132
C33   C     C_3   0.179010 0.819875 0.639188 -0.077558
H7    H     H_    0.130008 0.811654 0.506635 0.169849
H8    H     H_    0.246398 0.794229 0.611561 0.144206
H9    H     H_    0.188618 0.887126 0.673084 0.108185
O22   O     O_3   0.206524 0.164620 0.771299 -0.513410
C34   C     C_3   0.267559 0.097485 0.757077 -0.088006
H10   H     H_    0.339958 0.119488 0.761153 0.088848
H11   H     H_    0.246586 0.063993 0.619632 0.148607
H12   H     H_    0.264327 0.051900 0.871270 0.051791
O23   O     O_3   0.686052 0.670247 0.847376 -0.539850
C35   C     C_3   0.768771 0.628556 0.818802 -0.252189
H13   H     H_    0.807604 0.613573 0.959363 0.150804
H14   H     H_    0.815912 0.662447 0.738016 0.102786
H15   H     H_    0.750511 0.569468 0.739547 0.148787
O24   O     O_3   0.684264 0.356280 0.882746 -0.537677
C36   C     C_3   0.760029 0.410810 0.934481 -0.247582
H16   H     H_    0.798833 0.424239 0.815044 0.092031
H17   H     H_    0.806479 0.387027 0.057853 0.113557
H18   H     H_    0.733263 0.470485 0.984176 0.183504
O25   O     O_3   0.264454 0.814145 0.262369 -0.582353
C37   C     C_3   0.319226 0.886504 0.295567 -0.361945
H19   H     H_    0.279255 0.938903 0.347130 0.139053
H20   H     H_    0.349425 0.904237 0.166579 0.141290
H21   H     H_    0.377525 0.873915 0.409098 0.181096
O26   O     O_3   0.244585 0.204183 0.284683 -0.526228
C38   C     C_3   0.327906 0.160132 0.332514 -0.149834
H22   H     H_    0.362498 0.183631 0.472326 0.177018
H23   H     H_    0.377064 0.169665 0.228750 0.086709
H24   H     H_    0.314687 0.092603 0.343499 0.081682
O27   O     O_3   0.207544 0.637622 0.680316 -0.534215
C39   C     C_3   0.222350 0.618281 0.492217 -0.190676
H25   H     H_    0.244694 0.552813 0.479351 0.134131
H26   H     H_    0.272167 0.661637 0.440782 0.161376
H27   H     H_    0.155730 0.624680 0.397323 0.142751
O28   O     O_3   0.260326 0.300120 0.617394 -0.499194
C40   C     C_3   0.180930 0.350369 0.586681 -0.070756
H28   H     H_    0.199419 0.417372 0.588713 0.076936
H29   H     H_    0.133727 0.338518 0.693264 0.105801
H30   H     H_    0.142703 0.334607 0.443953 0.150969
O29   O     O_3   0.665644 0.761404 0.130223 -0.606406
H31   H     H_    0.600960 0.742619 0.131585 0.314344
O30   O     O_3   0.656850 0.238320 0.108762 -0.611850
H32   H     H_    0.594437 0.259350 0.123213 0.289581
O31   O     O_3   0.871877 0.769680 0.187268 -0.555169
C41   C     C_3   0.946110 0.716390 0.247797 -0.306470
H33   H     H_    0.922343 0.650868 0.250957 0.116972
H34   H     H_    0.982960 0.736091 0.389815 0.144936
H35   H     H_    0.996423 0.719113 0.144776 0.170704
O32   O     O_3   0.855797 0.197114 0.165522 -0.552958
C42   C     C_3   0.940627 0.242457 0.202304 -0.255135
H36   H     H_    0.980751 0.230582 0.083013 0.142722
H37   H     H_    0.985203 0.223564 0.333824 0.147331
H38   H     H_    0.928573 0.310466 0.211843 0.086305
O33   O     O_3   0.589967 0.790467 0.793861 -0.562618
C43   C     C_3   0.511916 0.741124 0.737279 -0.199049
H39   H     H_    0.519793 0.682257 0.813737 0.191028
H40   H     H_    0.499856 0.730858 0.580418 0.125441
H41   H     H_    0.450774 0.773943 0.778253 0.115114
O34   O     O_3   0.629030 0.226266 0.733074 -0.561733
C44   C     C_3   0.539407 0.259411 0.708993 -0.120127
H42   H     H_    0.532588 0.313501 0.804029 0.169699
H43   H     H_    0.516833 0.273239 0.557534 0.106885
H44   H     H_    0.491574 0.211341 0.747719 0.108815

loop_
_geom_bond_atom_site_label_1
_geom_bond_atom_site_label_2
_ccdc_geom_bond_type
C16   C18   A    
O17   V3    S    
O27   C39   S    
C1    C15   S    
C13   C15   A    
O1    C2    A    
C20   O32   S    
O23   C35   S    
O2    C1    A    
C19   O31   S    
C37   H21   S    
O4    C2    A    
C44   H42   S    
C25   C27   S    
C9    C31   S    
O14   C30   A    
C35   H14   S    
C5    C7    D    
C10   C12   D    
O3    C1    A    
C34   H10   S    
C44   H43   S    
O19   C32   A    
V2    O10   S    
C41   H33   S    
O15   V3    S    
C11   O21   S    
C34   H11   S    
C43   H39   S    
C22   C29   S    
O8    V2    S    
C40   H28   S    
O22   C34   S    
C35   H15   S    
O31   C41   S    
C17   C19   A    
O1    V2    S    
C38   H23   S    
O7    V1    S    
C5    O27   S    
C25   H5    S    
C42   H38   S    
O19   V4    S    
C26   C28   S    
C21   C30   S    
V4    O20   S    
O32   C42   S    
C43   H40   S    
O12   C29   A    
C35   H13   S    
C33   H9    S    
C37   H19   S    
C36   H17   S    
O24   C36   S    
C44   H44   S    
C25   H3    S    
C39   H27   S    
H1    C7    S    
O21   C33   S    
C43   H41   S    
C17   O29   S    
C34   H12   S    
C26   H6    S    
O11   V4    S    
O16   C31   A    
C13   C27   S    
O25   C37   S    
O9    V2    S    
C14   C24   A    
C10   C32   S    
C38   H24   S    
C39   H26   S    
O2    V2    S    
C10   O26   S    
C33   H8    S    
O5    C4    A    
C9    O25   S    
O11   C30   A    
C40   H29   S    
C6    C8    D    
C28   O24   S    
C18   O30   S    
V3    O20   S    
O4    V1    S    
C28   O34   S    
C42   H36   S    
C7    C11   S    
C3    C6    S    
C21   C23   A    
H2    C8    S    
C4    C5    S    
O9    C4    A    
O6    V1    S    
C36   H18   S    
C14   C16   A    
O18   V4    S    
O13   V3    S    
O30   H32   S    
C41   H35   S    
C2    C16   S    
C33   H7    S    
C22   C24   A    
O7    V2    S    
C12   O22   S    
O5    V1    S    
C23   C25   S    
O3    V1    S    
V1    O10   S    
O33   C43   S    
O6    C3    A    
C24   C26   S    
O8    C3    A    
O12   V4    S    
C13   C23   A    
O13   C29   A    
O17   V4    S    
C14   C28   S    
C19   C21   A    
C41   H34   S    
C20   C22   A    
C9    C11   D    
C39   H25   S    
O14   V3    S    
O18   C31   A    
C27   O23   S    
C36   H16   S    
C26   H4    S    
C40   H30   S    
C6    O28   S    
O26   C38   S    
C15   C17   A    
O28   C40   S    
C8    C12   S    
O29   H31   S    
O34   C44   S    
C37   H20   S    
O15   C32   A    
C27   O33   S    
C38   H22   S    
O16   V3    S    
C18   C20   A    
C42   H37   S    
