data_mof_unit_55079.cif
_audit_creation_date              2012-12-10T18:58:13-0500
_audit_creation_method            fapswitch 2.2
_symmetry_space_group_name_H-M    P1
_symmetry_Int_Tables_number       1
_space_group_crystal_system       triclinic
_cell_length_a                    11.003216
_cell_length_b                    10.864561
_cell_length_c                    9.580173
_cell_angle_alpha                 90.750538
_cell_angle_beta                  102.925466
_cell_angle_gamma                 91.202126
_cell_volume                      1115.81231874

loop_
_atom_site_label
_atom_site_type_symbol
_atom_type_description
_atom_site_fract_x
_atom_site_fract_y
_atom_site_fract_z
_atom_type_partial_charge
C1    C     C_R   0.506085 0.262771 0.500390 0.771889
C2    C     C_R   0.509274 0.129108 0.497847 -0.177540
C3    C     C_R   0.543969 0.061012 0.385433 -0.038765
C4    C     C_R   0.534841 0.932233 0.385503 -0.168449
C5    C     C_R   0.499637 0.870365 0.498518 -0.073267
C6    C     C_R   0.460716 0.938423 0.603756 -0.005935
C7    C     C_3   0.498824 0.933612 0.763352 0.383442
C8    C     C_3   0.503544 0.073936 0.764010 -0.238765
C9    C     C_R   0.562331 0.590780 0.090747 0.118528
C10   C     C_R   0.429111 0.415761 0.053135 -0.063573
C11   C     C_R   0.427907 0.418662 0.904012 0.746299
C12   C     C_R   0.262165 0.494130 0.441318 0.769491
C13   C     C_R   0.563026 0.590035 0.943775 0.098587
C14   C     C_3   0.699474 0.617492 0.972550 -0.461821
C15   C     C_3   0.699073 0.619766 0.130223 0.459588
C16   C     C_R   0.500828 0.737352 0.500701 0.822537
C17   C     C_R   0.737921 0.500055 0.558643 0.744852
C18   C     C_2   0.125930 0.474974 0.406824 -0.212808
C19   C     C_2   0.068719 0.450740 0.514767 -0.078021
C20   C     C_2   0.874959 0.503966 0.592374 -0.191965
C21   C     C_2   0.932884 0.448872 0.498586 -0.105696
C22   C     C_R   0.465442 0.065206 0.603405 -0.032345
Cu1   Cu    Cu3+1 0.499990 0.499980 0.640670 1.045892
Cu2   Cu    Cu3+1 0.500010 0.500020 0.359330 0.978930
H1    H     H_    0.877228 0.399512 0.406363 0.243334
H2    H     H_    0.752130 0.539481 0.941324 0.237969
H3    H     H_    0.722659 0.708428 0.933116 0.223221
H4    H     H_    0.722616 0.711111 0.184198 0.079184
H5    H     H_    0.124267 0.439540 0.622483 0.235529
H6    H     H_    0.564403 0.879889 0.302345 0.182964
H7    H     H_    0.425117 0.893357 0.812740 0.113232
H8    H     H_    0.430171 0.114843 0.811845 0.232132
N1    N     N_R   0.500780 0.500930 0.148120 -0.232152
N2    N     N_R   0.500790 0.500890 0.852210 -0.231295
O1    O     O_R   0.500000 0.319640 0.618810 -0.511636
O2    O     O_R   0.500010 0.319680 0.381230 -0.626924
O3    O     O_R   0.320680 0.500000 0.575130 -0.523321
O4    O     O_R   0.320690 0.500040 0.337550 -0.627668
O5    O     O_R   0.499990 0.680320 0.618770 -0.542215
O6    O     O_R   0.500000 0.680360 0.381190 -0.601318
O7    O     O_R   0.679310 0.499960 0.662450 -0.591178
O8    O     O_R   0.679320 0.500000 0.424870 -0.508918
C23   C     C_2   0.631934 0.130526 0.819357 0.595150
H9    H     H_    0.710253 0.099991 0.777273 0.079391
O9    O     O_2   0.648473 0.212036 0.910964 -0.499849
C24   C     C_2   0.353821 0.317111 0.101762 0.474922
H10   H     H_    0.313327 0.329317 0.192869 0.107160
O10   O     O_2   0.335141 0.217866 0.038355 -0.501651
F1    F     F_    0.353220 0.339219 0.810782 -0.644150
F2    F     F_    0.766234 0.524155 0.199440 -0.615659
C25   C     C_2   0.939796 0.577076 0.721729 0.399296
H11   H     H_    0.886638 0.609850 0.796541 0.082911
O11   O     O_2   0.050247 0.606328 0.744076 -0.544222
C26   C     C_2   0.059165 0.480650 0.254285 0.447641
H12   H     H_    0.089107 0.547551 0.184985 0.073948
O12   O     O_2   0.977293 0.405237 0.202319 -0.474889
C27   C     C_2   0.602222 0.118843 0.275774 0.446899
H13   H     H_    0.652256 0.206523 0.296979 0.107817
O13   O     O_2   0.597708 0.067035 0.160743 -0.497410
F3    F     F_    0.614358 0.881483 0.808813 -0.679327

loop_
_geom_bond_atom_site_label_1
_geom_bond_atom_site_label_2
_ccdc_geom_bond_type
C2    C22   A    
C8    C22   S    
Cu1   Cu2   S    
C10   C24   S    
C6    C7    S    
C11   F1    S    
C14   H3    S    
C20   C25   S    
Cu2   O8    S    
C26   H12   S    
Cu2   O4    S    
Cu2   N1    S    
Cu1   O7    S    
C8    C23   S    
C23   H9    S    
Cu1   N2    S    
C14   C15   S    
C2    C3    A    
C27   H13   S    
C7    C8    S    
C13   C14   S    
C14   H2    S    
C9    N1    A    
C23   O9    D    
C15   H4    S    
Cu2   O2    S    
C8    H8    S    
C16   O6    A    
Cu1   O5    S    
C3    C27   S    
C19   C21   S    
C18   C19   D    
C10   N1    A    
Cu1   O1    S    
C12   O4    A    
C5    C6    A    
C26   O12   D    
C27   O13   D    
C17   O7    A    
C7    H7    S    
C10   C11   A    
C18   C26   S    
C16   O5    A    
C3    C4    A    
C6    C22   A    
C24   O10   D    
C7    F3    S    
C13   N2    A    
C17   C20   S    
C20   C21   D    
C1    O1    A    
C1    C2    S    
C24   H10   S    
C15   F2    S    
C12   C18   S    
C12   O3    A    
C9    C13   A    
C17   O8    A    
C5    C16   S    
C21   H1    S    
Cu2   O6    S    
Cu1   O3    S    
C11   N2    A    
C4    H6    S    
C25   H11   S    
C1    O2    A    
C4    C5    A    
C25   O11   D    
C9    C15   S    
C19   H5    S    
