data_mof_unit_13028.cif
_audit_creation_date              2012-12-10T19:22:54-0500
_audit_creation_method            fapswitch 2.2
_symmetry_space_group_name_H-M    P1
_symmetry_Int_Tables_number       1
_space_group_crystal_system       triclinic
_cell_length_a                    10.846082
_cell_length_b                    17.8249
_cell_length_c                    16.529127
_cell_angle_alpha                 91.848575
_cell_angle_beta                  102.228178
_cell_angle_gamma                 92.360697
_cell_volume                      3117.6797611

loop_
_atom_site_label
_atom_site_type_symbol
_atom_type_description
_atom_site_fract_x
_atom_site_fract_y
_atom_site_fract_z
_atom_type_partial_charge
C1    C     C_R   0.499696 0.355545 0.498648 0.938337
C2    C     C_R   0.493563 0.644910 0.500509 0.954429
C3    C     C_R   0.513924 0.886444 0.496593 -0.127349
C4    C     C_R   0.512389 0.115748 0.499067 -0.152484
C5    C     C_1   0.515969 0.967423 0.495282 0.199420
C6    C     C_1   0.514864 0.034858 0.496697 0.146633
C7    C     C_R   0.613632 0.502258 0.846890 0.210409
C8    C     C_R   0.461222 0.437417 0.162110 0.219877
C9    C     C_R   0.608908 0.519031 0.762298 0.423279
C10   C     C_R   0.432737 0.446242 0.241687 0.456858
C11   C     C_R   0.392390 0.478489 0.727317 -0.025913
C12   C     C_R   0.576106 0.552312 0.271660 0.015020
C13   C     C_R   0.388299 0.477881 0.812806 0.285726
C14   C     C_R   0.579844 0.556063 0.186537 0.310111
C15   C     C_R   0.500604 0.490656 0.873893 -0.196360
C16   C     C_R   0.520140 0.497549 0.129972 -0.196231
C17   C     C_1   0.503708 0.494457 0.964097 0.272787
C18   C     C_1   0.512936 0.497790 0.039488 0.271143
C19   C     C_R   0.260478 0.502990 0.467497 0.941000
C20   C     C_R   0.739008 0.500808 0.532552 0.881306
C21   C     C_2   0.121668 0.512430 0.453645 -0.192966
C22   C     C_2   0.878022 0.503154 0.546555 -0.194031
C23   C     C_2   0.074251 0.556686 0.508354 -0.152917
C24   C     C_2   0.937474 0.556957 0.508613 -0.199495
C25   C     C_R   0.534374 0.852587 0.573622 -0.138480
C26   C     C_R   0.584866 0.156776 0.452728 -0.221240
C27   C     C_R   0.518437 0.773729 0.576974 -0.138675
C28   C     C_R   0.580723 0.235617 0.452513 -0.098495
C29   C     C_R   0.483309 0.728730 0.501752 -0.220980
C30   C     C_R   0.498662 0.272593 0.495109 -0.250549
C31   C     C_R   0.444874 0.765266 0.425700 0.320716
C32   C     C_R   0.416307 0.230251 0.534439 0.330404
C33   C     C_R   0.474760 0.842997 0.422197 0.345138
C34   C     C_R   0.432868 0.152430 0.543767 0.368155
Cu1   Cu    Cu3+1 0.499990 0.499980 0.580420 1.115099
Cu2   Cu    Cu3+1 0.500010 0.500020 0.419580 1.116641
H1    H     H_    0.307305 0.463325 0.681864 0.233860
H2    H     H_    0.630076 0.593674 0.315886 0.215887
N1    N     N_R   0.499970 0.499970 0.701210 -0.274334
N2    N     N_R   0.500030 0.500030 0.298790 -0.276102
O1    O     O_R   0.499990 0.391240 0.567930 -0.540327
O2    O     O_R   0.500010 0.608760 0.432070 -0.551180
O3    O     O_R   0.500000 0.391270 0.432120 -0.558876
O4    O     O_R   0.500000 0.608730 0.567880 -0.535926
O5    O     O_R   0.320680 0.500000 0.542950 -0.585482
O6    O     O_R   0.679320 0.500000 0.457050 -0.607396
O7    O     O_R   0.320690 0.500030 0.407130 -0.491708
O8    O     O_R   0.679310 0.499970 0.592870 -0.498420
C35   C     C_2   0.872313 0.625519 0.474414 0.940105
O9    O     O_2   0.791188 0.652009 0.506337 -0.540643
O10   O     O_R   0.906038 0.662702 0.408395 -0.656231
H3    H     H_    0.972411 0.637204 0.384138 0.348731
C36   C     C_2   0.153896 0.611672 0.568552 0.951625
O11   O     O_2   0.236737 0.650177 0.547897 -0.561395
O12   O     O_R   0.128412 0.622351 0.647459 -0.707352
H4    H     H_    0.186726 0.662411 0.682536 0.373581
S1    S     S_3+6 0.243971 0.454071 0.841194 0.089759
O13   O     O_2   0.240635 0.371747 0.858074 -0.199178
O14   O     O_2   0.231997 0.498664 0.917650 -0.212410
O15   O     O_3   0.122251 0.471302 0.764056 -0.505887
H5    H     H_    0.051544 0.438240 0.773615 0.419454
S2    S     S_3+6 0.667428 0.631124 0.155007 0.093940
O16   O     O_2   0.792227 0.603504 0.144242 -0.206385
O17   O     O_2   0.597032 0.659174 0.074202 -0.235802
O18   O     O_3   0.692694 0.701799 0.227420 -0.456192
H6    H     H_    0.744971 0.740335 0.206384 0.406991
C37   C     C_2   0.942414 0.438764 0.590434 0.926549
O19   O     O_2   0.881889 0.394326 0.623654 -0.531294
O20   O     O_R   0.069788 0.427309 0.593315 -0.724199
H7    H     H_    0.099592 0.380978 0.624211 0.375398
C38   C     C_2   0.035967 0.465394 0.387339 0.920916
O21   O     O_2   0.938051 0.490046 0.348860 -0.588174
O22   O     O_R   0.066607 0.392273 0.369602 -0.652865
H8    H     H_    0.000974 0.365698 0.323653 0.355610
C39   C     C_2   0.573817 0.900617 0.651074 0.991350
O23   O     O_2   0.514717 0.896139 0.706238 -0.497878
O24   O     O_R   0.678342 0.951207 0.660206 -0.714320
H9    H     H_    0.695945 0.980756 0.715210 0.372944
C40   C     C_2   0.671048 0.117081 0.408411 0.985065
O25   O     O_2   0.655390 0.119658 0.333250 -0.413116
O26   O     O_R   0.769026 0.075794 0.451421 -0.660343
H10   H     H_    0.776445 0.079366 0.513591 0.319236
C41   C     C_2   0.533699 0.741159 0.660111 1.024310
O27   O     O_2   0.629437 0.756763 0.713070 -0.491526
O28   O     O_R   0.435425 0.697232 0.679900 -0.712544
H11   H     H_    0.456932 0.679089 0.738510 0.335317
C42   C     C_2   0.665895 0.279544 0.410256 0.902474
O29   O     O_2   0.649520 0.275575 0.334718 -0.487643
O30   O     O_R   0.763046 0.326462 0.457063 -0.764258
H12   H     H_    0.813893 0.354090 0.421417 0.339403
S3    S     S_3+6 0.335570 0.718039 0.341391 0.108561
O31   O     O_2   0.406144 0.681804 0.282791 -0.221108
O32   O     O_2   0.257793 0.658633 0.373083 -0.295337
O33   O     O_3   0.236058 0.778722 0.289844 -0.426435
H13   H     H_    0.183485 0.748579 0.242677 0.400537
S4    S     S_3+6 0.283597 0.273270 0.561180 0.079938
O34   O     O_2   0.320524 0.305269 0.648655 -0.258449
O35   O     O_2   0.242097 0.335496 0.504112 -0.277630
O36   O     O_3   0.160101 0.211080 0.552454 -0.426521
H14   H     H_    0.093805 0.239409 0.571130 0.382311
S5    S     S_3+6 0.468962 0.887081 0.325988 0.114674
O37   O     O_2   0.347949 0.927199 0.303725 -0.203648
O38   O     O_2   0.578300 0.943555 0.334911 -0.239386
O39   O     O_3   0.477874 0.824746 0.249190 -0.415434
H15   H     H_    0.467252 0.854351 0.198699 0.399961
S6    S     S_3+6 0.360601 0.100459 0.613580 0.099091
O40   O     O_2   0.244263 0.058112 0.565042 -0.203539
O41   O     O_2   0.450801 0.045408 0.656193 -0.284891
O42   O     O_3   0.321865 0.155749 0.687773 -0.420559
H16   H     H_    0.273222 0.122120 0.717459 0.398396
S7    S     S_3+6 0.759537 0.493541 0.920356 0.124649
O43   O     O_2   0.864433 0.472299 0.879088 -0.163179
O44   O     O_2   0.795387 0.566836 0.968810 -0.172859
O45   O     O_3   0.741910 0.426068 0.986435 -0.495524
H17   H     H_    0.815465 0.434129 0.033428 0.401854
S8    S     S_3+6 0.440803 0.348596 0.107481 0.122201
O46   O     O_2   0.426238 0.286411 0.164590 -0.161462
O47   O     O_2   0.326286 0.348170 0.037923 -0.171250
O48   O     O_3   0.568480 0.334055 0.067501 -0.487950
H18   H     H_    0.545227 0.288665 0.030337 0.403228
S9    S     S_3+6 0.738012 0.578954 0.745678 0.114822
O49   O     O_2   0.705846 0.624921 0.670876 -0.267748
O50   O     O_2   0.780738 0.632695 0.819167 -0.180819
O51   O     O_3   0.859960 0.527337 0.735179 -0.478807
H19   H     H_    0.927526 0.564516 0.729156 0.408227
S10   S     S_3+6 0.281823 0.408681 0.251250 0.115212
O52   O     O_2   0.292685 0.361156 0.325405 -0.224591
O53   O     O_2   0.200423 0.473617 0.258834 -0.258787
O54   O     O_3   0.206154 0.356201 0.167864 -0.425967
H20   H     H_    0.122584 0.342025 0.179569 0.388773

loop_
_geom_bond_atom_site_label_1
_geom_bond_atom_site_label_2
_ccdc_geom_bond_type
O12   H4    S    
S5    O37   D    
C27   C29   A    
O22   H8    S    
Cu2   O2    S    
S7    O43   D    
C42   O29   D    
O26   H10   S    
C36   O11   D    
S10   O52   D    
C21   C38   S    
C2    C29   S    
C33   S5    S    
C19   C21   S    
C5    C6    T    
C19   O7    A    
S1    O14   D    
C13   S1    S    
S6    O40   D    
C3    C33   A    
C14   S2    S    
S4    O36   S    
C9    N1    A    
S8    O46   D    
Cu2   O7    S    
C10   N2    A    
C11   H1    S    
S9    O51   S    
S2    O17   D    
C1    O3    A    
Cu1   Cu2   S    
C2    O4    A    
C35   O10   S    
S4    O35   D    
C9    S9    S    
C23   C24   S    
C31   C33   A    
Cu2   O6    S    
O24   H9    S    
C7    C15   A    
C8    C16   A    
O20   H7    S    
Cu1   O8    S    
O39   H15   S    
C23   C36   S    
C36   O12   S    
C4    C34   A    
C37   O19   D    
C34   S6    S    
Cu2   N2    S    
C40   O25   D    
C4    C6    S    
S3    O31   D    
C40   O26   S    
S1    O15   S    
S10   O54   S    
O28   H11   S    
O10   H3    S    
O15   H5    S    
C25   C39   S    
C32   C34   A    
C12   N2    A    
Cu1   N1    S    
C39   O23   D    
S2    O16   D    
S3    O32   D    
O36   H14   S    
C3    C25   A    
S4    O34   D    
C28   C42   S    
C17   C18   T    
S7    O44   D    
C16   C18   S    
C11   N1    A    
Cu1   O4    S    
C39   O24   S    
S9    O49   D    
C20   O8    A    
S8    O47   D    
C1    O1    A    
C32   S4    S    
C12   C14   A    
C35   O9    D    
S5    O39   S    
C31   S3    S    
C13   C15   A    
C22   C24   D    
C41   O27   D    
Cu1   O5    S    
C38   O22   S    
O54   H20   S    
C24   C35   S    
C15   C17   S    
S10   O53   D    
S2    O18   S    
C41   O28   S    
C8    C10   A    
C20   C22   S    
C3    C5    S    
C4    C26   A    
O48   H18   S    
C19   O5    A    
O45   H17   S    
C25   C27   A    
C26   C28   A    
C26   C40   S    
S8    O48   S    
C21   C23   D    
C38   O21   D    
C29   C31   A    
O42   H16   S    
S3    O33   S    
C30   C32   A    
C11   C13   A    
S1    O13   D    
S6    O41   D    
C2    O2    A    
C28   C30   A    
C1    C30   S    
C7    S7    S    
S7    O45   S    
C14   C16   A    
C12   H2    S    
O33   H13   S    
Cu1   O1    S    
C22   C37   S    
S9    O50   D    
C8    S8    S    
C27   C41   S    
C7    C9    A    
S5    O38   D    
O18   H6    S    
C42   O30   S    
Cu2   O3    S    
C37   O20   S    
O30   H12   S    
C10   S10   S    
C20   O6    A    
O51   H19   S    
S6    O42   S    
