data_mof_unit_18097.cif
_audit_creation_date              2012-12-11T16:45:22-0500
_audit_creation_method            fapswitch 2.2
_symmetry_space_group_name_H-M    P1
_symmetry_Int_Tables_number       1
_space_group_crystal_system       triclinic
_cell_length_a                    19.753356
_cell_length_b                    17.049305
_cell_length_c                    15.372168
_cell_angle_alpha                 90.000083
_cell_angle_beta                  52.83683
_cell_angle_gamma                 90.000042
_cell_volume                      4125.68953325

loop_
_atom_site_label
_atom_site_type_symbol
_atom_type_description
_atom_site_fract_x
_atom_site_fract_y
_atom_site_fract_z
_atom_type_partial_charge
C1    C     C_R   0.839887 0.673188 0.046885 -0.114049
C2    C     C_R   0.160113 0.673188 0.953116 -0.114055
C3    C     C_R   0.339886 0.173187 0.046885 -0.114050
C4    C     C_R   0.660111 0.173190 0.953121 -0.114057
C5    C     C_R   0.808570 0.361262 0.321486 0.064340
C6    C     C_R   0.191418 0.361249 0.678505 0.064345
C7    C     C_R   0.308580 0.861253 0.321495 0.064323
C8    C     C_R   0.691417 0.861247 0.678505 0.064356
C9    C     C_R   0.849744 0.310665 0.928973 0.161717
C10   C     C_R   0.150258 0.310665 0.071026 0.161707
C11   C     C_R   0.349742 0.810665 0.928975 0.161712
C12   C     C_R   0.650259 0.810666 0.071024 0.161701
C13   C     C_R   0.887113 0.683598 0.305673 0.076522
C14   C     C_R   0.112896 0.683598 0.694324 0.076526
C15   C     C_R   0.387111 0.183598 0.305674 0.076522
C16   C     C_R   0.612912 0.183590 0.694313 0.076516
C17   C     C_R   0.843561 0.708197 0.490453 0.054971
C18   C     C_R   0.156444 0.708202 0.509549 0.054981
C19   C     C_R   0.343560 0.208200 0.490451 0.054966
C20   C     C_R   0.656508 0.208168 0.509517 0.054923
C21   C     C_R   0.867011 0.738063 0.390972 0.089074
C22   C     C_R   0.133000 0.738065 0.609028 0.089070
C23   C     C_R   0.367009 0.238065 0.390971 0.089068
C24   C     C_R   0.633026 0.238048 0.609004 0.089071
C25   C     C_R   0.357075 0.318846 0.383223 -0.206794
C26   C     C_R   0.642919 0.318836 0.616760 -0.206785
C27   C     C_R   0.857078 0.818845 0.383225 -0.206788
C28   C     C_R   0.142933 0.818847 0.616776 -0.206790
C29   C     C_R   0.307755 0.363951 0.478538 -0.171312
C30   C     C_R   0.692222 0.363948 0.521450 -0.171323
C31   C     C_R   0.807757 0.863950 0.478539 -0.171318
C32   C     C_R   0.192248 0.863953 0.521463 -0.171303
C33   C     C_R   0.267301 0.327608 0.581005 0.008765
C34   C     C_R   0.732696 0.327605 0.418980 0.008744
C35   C     C_R   0.767300 0.827605 0.581006 0.008767
C36   C     C_R   0.232697 0.827612 0.418996 0.008752
C37   C     C_R   0.792429 0.751530 0.584500 -0.029368
C38   C     C_R   0.207565 0.751538 0.415504 -0.029374
C39   C     C_R   0.292431 0.251533 0.584498 -0.029375
C40   C     C_R   0.707612 0.251512 0.415475 -0.029340
C41   C     C_3   0.743527 0.679359 0.650594 1.135609
C42   C     C_3   0.256456 0.679367 0.349400 1.135591
C43   C     C_3   0.243534 0.179361 0.650595 1.135629
C44   C     C_3   0.756567 0.179360 0.349384 1.135566
C45   C     C_R   0.848915 0.331287 0.217681 -0.048690
C46   C     C_R   0.151077 0.331275 0.782311 -0.048759
C47   C     C_R   0.348920 0.831278 0.217688 -0.048739
C48   C     C_R   0.651076 0.831274 0.782311 -0.048761
C49   C     C_3   0.802173 0.631770 0.546400 -0.781465
C50   C     C_3   0.197828 0.631777 0.453596 -0.781473
C51   C     C_3   0.302175 0.131773 0.546400 -0.781473
C52   C     C_3   0.697959 0.131760 0.453573 -0.781418
C53   C     C_2   0.785910 0.183360 0.955396 -0.179724
C54   C     C_2   0.214080 0.183355 0.044624 -0.179692
C55   C     C_2   0.285918 0.683355 0.955381 -0.179708
C56   C     C_2   0.714080 0.683356 0.044624 -0.179716
C57   C     C_2   0.310776 0.752544 0.903213 -0.214485
C58   C     C_2   0.689227 0.752547 0.096786 -0.214484
C59   C     C_2   0.810775 0.252545 0.903216 -0.214500
C60   C     C_2   0.189225 0.252546 0.096788 -0.214484
C61   C     C_R   0.866606 0.388126 0.895451 -0.166441
C62   C     C_R   0.133394 0.388126 0.104550 -0.166453
C63   C     C_R   0.366606 0.888126 0.895451 -0.166444
C64   C     C_R   0.633395 0.888127 0.104548 -0.166442
C65   C     C_R   0.908204 0.606622 0.302476 -0.138102
C66   C     C_R   0.091802 0.606622 0.697521 -0.138091
C67   C     C_R   0.408203 0.106622 0.302476 -0.138101
C68   C     C_R   0.591814 0.106616 0.697513 -0.138046
C69   C     C_R   0.877574 0.298372 0.990741 -0.113328
C70   C     C_R   0.122429 0.298373 0.009256 -0.113280
C71   C     C_R   0.377571 0.798373 0.990744 -0.113285
C72   C     C_R   0.622429 0.798373 0.009255 -0.113314
C73   C     C_R   0.896516 0.698180 0.210209 -0.151634
C74   C     C_R   0.103489 0.698179 0.789791 -0.151634
C75   C     C_R   0.396515 0.198179 0.210208 -0.151635
C76   C     C_R   0.603495 0.198177 0.789785 -0.151651
C77   C     C_R   0.859131 0.420905 0.315852 -0.144548
C78   C     C_R   0.140860 0.420898 0.684145 -0.144536
C79   C     C_R   0.359139 0.920900 0.315854 -0.144540
C80   C     C_R   0.640859 0.920896 0.684145 -0.144540
C81   C     C_R   0.829721 0.580367 0.951479 -0.129211
C82   C     C_R   0.170281 0.580364 0.048515 -0.129191
C83   C     C_R   0.329719 0.080365 0.951483 -0.129200
C84   C     C_R   0.670274 0.080371 0.048531 -0.129225
C85   C     C_R   0.788352 0.643989 0.021616 0.144256
C86   C     C_R   0.211649 0.643988 0.978382 0.144263
C87   C     C_R   0.288351 0.143988 0.021619 0.144250
C88   C     C_R   0.711643 0.143993 0.978396 0.144266
H1    H     H_    0.830306 0.723970 0.094954 0.089010
H2    H     H_    0.169693 0.723972 0.905050 0.089011
H3    H     H_    0.330306 0.223970 0.094953 0.089011
H4    H     H_    0.669691 0.223974 0.905056 0.089012
H5    H     H_    0.293525 0.424049 0.472186 0.122595
H6    H     H_    0.706423 0.424054 0.527805 0.122607
H7    H     H_    0.793528 0.924047 0.472187 0.122605
H8    H     H_    0.206478 0.924050 0.527815 0.122596
H9    H     H_    0.846793 0.593509 0.548455 0.207812
H10   H     H_    0.153205 0.593512 0.451554 0.207838
H11   H     H_    0.346797 0.093512 0.548450 0.207821
H12   H     H_    0.653385 0.093444 0.451501 0.207838
H13   H     H_    0.771290 0.601454 0.515001 0.189390
H14   H     H_    0.228724 0.601465 0.484979 0.189387
H15   H     H_    0.271289 0.101457 0.515006 0.189390
H16   H     H_    0.728856 0.101499 0.484987 0.189400
H17   H     H_    0.808890 0.162337 0.999734 0.133125
H18   H     H_    0.191089 0.162326 0.000301 0.133114
H19   H     H_    0.308903 0.662328 0.999711 0.133119
H20   H     H_    0.691087 0.662326 0.000304 0.133114
H21   H     H_    0.289783 0.772676 0.856219 0.124052
H22   H     H_    0.710225 0.772683 0.143773 0.124054
H23   H     H_    0.789786 0.272674 0.856216 0.124055
H24   H     H_    0.210221 0.272680 0.143778 0.124049
H25   H     H_    0.825696 0.286948 0.192241 0.143138
H26   H     H_    0.174296 0.286937 0.807752 0.143212
H27   H     H_    0.325700 0.786941 0.192248 0.143197
H28   H     H_    0.674294 0.786936 0.807753 0.143214
H29   H     H_    0.862288 0.414695 0.835054 0.092727
H30   H     H_    0.137710 0.414695 0.164948 0.092717
H31   H     H_    0.362289 0.914694 0.835053 0.092726
H32   H     H_    0.637713 0.914696 0.164945 0.092739
H33   H     H_    0.923148 0.578692 0.352057 0.117227
H34   H     H_    0.076859 0.578693 0.647938 0.117222
H35   H     H_    0.423147 0.078693 0.352057 0.117226
H36   H     H_    0.576884 0.078686 0.647918 0.117204
H37   H     H_    0.886231 0.242893 0.016806 0.102982
H38   H     H_    0.113776 0.242893 0.983186 0.103040
H39   H     H_    0.386225 0.742893 0.016813 0.102998
H40   H     H_    0.613778 0.742893 0.983185 0.103062
H41   H     H_    0.897060 0.754999 0.178618 0.086946
H42   H     H_    0.102945 0.754998 0.821383 0.086946
H43   H     H_    0.397059 0.254999 0.178617 0.086948
H44   H     H_    0.602954 0.254998 0.821372 0.086953
H45   H     H_    0.847055 0.456805 0.381772 0.098623
H46   H     H_    0.152933 0.456801 0.618229 0.098618
H47   H     H_    0.347066 0.956803 0.381770 0.098620
H48   H     H_    0.652933 0.956798 0.618227 0.098626
H49   H     H_    0.808511 0.545675 0.913371 0.091453
H50   H     H_    0.191495 0.545666 0.086613 0.091420
H51   H     H_    0.308506 0.045669 0.913382 0.091438
H52   H     H_    0.691480 0.045687 0.086649 0.091514
H53   H     H_    0.378957 0.345240 0.306287 0.121620
H54   H     H_    0.621013 0.345235 0.693702 0.121628
H55   H     H_    0.878962 0.845239 0.306288 0.121612
H56   H     H_    0.121054 0.845239 0.693712 0.121619
N1    N     N_R   0.908660 0.628630 0.995840 -0.046143
N2    N     N_R   0.091340 0.628630 0.004160 -0.046142
N3    N     N_R   0.408660 0.128630 0.995840 -0.046143
N4    N     N_R   0.591340 0.128630 0.004160 -0.046142
N5    N     N_R   0.922310 0.368460 0.151950 -0.050232
N6    N     N_R   0.077690 0.368460 0.848050 -0.050247
N7    N     N_R   0.422310 0.868460 0.151950 -0.050247
N8    N     N_R   0.577690 0.868460 0.848050 -0.050247
N9    N     N_R   0.903470 0.421430 0.936420 -0.040487
N10   N     N_R   0.096530 0.421430 0.063580 -0.040487
N11   N     N_R   0.403470 0.921430 0.936420 -0.040488
N12   N     N_R   0.596530 0.921430 0.063580 -0.040487
N13   N     N_R   0.927500 0.575670 0.211370 -0.040703
N14   N     N_R   0.072500 0.575670 0.788630 -0.040703
N15   N     N_R   0.427500 0.075670 0.211370 -0.040701
N16   N     N_R   0.572500 0.075670 0.788630 -0.040706
N17   N     N_R   0.908660 0.365680 0.995820 -0.053413
N18   N     N_R   0.091340 0.365680 0.004180 -0.053415
N19   N     N_R   0.408660 0.865680 0.995820 -0.053413
N20   N     N_R   0.591340 0.865680 0.004180 -0.053413
N21   N     N_R   0.922310 0.631420 0.151980 -0.038067
N22   N     N_R   0.077690 0.631420 0.848020 -0.038066
N23   N     N_R   0.422310 0.131420 0.151980 -0.038066
N24   N     N_R   0.577690 0.131420 0.848020 -0.038066
N25   N     N_R   0.927500 0.426330 0.211360 -0.043119
N26   N     N_R   0.072500 0.426330 0.788640 -0.043118
N27   N     N_R   0.427500 0.926330 0.211360 -0.043120
N28   N     N_R   0.572500 0.926330 0.788640 -0.043119
N29   N     N_R   0.903470 0.570760 0.936440 -0.042317
N30   N     N_R   0.096530 0.570760 0.063560 -0.042318
N31   N     N_R   0.403470 0.070760 0.936440 -0.042318
N32   N     N_R   0.596530 0.070760 0.063560 -0.042321
Ni1   Ni    Ni4+2 0.000000 0.630300 0.000000 0.206685
Ni2   Ni    Ni4+2 0.500000 0.130300 0.000000 0.206686
Ni3   Ni    Ni4+2 0.000000 0.369700 0.000000 0.227738
Ni4   Ni    Ni4+2 0.500000 0.869700 0.000000 0.227743
Ni5   Ni    Ni4+2 0.988090 0.497570 0.863760 0.210574
Ni6   Ni    Ni4+2 0.011910 0.497570 0.136240 0.210567
Ni7   Ni    Ni4+2 0.488090 0.997570 0.863760 0.210578
Ni8   Ni    Ni4+2 0.511910 0.997570 0.136240 0.210574
O1    O     O_3   0.758797 0.663950 0.727993 -0.659078
C89   C     C_3   0.715019 0.595730 0.788553 -0.245353
H57   H     H_    0.724241 0.545886 0.735580 0.135532
H58   H     H_    0.646223 0.608316 0.850283 0.171680
H59   H     H_    0.740130 0.577179 0.833083 0.143804
O2    O     O_3   0.241152 0.663957 0.272036 -0.659101
C90   C     C_3   0.284951 0.595761 0.211428 -0.245145
H60   H     H_    0.276029 0.545972 0.264306 0.135567
H61   H     H_    0.353683 0.608461 0.149440 0.171510
H62   H     H_    0.259615 0.577058 0.167226 0.143791
O3    O     O_3   0.258815 0.163955 0.727983 -0.659084
C91   C     C_3   0.215044 0.095736 0.788548 -0.245345
H63   H     H_    0.224171 0.045911 0.735605 0.135543
H64   H     H_    0.146270 0.108348 0.850365 0.171622
H65   H     H_    0.240234 0.077141 0.832961 0.143822
O4    O     O_3   0.741301 0.163890 0.271996 -0.659156
C92   C     C_3   0.785245 0.095769 0.211305 -0.245134
H66   H     H_    0.776381 0.045971 0.264143 0.135634
H67   H     H_    0.853959 0.108584 0.149381 0.171558
H68   H     H_    0.759997 0.077024 0.167007 0.143754
O5    O     O_3   0.654458 0.680758 0.699674 -0.651815
C93   C     C_3   0.634089 0.683075 0.625859 -0.340166
H69   H     H_    0.630782 0.622608 0.601895 0.162769
H70   H     H_    0.678076 0.719533 0.552442 0.149546
H71   H     H_    0.569934 0.709233 0.668636 0.192869
O6    O     O_3   0.345531 0.680755 0.300281 -0.651784
C94   C     C_3   0.365930 0.683078 0.374065 -0.340184
H72   H     H_    0.369244 0.622613 0.398027 0.162775
H73   H     H_    0.321958 0.719539 0.447484 0.149535
H74   H     H_    0.430089 0.709234 0.331260 0.192878
O7    O     O_3   0.154463 0.180755 0.699689 -0.651801
C95   C     C_3   0.134084 0.183070 0.625885 -0.340189
H75   H     H_    0.130780 0.122603 0.601919 0.162774
H76   H     H_    0.178063 0.219532 0.552469 0.149547
H77   H     H_    0.069926 0.209221 0.668674 0.192876
O8    O     O_3   0.845633 0.180823 0.300304 -0.651803
C96   C     C_3   0.865998 0.183196 0.374119 -0.340205
H78   H     H_    0.869365 0.122745 0.398069 0.162794
H79   H     H_    0.821976 0.219630 0.447547 0.149539
H80   H     H_    0.930125 0.209412 0.331348 0.192886

loop_
_geom_bond_atom_site_label_1
_geom_bond_atom_site_label_2
_ccdc_geom_bond_type
C46   N6    A    
C83   C87   A    
C3    N3    A    
O2    C90   S    
C83   N31   A    
N21   Ni1   S    
C92   H66   S    
C1    N1    A    
C44   O8    S    
C95   H77   S    
C78   N26   A    
C43   O7    S    
C68   H36   S    
C83   H51   S    
N12   Ni8   S    
C67   N15   A    
C13   C65   A    
O5    C93   S    
C81   H49   S    
C18   C50   S    
C70   H38   S    
C33   C39   A    
C11   C71   A    
C71   N19   A    
C72   H40   S    
C9    C61   A    
C14   C74   A    
C43   O3    S    
C35   C37   A    
C69   N17   A    
C38   C42   S    
C96   H80   S    
C11   C63   A    
C49   H13   S    
C54   C87   S    
N8    N28   A    
C93   H70   S    
C6    C78   A    
C51   H15   S    
C4    N4    A    
C16   C76   A    
C29   C33   A    
N5    Ni3   S    
N7    N27   A    
C3    H3    S    
C7    C36   S    
N11   Ni7   S    
C79   N27   A    
C2    H2    S    
C45   H25   S    
C56   H20   S    
N4    Ni2   S    
C57   H21   S    
O1    C89   S    
C82   N30   A    
N15   N23   A    
O4    C92   S    
N2    N30   A    
C59   H23   S    
C66   H34   S    
C2    C86   A    
C28   H56   S    
C65   H33   S    
N15   Ni8   S    
N17   Ni3   S    
N9    Ni5   S    
N16   Ni7   S    
N20   Ni4   S    
N3    Ni2   S    
C48   H28   S    
C12   C58   S    
C44   C52   S    
C15   C23   S    
C21   C27   A    
C69   H37   S    
C16   C24   S    
C58   H22   S    
C89   H58   S    
C25   C29   A    
C92   H67   S    
N30   Ni6   S    
C10   C62   A    
N3    N31   A    
C77   H45   S    
C91   H65   S    
C70   N18   A    
C41   C49   S    
O8    C96   S    
C75   H43   S    
C51   H11   S    
C73   H41   S    
C50   H10   S    
C30   C34   A    
C3    C87   A    
C90   H60   S    
C41   O5    S    
C20   C24   A    
N27   Ni8   S    
C28   C32   A    
C13   C21   S    
C95   H75   S    
C14   C66   A    
C91   H64   S    
N13   N21   A    
C46   H26   S    
C93   H69   S    
C54   C60   D    
C71   H39   S    
N11   N19   A    
C82   C86   A    
C27   C31   A    
C52   H12   S    
C17   C21   A    
C62   N10   A    
N2    Ni1   S    
C67   H35   S    
C9    C59   S    
C8    C35   S    
C81   N29   A    
N8    Ni4   S    
C19   C23   A    
O7    C95   S    
C90   H61   S    
C96   H78   S    
C60   H24   S    
C19   C51   S    
C63   H31   S    
C42   O2    S    
C27   H55   S    
C94   H72   S    
C15   C67   A    
C5    C34   S    
C94   H74   S    
C72   N20   A    
C41   O1    S    
N22   Ni1   S    
C17   C37   A    
C54   H18   S    
C78   H46   S    
C66   N14   A    
C84   H52   S    
N18   Ni3   S    
C47   H27   S    
C19   C39   A    
C42   C50   S    
C84   N32   A    
C16   C68   A    
C10   C70   A    
C73   N21   A    
C94   H73   S    
N1    N29   A    
C50   H14   S    
C55   C57   D    
N26   Ni5   S    
C9    C69   A    
C92   H68   S    
N5    N25   A    
C1    C85   A    
C2    N2    A    
N13   Ni6   S    
C80   N28   A    
C17   C49   S    
C68   N16   A    
N4    N32   A    
C74   H42   S    
C32   C36   A    
C74   N22   A    
N14   N22   A    
C7    C79   A    
C15   C75   A    
N32   Ni8   S    
C12   C64   A    
C93   H71   S    
C10   C60   S    
C52   H16   S    
C1    H1    S    
C6    C46   A    
C53   C59   D    
C23   C25   A    
C18   C22   A    
N31   Ni7   S    
N10   N18   A    
C25   H53   S    
C84   C88   A    
C13   C73   A    
C91   H63   S    
C61   N9    A    
C75   N23   A    
C44   O4    S    
C4    C88   A    
C32   H8    S    
C65   N13   A    
C79   H47   S    
C64   N12   A    
C56   C85   S    
C64   H32   S    
C6    C33   S    
C96   H79   S    
C14   C22   S    
C55   C86   S    
C48   N8    A    
C42   O6    S    
C18   C38   A    
C90   H62   S    
C63   N11   A    
C30   H6    S    
C61   H29   S    
C26   H54   S    
C8    C48   A    
C82   H50   S    
C29   H5    S    
C76   H44   S    
N28   Ni7   S    
C43   C51   S    
N7    Ni4   S    
N6    N26   A    
C5    C45   A    
C89   H59   S    
C20   C40   A    
N10   Ni6   S    
C31   C35   A    
C36   C38   A    
C56   C58   D    
C76   N24   A    
C53   C88   S    
C45   N5    A    
N16   N24   A    
C37   C41   S    
C12   C72   A    
N14   Ni5   S    
N25   Ni6   S    
C62   H30   S    
C80   H48   S    
C31   H7    S    
C47   N7    A    
N29   Ni5   S    
O3    C91   S    
C20   C52   S    
C53   H17   S    
C40   C44   S    
N23   Ni2   S    
N12   N20   A    
C24   C26   A    
C77   N25   A    
O6    C94   S    
C39   C43   S    
N1    Ni1   S    
N19   Ni4   S    
C8    C80   A    
C34   C40   A    
C22   C28   A    
C55   H19   S    
C89   H57   S    
C11   C57   S    
C5    C77   A    
N24   Ni2   S    
N9    N17   A    
C81   C85   A    
C95   H76   S    
C7    C47   A    
N6    Ni3   S    
C4    H4    S    
C26   C30   A    
C49   H9    S    
