data_mof_unit_17273.cif
_audit_creation_date              2012-12-10T19:14:30-0500
_audit_creation_method            fapswitch 2.2
_symmetry_space_group_name_H-M    P1
_symmetry_Int_Tables_number       1
_space_group_crystal_system       triclinic
_cell_length_a                    15.998039
_cell_length_b                    14.767277
_cell_length_c                    10.907483
_cell_angle_alpha                 89.098764
_cell_angle_beta                  90.126476
_cell_angle_gamma                 88.687223
_cell_volume                      2575.86174721

loop_
_atom_site_label
_atom_site_type_symbol
_atom_type_description
_atom_site_fract_x
_atom_site_fract_y
_atom_site_fract_z
_atom_type_partial_charge
C1    C     C_R   0.340866 0.500735 0.504012 0.805327
C2    C     C_R   0.423735 0.955658 0.504400 0.401883
C3    C     C_R   0.499373 0.903234 0.499324 -0.225536
C4    C     C_R   0.425590 0.051331 0.505285 -0.198617
C5    C     C_R   0.575784 0.046297 0.493672 -0.166723
C6    C     C_R   0.500941 0.097566 0.499617 -0.092855
C7    C     C_1   0.499380 0.802715 0.499964 0.430738
C8    C     C_1   0.500759 0.197407 0.499861 0.243197
C9    C     C_R   0.493712 0.501648 0.262074 0.895406
C10   C     C_R   0.501544 0.499542 0.738165 0.862958
C11   C     C_R   0.344736 0.561228 0.111822 0.346839
C12   C     C_R   0.659141 0.499062 0.500687 0.926332
C13   C     C_R   0.359807 0.576460 0.864618 0.354545
C14   C     C_R   0.273502 0.548295 0.039489 -0.180111
C15   C     C_R   0.280841 0.559283 0.912772 -0.203670
C16   C     C_R   0.429115 0.539383 0.930755 -0.064827
C17   C     C_R   0.423577 0.536356 0.059776 -0.072817
C18   C     C_R   0.495217 0.507191 0.128286 -0.245093
C19   C     C_R   0.499458 0.500202 0.871837 -0.230198
C20   C     C_R   0.570290 0.482995 0.067666 0.252923
C21   C     C_R   0.568029 0.465112 0.941202 0.323073
C22   C     C_R   0.952927 0.588168 0.480562 0.290777
C23   C     C_R   0.959117 0.424446 0.516010 -0.170455
C24   C     C_R   0.040577 0.591159 0.501734 0.316138
C25   C     C_R   0.912669 0.504405 0.495762 -0.029183
C26   C     C_R   0.086691 0.508489 0.513846 -0.037263
C27   C     C_R   0.045711 0.426144 0.520639 -0.211343
C28   C     C_1   0.823194 0.499368 0.496770 0.138022
C29   C     C_1   0.176543 0.505411 0.512798 0.102886
C30   C     C_1   0.251653 0.502726 0.509464 -0.050621
C31   C     C_1   0.748222 0.497605 0.498750 0.018710
C32   C     C_R   0.575820 0.950261 0.493654 0.347164
Cu1   Cu    Cu3+1 0.500000 0.589220 0.500000 1.166221
Cu2   Cu    Cu3+1 0.500000 0.410780 0.500000 1.055910
H1    H     H_    0.211844 0.556892 0.079158 0.204365
H2    H     H_    0.080932 0.362915 0.531341 0.185367
H3    H     H_    0.634368 0.081466 0.489178 0.194049
H4    H     H_    0.367567 0.090334 0.510710 0.191426
H5    H     H_    0.662552 0.764908 0.385721 0.366010
H6    H     H_    0.275623 0.776212 0.464015 0.433370
H7    H     H_    0.225212 0.577125 0.860128 0.210593
H8    H     H_    0.649896 0.635117 0.187109 0.363990
H9    H     H_    0.652290 0.293894 0.732534 0.372719
H10   H     H_    0.262693 0.786681 0.179269 0.411177
H11   H     H_    0.329724 0.814833 0.884221 0.404445
H12   H     H_    0.182957 0.741276 0.653826 0.421579
H13   H     H_    0.801506 0.707582 0.284048 0.406495
H14   H     H_    0.928225 0.360202 0.526206 0.190909
N1    N     N_1   0.500000 0.276710 0.500000 -0.145847
N2    N     N_1   0.500000 0.723290 0.500000 -0.102115
O1    O     O_R   0.380310 0.575320 0.500020 -0.483342
O2    O     O_2   0.738352 0.509752 0.058940 -0.171485
O3    O     O_3   0.662070 0.581824 0.241049 -0.529037
O4    O     O_2   0.700593 0.457027 0.790935 -0.311934
O5    O     O_2   0.703298 0.349469 0.964609 -0.167856
O6    O     O_3   0.606132 0.316219 0.785258 -0.510821
O7    O     O_2   0.291210 0.637842 0.317706 -0.295208
O8    O     O_2   0.415076 0.705510 0.221527 -0.239044
O9    O     O_3   0.270192 0.734976 0.123269 -0.448145
O10   O     O_2   0.455935 0.721220 0.822488 -0.260988
O11   O     O_2   0.348863 0.689670 0.669150 -0.240364
O12   O     O_R   0.619690 0.575320 0.499980 -0.559836
O13   O     O_3   0.300172 0.757287 0.873435 -0.442334
O14   O     O_2   0.124232 0.728769 0.400977 -0.204351
O15   O     O_2   0.033492 0.765563 0.575208 -0.176751
O16   O     O_3   0.172991 0.680520 0.620278 -0.528309
O17   O     O_2   0.855704 0.732460 0.535712 -0.163964
O18   O     O_2   0.947575 0.749607 0.357331 -0.173782
O19   O     O_3   0.816544 0.652959 0.333866 -0.499410
O20   O     O_2   0.744479 0.953748 0.482670 -0.183017
O21   O     O_2   0.681795 0.828658 0.596828 -0.239913
O22   O     O_3   0.674545 0.827519 0.358279 -0.495859
O23   O     O_R   0.380310 0.424640 0.499960 -0.614285
O24   O     O_2   0.306230 0.884581 0.645499 -0.249239
O25   O     O_2   0.258341 0.968756 0.462545 -0.237119
O26   O     O_3   0.324739 0.808934 0.433279 -0.469542
O27   O     O_R   0.619690 0.424640 0.500040 -0.570653
O28   O     O_R   0.500000 0.575360 0.319640 -0.516345
O29   O     O_R   0.500000 0.575360 0.680360 -0.534678
O30   O     O_R   0.500000 0.424670 0.319580 -0.570234
O31   O     O_R   0.500000 0.424670 0.680420 -0.544465
O32   O     O_2   0.685877 0.408471 0.220176 -0.235802
S1    S     S_3+6 0.667554 0.493376 0.146317 0.085343
S2    S     S_3+6 0.648282 0.397130 0.871019 0.070843
S3    S     S_3+6 0.333254 0.660640 0.199324 0.062182
S4    S     S_3+6 0.368867 0.687638 0.803141 0.074519
S5    S     S_3+6 0.092245 0.695483 0.522594 0.097198
S6    S     S_3+6 0.893611 0.685057 0.427628 0.120164
S7    S     S_3+6 0.672585 0.890004 0.486017 0.085954
S8    S     S_3+6 0.324910 0.905040 0.513192 0.063636

loop_
_geom_bond_atom_site_label_1
_geom_bond_atom_site_label_2
_ccdc_geom_bond_type
C5    H3    S    
O4    S2    D    
C25   C28   S    
C26   C27   A    
C19   C21   A    
C24   C26   A    
H12   O16   S    
C3    C7    S    
Cu2   O27   S    
C5    C6    A    
C11   C14   A    
Cu1   O28   S    
H10   O9    S    
C2    S8    S    
H13   O19   S    
O25   S8    D    
Cu2   O30   S    
O7    S3    D    
Cu1   O12   S    
C22   C25   A    
C13   S4    S    
H5    O22   S    
O15   S5    D    
Cu2   O31   S    
C23   C27   A    
O14   S5    D    
C5    C32   A    
O6    S2    S    
H8    O3    S    
C15   H7    S    
C4    C6    A    
O16   S5    S    
O10   S4    D    
Cu1   O29   S    
C6    C8    S    
Cu1   N2    S    
H11   O13   S    
H6    O26   S    
C9    O30   A    
O2    S1    D    
C2    C4    A    
O9    S3    S    
C29   C30   T    
C12   O12   A    
H9    O6    S    
C32   S7    S    
O21   S7    D    
C21   S2    S    
C10   C19   S    
C12   O27   A    
C17   C18   A    
O17   S6    D    
C1    O1    A    
O19   S6    S    
C4    H4    S    
C22   S6    S    
C13   C15   A    
O13   S4    S    
O18   S6    D    
C22   C24   A    
C13   C16   A    
O20   S7    D    
O8    S3    D    
C14   H1    S    
C11   C17   A    
Cu2   N1    S    
C23   H14   S    
C28   C31   T    
C7    N2    T    
C10   O29   A    
C27   H2    S    
Cu1   O1    S    
C10   O31   A    
O3    S1    S    
C1    O23   A    
O24   S8    D    
C2    C3    A    
C12   C31   S    
O22   S7    S    
C16   C17   A    
C11   S3    S    
C16   C19   A    
C1    C30   S    
Cu1   Cu2   S    
C18   C20   A    
C9    O28   A    
C23   C25   A    
C3    C32   A    
C24   S5    S    
O11   S4    D    
Cu2   O23   S    
C9    C18   S    
C20   C21   A    
C26   C29   S    
O32   S1    D    
C20   S1    S    
C14   C15   A    
O5    S2    D    
C8    N1    T    
O26   S8    S    
