data_mof_unit_57533.cif
_audit_creation_date              2012-12-10T16:59:12-0500
_audit_creation_method            fapswitch 2.2
_symmetry_space_group_name_H-M    P1
_symmetry_Int_Tables_number       1
_space_group_crystal_system       triclinic
_cell_length_a                    7.801782
_cell_length_b                    8.595621
_cell_length_c                    27.524035
_cell_angle_alpha                 92.673193
_cell_angle_beta                  84.002931
_cell_angle_gamma                 93.589997
_cell_volume                      1830.59441876

loop_
_atom_site_label
_atom_site_type_symbol
_atom_type_description
_atom_site_fract_x
_atom_site_fract_y
_atom_site_fract_z
_atom_type_partial_charge
C1    C     C_R   0.545178 0.794224 0.498805 0.853317
C2    C     C_R   0.651862 0.540519 0.123666 0.001999
C3    C     C_R   0.497410 0.520074 0.647349 -0.185071
C4    C     C_R   0.502496 0.479653 0.352679 -0.184492
C5    C     C_R   0.624343 0.589190 0.024713 0.128138
C6    C     C_R   0.375342 0.409664 0.975356 0.128132
C7    C     C_R   0.402840 0.371879 0.023381 -0.110347
C8    C     C_R   0.596715 0.627076 0.976711 -0.110448
C9    C     C_R   0.518634 0.469706 0.048860 0.052659
C10   C     C_R   0.481006 0.529210 0.951220 0.052604
C11   C     C_R   0.763848 0.657935 0.048248 -0.124722
C12   C     C_R   0.454822 0.205776 0.501193 0.852916
C13   C     C_R   0.236008 0.340760 0.951781 -0.124800
C14   C     C_R   0.773857 0.638682 0.097508 -0.099436
C15   C     C_R   0.226227 0.359863 0.902506 -0.099338
C16   C     C_R   0.499711 0.503210 0.594154 0.895382
C17   C     C_R   0.500282 0.496762 0.405853 0.895686
C18   C     C_R   0.670833 0.764530 0.954004 0.312783
C19   C     C_R   0.328524 0.234556 0.046130 0.312822
C20   C     C_2   0.569425 0.956679 0.498777 0.307954
C21   C     C_2   0.430575 0.043320 0.501217 0.308212
C22   C     C_R   0.579598 0.665203 0.824594 0.610408
C23   C     C_R   0.468406 0.551781 0.901239 -0.102129
C24   C     C_R   0.419771 0.334202 0.175521 0.610615
C25   C     C_R   0.351849 0.465926 0.825880 0.552961
C26   C     C_R   0.648309 0.532734 0.174160 0.553204
C27   C     C_R   0.346836 0.601304 0.724943 -0.061430
C28   C     C_R   0.651870 0.396154 0.275163 -0.061263
C29   C     C_R   0.353041 0.582479 0.674525 -0.236277
C30   C     C_R   0.645745 0.415121 0.325578 -0.236440
C31   C     C_R   0.637112 0.478678 0.671498 0.647128
C32   C     C_R   0.363789 0.523029 0.328482 0.647143
C33   C     C_R   0.629479 0.496669 0.722200 -0.175280
C34   C     C_R   0.531283 0.447164 0.098839 -0.102041
C35   C     C_R   0.371324 0.504836 0.277787 -0.175448
C36   C     C_R   0.483928 0.556868 0.748906 0.186579
C37   C     C_R   0.515782 0.442496 0.251154 0.186684
C38   C     C_R   0.576717 0.665922 0.876000 -0.192590
C39   C     C_R   0.422699 0.333292 0.124114 -0.192555
C40   C     C_R   0.671623 0.778190 0.903314 0.402214
C41   C     C_R   0.327566 0.221104 0.096835 0.402147
C42   C     C_R   0.348135 0.458189 0.876376 0.002184
Cl1   Cl    Cl    0.040348 0.317905 0.446942 -0.336476
Cl2   Cl    Cl    0.959661 0.682126 0.553047 -0.335360
Cl3   Cl    Cl    0.780314 0.945747 0.876607 -0.430209
Cl4   Cl    Cl    0.218492 0.053825 0.123605 -0.430233
Cl5   Cl    Cl    0.726589 0.936354 0.988790 -0.483112
Cl6   Cl    Cl    0.272787 0.062593 0.011406 -0.483195
F1    F     F_    0.778421 0.417729 0.646518 -0.609059
F2    F     F_    0.223729 0.586232 0.353408 -0.608703
F3    F     F_    0.736044 0.016848 0.496818 -0.564762
F4    F     F_    0.263957 0.983151 0.503176 -0.564647
H1    H     H_    0.735087 0.461191 0.740948 0.189591
H2    H     H_    0.131274 0.273605 0.971170 0.211131
H3    H     H_    0.266577 0.541837 0.258985 0.189798
H4    H     H_    0.753335 0.378685 0.343305 0.228253
H5    H     H_    0.244587 0.617363 0.656865 0.229103
H6    H     H_    0.763554 0.347809 0.254573 0.188035
H7    H     H_    0.234306 0.648032 0.745573 0.188083
H8    H     H_    0.877176 0.701407 0.114979 0.220630
H9    H     H_    0.123078 0.296971 0.885005 0.220654
H10   H     H_    0.868538 0.725078 0.028834 0.211051
N1    N     N_R   0.470839 0.563867 0.801047 -0.349589
N2    N     N_R   0.528924 0.435250 0.199021 -0.349783
N3    N     N_2   0.950320 0.457960 0.486880 0.152875
N4    N     N_2   0.049680 0.542040 0.513120 0.153097
O1    O     O_R   0.389250 0.738570 0.503220 -0.572092
O2    O     O_2   0.307804 0.238287 0.202250 -0.465961
O3    O     O_2   0.759292 0.625622 0.198576 -0.517943
O4    O     O_2   0.241419 0.372511 0.801431 -0.518231
O5    O     O_R   0.610750 0.261430 0.496780 -0.572294
O6    O     O_R   0.678390 0.711630 0.494810 -0.549105
O7    O     O_R   0.321610 0.288370 0.505190 -0.549113
O8    O     O_R   0.355440 0.513440 0.575450 -0.620660
O9    O     O_R   0.644560 0.486560 0.424550 -0.620582
O10   O     O_R   0.644590 0.486500 0.567040 -0.542065
O11   O     O_R   0.355410 0.513500 0.432960 -0.542310
O12   O     O_2   0.691114 0.761609 0.797910 -0.466224
Zn1   Zn    Zn3+2 0.306940 0.517990 0.505620 1.184875
Zn2   Zn    Zn3+2 0.693060 0.482010 0.494380 1.184774

loop_
_geom_bond_atom_site_label_1
_geom_bond_atom_site_label_2
_ccdc_geom_bond_type
C27   C29   A    
Cl2   N4    S    
C11   H10   S    
C18   Cl5   S    
C33   C36   A    
C39   C41   A    
N4    Zn1   S    
C23   C42   A    
C16   O8    A    
C35   C37   A    
C5    C11   A    
C20   F3    S    
C11   C14   A    
C22   C38   A    
C24   C39   A    
C25   N1    A    
C3    C29   A    
C26   N2    A    
C18   C40   A    
C22   N1    A    
C41   Cl4   S    
C31   C33   A    
C36   N1    S    
O9    Zn2   S    
C2    C34   A    
C24   N2    A    
N3    Zn2   S    
C12   O7    A    
C31   F1    S    
O5    Zn2   S    
O11   Zn1   S    
C33   H1    S    
C40   Cl3   S    
C1    O6    A    
C35   H3    S    
C34   C39   A    
C32   C35   A    
O1    Zn1   S    
C22   O12   S    
C19   Cl6   S    
C30   H4    S    
C12   C21   S    
C8    C18   A    
C5    C9    A    
Cl1   N3    S    
C17   O11   A    
C15   H9    S    
C2    C26   A    
C3    C31   A    
C32   F2    S    
C4    C32   A    
C4    C17   S    
C12   O5    A    
C29   H5    S    
C7    C19   A    
O8    Zn1   S    
C13   C15   A    
C9    C34   A    
C10   C23   A    
C37   N2    S    
C13   H2    S    
C7    C9    A    
C1    C20   S    
C16   O10   A    
O10   Zn2   S    
C15   C42   A    
O7    Zn1   S    
C25   C42   A    
C6    C10   A    
C5    C8    A    
C6    C7    A    
C28   H6    S    
C27   C36   A    
C23   C38   A    
C14   H8    S    
C28   C30   A    
O6    Zn2   S    
C27   H7    S    
C6    C13   A    
C38   C40   A    
C28   C37   A    
C1    O1    A    
C2    C14   A    
C24   O2    S    
C20   C21   D    
C8    C10   A    
N3    N4    D    
C17   O9    A    
C26   O3    S    
C25   O4    S    
C21   F4    S    
C4    C30   A    
C3    C16   S    
C19   C41   A    
