data_mof_unit_6496.cif
_audit_creation_date              2012-12-11T15:15:12-0500
_audit_creation_method            fapswitch 2.2
_symmetry_space_group_name_H-M    P1
_symmetry_Int_Tables_number       1
_space_group_crystal_system       triclinic
_cell_length_a                    18.880215
_cell_length_b                    18.866679
_cell_length_c                    20.324423
_cell_angle_alpha                 106.989874
_cell_angle_beta                  106.525025
_cell_angle_gamma                 111.21401
_cell_volume                      5803.64288416

loop_
_atom_site_label
_atom_site_type_symbol
_atom_type_description
_atom_site_fract_x
_atom_site_fract_y
_atom_site_fract_z
_atom_type_partial_charge
C1    C     C_R   0.040496 0.088246 0.344987 -0.078211
C2    C     C_R   0.745673 0.001310 0.465632 0.063736
C3    C     C_R   0.773212 0.726279 0.287905 -0.014767
C4    C     C_R   0.032856 0.280653 0.529557 0.132105
C5    C     C_R   0.239666 0.194142 0.654395 -0.116651
C6    C     C_R   0.974881 0.801147 0.546878 -0.082285
C7    C     C_R   0.166424 0.934526 0.426873 -0.142913
C8    C     C_R   0.984284 0.052199 0.710669 -0.135237
C9    C     C_R   0.913522 0.912283 0.645902 -0.079635
C10   C     C_R   0.238276 0.073936 0.494235 -0.118629
C11   C     C_R   0.161221 0.187312 0.719088 -0.057538
C12   C     C_R   0.755272 0.929955 0.454445 -0.100964
C13   C     C_R   0.054405 0.808359 0.483645 -0.128593
C14   C     C_R   0.243658 0.215257 0.727325 0.090893
C15   C     C_R   0.039563 0.785888 0.539841 0.054730
C16   C     C_R   0.239275 0.005698 0.445315 0.111695
C17   C     C_R   0.936540 0.978636 0.713757 0.113374
C18   C     C_R   0.140658 0.729868 0.565162 -0.181054
C19   C     C_R   0.079050 0.747145 0.580314 0.093634
C20   C     C_R   0.043826 0.713407 0.623372 -0.188216
C21   C     C_R   0.049790 0.644859 0.630699 0.089197
C22   C     C_R   0.100113 0.617164 0.603103 0.044087
C23   C     C_R   0.847770 0.778423 0.289807 -0.184773
C24   C     C_R   0.153814 0.665624 0.578424 0.060410
C25   C     C_R   0.998335 0.597611 0.656669 -0.235451
C26   C     C_R   0.984051 0.515570 0.641754 0.278837
C27   C     C_R   0.021885 0.481255 0.600361 -0.024082
C28   C     C_R   0.088780 0.536330 0.591515 0.013139
C29   C     C_R   0.138028 0.507542 0.563510 0.147034
C30   C     C_R   0.201319 0.561252 0.551126 -0.247727
C31   C     C_R   0.209548 0.640367 0.557499 -0.110430
C32   C     C_R   0.991494 0.393629 0.562002 -0.165289
C33   C     C_R   0.048359 0.367065 0.545603 0.021348
C34   C     C_R   0.992963 0.232766 0.560947 -0.039857
C35   C     C_R   0.122007 0.424838 0.547360 -0.218501
C36   C     C_R   0.300230 0.928009 0.383450 -0.266502
C37   C     C_R   0.300541 0.005273 0.413565 0.040572
C38   C     C_R   0.362895 0.078991 0.417844 0.120271
C39   C     C_R   0.435791 0.078715 0.412647 0.055405
C40   C     C_R   0.437778 0.001379 0.389977 0.008512
C41   C     C_R   0.366804 0.925134 0.369532 0.135361
C42   C     C_R   0.508761 0.154030 0.434110 -0.126026
C43   C     C_R   0.584182 0.153540 0.440304 -0.186290
C44   C     C_R   0.587247 0.077526 0.422694 0.119869
C45   C     C_R   0.772183 0.768581 0.355759 0.168233
C46   C     C_R   0.512480 0.000564 0.392785 0.052496
C47   C     C_R   0.514021 0.923221 0.372211 0.124502
C48   C     C_R   0.440074 0.846748 0.343440 -0.175517
C49   C     C_R   0.366849 0.847791 0.343023 -0.174624
C50   C     C_R   0.664446 0.077535 0.440683 -0.226916
C51   C     C_R   0.666560 0.001226 0.428536 0.107144
C52   C     C_R   0.590725 0.924024 0.388038 -0.235818
C53   C     C_R   0.319551 0.250964 0.798814 0.044981
C54   C     C_R   0.332848 0.310349 0.868791 -0.085308
C55   C     C_R   0.402845 0.336334 0.935774 -0.196350
C56   C     C_R   0.067917 0.238155 0.494024 -0.154525
C57   C     C_R   0.461058 0.306733 0.934056 0.210296
C58   C     C_R   0.448856 0.250238 0.864430 -0.126801
C59   C     C_R   0.378092 0.221657 0.797518 -0.165672
C60   C     C_R   0.626119 0.529710 0.104069 -0.141127
C61   C     C_R   0.679022 0.614407 0.156387 -0.167276
C62   C     C_R   0.711459 0.572736 0.258444 -0.111890
C63   C     C_R   0.658045 0.487532 0.205979 -0.156546
C64   C     C_R   0.614108 0.465531 0.128514 0.100736
C65   C     C_2   0.542513 0.348232 0.002040 -0.232307
C66   C     C_2   0.548486 0.377324 0.073491 -0.262786
C67   C     C_R   0.823189 0.070529 0.520773 -0.113949
C68   C     C_R   0.719962 0.636442 0.233977 0.145751
C69   C     C_R   0.947352 0.024924 0.200710 0.136533
C70   C     C_R   0.906447 0.952533 0.130562 -0.169195
C71   C     C_R   0.867186 0.954736 0.062726 -0.140563
C72   C     C_R   0.867742 0.029631 0.063144 0.209540
C73   C     C_R   0.908198 0.102050 0.133131 -0.160929
C74   C     C_R   0.947217 0.099676 0.201506 -0.148650
C75   C     C_R   0.829788 0.029763 0.837442 -0.133743
C76   C     C_R   0.869943 0.033279 0.789802 -0.167872
C77   C     C_R   0.875840 0.905138 0.786054 -0.077302
C78   C     C_R   0.971142 0.946984 0.281160 -0.114773
C79   C     C_R   0.832033 0.900568 0.831312 -0.207906
C80   C     C_R   0.812058 0.964199 0.859460 0.200207
C81   C     C_2   0.840820 0.037369 0.991028 -0.206767
C82   C     C_2   0.789116 0.968907 0.923209 -0.210572
C83   C     C_R   0.895099 0.972622 0.764940 0.042097
C84   C     C_R   0.987464 0.020781 0.272298 0.034317
H1    H     H_    0.065804 0.154724 0.359295 0.099747
H2    H     H_    0.947008 0.791869 0.585125 0.114176
H3    H     H_    0.139247 0.871841 0.381465 0.097008
H4    H     H_    0.000671 0.115725 0.747569 0.101845
H5    H     H_    0.863513 0.847943 0.622810 0.110630
H6    H     H_    0.281991 0.140180 0.516885 0.135839
H7    H     H_    0.140952 0.191127 0.764016 0.100181
H8    H     H_    0.101095 0.805890 0.463756 0.103169
H9    H     H_    0.170593 0.759169 0.535139 0.144471
H10   H     H_    0.001046 0.730449 0.640785 0.120557
H11   H     H_    0.964633 0.621845 0.683550 0.172975
H12   H     H_    0.709439 0.866111 0.412979 0.130902
H13   H     H_    0.164507 0.404761 0.532392 0.131573
H14   H     H_    0.241716 0.539817 0.533050 0.173766
H15   H     H_    0.251434 0.869807 0.375976 0.131575
H16   H     H_    0.510414 0.214685 0.451983 0.176974
H17   H     H_    0.640925 0.213121 0.462270 0.145324
H18   H     H_    0.722487 0.137234 0.468831 0.166986
H19   H     H_    0.875675 0.758705 0.253272 0.117582
H20   H     H_    0.590414 0.864179 0.375540 0.136233
H21   H     H_    0.440450 0.786863 0.326615 0.151584
H22   H     H_    0.311734 0.788683 0.325904 0.143580
H23   H     H_    0.686180 0.662980 0.136673 0.127268
H24   H     H_    0.745759 0.588849 0.317942 0.151658
H25   H     H_    0.494596 0.228994 0.861802 0.128675
H26   H     H_    0.591894 0.514529 0.044769 0.128998
H27   H     H_    0.368918 0.176190 0.744488 0.130459
H28   H     H_    0.971579 0.253323 0.603312 0.098545
H29   H     H_    0.597782 0.377815 0.992938 0.150676
H30   H     H_    0.415305 0.384722 0.988774 0.142125
H31   H     H_    0.649784 0.439012 0.225814 0.142767
H32   H     H_    0.906489 0.894302 0.127238 0.118173
H33   H     H_    0.881865 0.084203 0.772925 0.126039
H34   H     H_    0.749847 0.909071 0.921369 0.141981
H35   H     H_    0.911178 0.160979 0.134667 0.127352
H36   H     H_    0.814762 0.079441 0.858926 0.126164
H37   H     H_    0.977397 0.156458 0.254607 0.121396
H38   H     H_    0.879406 0.097459 0.992725 0.145838
H39   H     H_    0.840722 0.898648 0.009943 0.117913
H40   H     H_    0.820379 0.851454 0.850681 0.148301
H41   H     H_    0.114263 0.262979 0.474064 0.105033
H42   H     H_    0.838603 0.136179 0.543694 0.129723
H43   H     H_    0.930653 0.882595 0.237330 0.097067
H44   H     H_    0.291940 0.205274 0.639529 0.106420
N1    N     N_R   0.052580 0.056040 0.395500 -0.039829
N2    N     N_R   0.954640 0.834860 0.500130 -0.041877
N3    N     N_R   0.122510 0.958490 0.460420 -0.043517
N4    N     N_R   0.990180 0.030970 0.644220 -0.050288
N5    N     N_R   0.947420 0.943960 0.604500 -0.047066
N6    N     N_R   0.165270 0.045500 0.500140 -0.046961
N7    N     N_R   0.109790 0.150600 0.644220 -0.051940
N8    N     N_R   0.002890 0.838860 0.460420 -0.044102
N9    N     N_R   0.834730 0.954500 0.499860 -0.040769
N10   N     N_R   0.890210 0.849400 0.355780 -0.048919
N11   N     N_R   0.997110 0.161140 0.539580 -0.053329
N12   N     N_R   0.841950 0.845400 0.395490 -0.061616
N13   N     N_R   0.045360 0.165140 0.499870 -0.044911
N14   N     N_R   0.877490 0.041510 0.539580 -0.051756
N15   N     N_R   0.009820 0.969030 0.355780 -0.041130
N16   N     N_R   0.158050 0.154600 0.604510 -0.046408
Ni1   Ni    Ni4+2 0.104370 0.104380 0.500010 0.237025
Ni2   Ni    Ni4+2 0.895630 0.895620 0.499990 0.248127
Ni3   Ni    Ni4+2 0.006300 0.904810 0.408930 0.215113
Ni4   Ni    Ni4+2 0.993700 0.095190 0.591070 0.221056
I1    I     I_    0.912850 0.451422 0.690477 -0.369430
C85   C     C_2   0.897474 0.335609 0.518173 1.026419
O1    O     O_2   0.867736 0.259009 0.483791 -0.683516
O2    O     O_R   0.842816 0.369880 0.509747 -0.773228
H45   H     H_    0.781314 0.324942 0.477084 0.327254
C86   C     C_2   0.276140 0.694219 0.541721 1.008980
O3    O     O_2   0.298540 0.661292 0.496229 -0.630742
O4    O     O_R   0.315521 0.782590 0.580740 -0.802944
H46   H     H_    0.359966 0.811959 0.565180 0.329154
I2    I     I_    0.341821 0.183066 0.416911 -0.416361
C87   C     C_2   0.279622 0.351755 0.873403 0.981031
O5    O     O_2   0.267521 0.372210 0.930405 -0.619635
O6    O     O_R   0.245824 0.370298 0.814023 -0.800383
H47   H     H_    0.211180 0.398855 0.824206 0.332394
C88   C     C_2   0.480920 0.329029 0.092107 1.099627
O7    O     O_2   0.442599 0.251673 0.058777 -0.562687
O8    O     O_R   0.459760 0.369728 0.146750 -0.746087
H48   H     H_    0.488377 0.433485 0.166522 0.299330
C89   C     C_2   0.906619 0.843055 0.767969 0.983154
O9    O     O_2   0.864332 0.770276 0.756840 -0.625947
O10   O     O_R   0.985367 0.868373 0.766652 -0.796993
H49   H     H_    0.999919 0.820811 0.755508 0.322025
I3    I     I_    0.699552 0.710473 0.406405 -0.443301

loop_
_geom_bond_atom_site_label_1
_geom_bond_atom_site_label_2
_ccdc_geom_bond_type
N9    N14   A    
C75   C76   A    
C40   C41   A    
O8    H48   S    
C73   H35   S    
N2    Ni2   S    
C58   H25   S    
C34   H28   S    
C73   C74   A    
C23   N10   A    
C3    C23   A    
C88   O7    D    
C6    N2    A    
N3    N6    A    
C2    C12   A    
O6    H47   S    
C53   C59   A    
C89   O10   S    
C53   C54   A    
C1    C84   A    
C15   C19   S    
C25   H11   S    
C10   N6    A    
C26   C27   A    
C37   C38   A    
C18   C24   A    
C71   H39   S    
C28   C29   A    
C88   O8    S    
C3    C68   S    
C1    N1    A    
C38   C39   A    
C11   C14   A    
C62   H24   S    
C77   C83   A    
C34   N11   A    
C18   C19   A    
O10   H49   S    
C20   H10   S    
C54   C87   S    
C46   C47   A    
C23   H19   S    
C47   C48   A    
N4    N5    A    
C8    N4    A    
C59   H27   S    
C87   O6    S    
N3    Ni3   S    
C70   C71   A    
C75   C80   A    
C86   O4    S    
C72   C81   S    
N13   Ni1   S    
C16   C37   S    
C63   H31   S    
C6    C15   A    
C48   H21   S    
C22   C28   A    
C21   C22   A    
C4    C56   A    
C36   C41   A    
N2    N8    A    
C78   H43   S    
C45   I3    S    
C76   C83   A    
C41   C49   A    
C44   C46   A    
C81   C82   D    
C39   C42   A    
C77   C79   A    
C1    H1    S    
C4    C34   A    
N11   Ni4   S    
C75   H36   S    
C51   C52   A    
N4    Ni4   S    
N14   Ni4   S    
N9    Ni2   S    
C38   I2    S    
C80   C82   S    
C2    C67   A    
C67   H42   S    
N12   Ni2   S    
C89   O9    D    
N16   Ni1   S    
C5    N16   A    
C4    C33   S    
C70   H32   S    
C58   C59   A    
C3    C45   A    
C45   N12   A    
C63   C64   A    
C60   C61   A    
C17   C83   S    
C64   C66   S    
C40   C46   A    
C43   C44   A    
C43   H17   S    
C29   C30   A    
C42   H16   S    
C87   O5    D    
N10   Ni3   S    
C74   H37   S    
C62   C63   A    
C50   C51   A    
C5    C14   A    
C69   C74   A    
C56   H41   S    
C20   C21   A    
C86   O3    D    
C49   H22   S    
N10   N12   A    
C56   N13   A    
C9    C17   A    
N7    N16   A    
N15   Ni3   S    
C13   C15   A    
C13   H8    S    
C13   N8    A    
C22   C24   A    
C42   C43   A    
C82   H34   S    
C9    H5    S    
C39   C40   A    
C31   C86   S    
C30   H14   S    
C44   C50   A    
N6    Ni1   S    
C21   C25   A    
C54   C55   A    
O4    H46   S    
C27   C32   A    
C85   O1    D    
C65   H29   S    
C26   I1    S    
C7    C16   A    
C11   N7    A    
C8    C17   A    
C57   C65   S    
C72   C73   A    
C50   H18   S    
C47   C52   A    
N1    N15   A    
C55   H30   S    
C77   C89   S    
C79   H40   S    
C29   C35   A    
C76   H33   S    
C6    H2    S    
C62   C68   A    
C81   H38   S    
C60   C64   A    
C32   C33   A    
C19   C20   A    
C55   C57   A    
C25   C26   A    
C24   C31   A    
C7    N3    A    
C69   C84   S    
C10   C16   A    
C78   N15   A    
N11   N13   A    
C61   C68   A    
C57   C58   A    
C30   C31   A    
C48   C49   A    
C5    H44   S    
C33   C35   A    
C52   H20   S    
C66   C88   S    
C36   H15   S    
C85   O2    S    
N1    Ni1   S    
N7    Ni4   S    
C7    H3    S    
C69   C70   A    
C61   H23   S    
C78   C84   A    
N8    Ni3   S    
C60   H26   S    
C2    C51   S    
C79   C80   A    
C11   H7    S    
C71   C72   A    
C14   C53   S    
C32   C85   S    
O2    H45   S    
C10   H6    S    
C36   C37   A    
C65   C66   D    
C27   C28   A    
C18   H9    S    
C12   N9    A    
C12   H12   S    
N5    Ni2   S    
C8    H4    S    
C35   H13   S    
C67   N14   A    
C9    N5    A    
