data_mof_unit_29127.cif
_audit_creation_date              2012-10-26T21:32:58-0400
_audit_creation_method            fapswitch 2.2
_symmetry_space_group_name_H-M    P1
_symmetry_Int_Tables_number       1
_space_group_crystal_system       triclinic
_cell_length_a                    28.220495
_cell_length_b                    18.431111
_cell_length_c                    17.138846
_cell_angle_alpha                 89.995183
_cell_angle_beta                  61.486836
_cell_angle_gamma                 90.1071
_cell_volume                      7833.23227825

loop_
_atom_site_label
_atom_site_type_symbol
_atom_type_description
_atom_site_fract_x
_atom_site_fract_y
_atom_site_fract_z
_atom_type_partial_charge
C1    C     C_R   0.703188 0.271022 0.675043 0.930182
C2    C     C_R   0.923254 0.618457 0.566764 0.052702
C3    C     C_R   0.074372 0.900566 0.933774 0.942976
C4    C     C_R   0.576141 0.596577 0.932348 0.966357
C5    C     C_R   0.423872 0.403403 0.067645 0.958702
C6    C     C_R   0.423822 0.596487 0.067700 0.967150
C7    C     C_R   0.576585 0.404250 0.931903 0.958512
C8    C     C_R   0.557609 0.993030 0.475384 -0.074871
C9    C     C_R   0.468594 0.992241 0.443625 -0.072258
C10   C     C_R   0.035009 0.493580 0.542520 -0.072717
C11   C     C_R   0.945908 0.494237 0.511316 -0.074069
C12   C     C_R   0.542930 0.058250 0.447915 0.056159
C13   C     C_R   0.955099 0.365198 0.477121 0.058254
C14   C     C_R   0.489763 0.924412 0.452401 0.057194
C15   C     C_R   0.495270 0.058363 0.439467 0.076043
C16   C     C_R   0.532920 0.925362 0.474942 0.049156
C17   C     C_R   0.006717 0.558905 0.552130 0.082492
C18   C     C_R   0.973696 0.427784 0.503112 0.050972
C19   C     C_R   0.959156 0.558493 0.543388 0.053365
C20   C     C_R   0.017415 0.427089 0.523072 0.055656
C21   C     C_R   0.610898 0.933756 0.536904 -0.003002
C22   C     C_R   0.390665 0.061207 0.455686 -0.011695
C23   C     C_R   0.396775 0.931589 0.426551 -0.003028
C24   C     C_R   0.028296 0.621741 0.570704 0.084117
C25   C     C_R   0.631345 0.057489 0.484209 0.000892
C26   C     C_R   0.105411 0.431265 0.561206 -0.007832
C27   C     C_R   0.869182 0.556892 0.511822 -0.003754
C28   C     C_R   0.890742 0.434872 0.453435 -0.004336
C29   C     C_R   0.109804 0.562218 0.542060 -0.009665
C30   C     C_R   0.657659 0.934775 0.549437 -0.063947
C31   C     C_R   0.339288 0.062464 0.458005 -0.100589
C32   C     C_R   0.343413 0.933669 0.437895 -0.071590
C33   C     C_R   0.669215 0.060884 0.517122 -0.092517
C34   C     C_R   0.156953 0.433609 0.557568 -0.075831
C35   C     C_R   0.552764 0.862984 0.498827 0.058214
C36   C     C_R   0.830579 0.560677 0.480907 -0.092382
C37   C     C_R   0.842468 0.435110 0.446052 -0.060704
C38   C     C_R   0.160429 0.562933 0.542266 -0.096841
C39   C     C_R   0.681401 0.999646 0.549890 -0.270327
C40   C     C_R   0.317702 0.999002 0.446279 -0.261225
C41   C     C_R   0.181488 0.499140 0.554358 -0.278411
C42   C     C_R   0.817820 0.499746 0.448204 -0.277002
C43   C     C_R   0.599357 0.995136 0.500098 -0.028195
C44   C     C_R   0.419046 0.994969 0.440180 -0.017876
C45   C     C_R   0.083060 0.495642 0.550487 -0.017347
C46   C     C_R   0.471779 0.122176 0.427734 0.083315
C47   C     C_R   0.902613 0.495771 0.490825 -0.028912
C48   C     C_R   0.077689 0.366724 0.564950 0.349469
C49   C     C_R   0.874784 0.610828 0.564548 0.323663
C50   C     C_R   0.923869 0.373639 0.434593 0.349412
C51   C     C_R   0.084453 0.624339 0.531525 0.317272
C52   C     C_R   0.578920 0.871788 0.549850 0.352389
C53   C     C_R   0.415619 0.122742 0.468466 0.320542
C54   C     C_R   0.427373 0.867828 0.408689 0.344462
C55   C     C_R   0.625316 0.112833 0.433579 0.322326
C56   C     C_R   0.464552 0.860897 0.440576 0.055480
C57   C     C_R   0.577212 0.119758 0.429964 0.052998
C58   C     C_R   0.720918 0.266624 0.954207 -0.000526
C59   C     C_R   0.284421 0.744535 0.042348 -0.007035
C60   C     C_R   0.285439 0.253157 0.041900 -0.003709
C61   C     C_R   0.297434 0.730196 0.324645 0.950831
C62   C     C_R   0.714882 0.745760 0.958289 -0.007639
C63   C     C_R   0.224772 0.775437 0.951543 -0.003141
C64   C     C_R   0.780806 0.236764 0.044583 -0.006801
C65   C     C_R   0.774341 0.777292 0.049146 0.001051
C66   C     C_R   0.226193 0.222094 0.950525 -0.009320
C67   C     C_R   0.701585 0.215819 0.023996 0.341870
C68   C     C_R   0.305675 0.791818 0.968703 0.350039
C69   C     C_R   0.306681 0.205622 0.968633 0.348410
C70   C     C_R   0.695667 0.797644 0.026982 0.352266
C71   C     C_R   0.203486 0.728506 0.025503 0.346940
C72   C     C_R   0.297563 0.269552 0.324594 0.917336
C73   C     C_R   0.800267 0.287361 0.974470 0.351106
C74   C     C_R   0.793464 0.725530 0.980438 0.341037
C75   C     C_R   0.204908 0.269240 0.024148 0.345456
C76   C     C_R   0.731546 0.200593 0.068672 0.000576
C77   C     C_R   0.275831 0.807583 0.923734 0.008930
C78   C     C_R   0.277024 0.189777 0.923345 0.007398
C79   C     C_R   0.725394 0.813578 0.072153 0.007176
C80   C     C_R   0.233121 0.713106 0.070643 -0.001078
C81   C     C_R   0.770427 0.302310 0.929447 0.000434
C82   C     C_R   0.763848 0.709686 0.935418 -0.001927
C83   C     C_R   0.702284 0.730759 0.675528 0.968248
C84   C     C_R   0.234353 0.284726 0.069574 0.004305
C85   C     C_R   0.645618 0.329632 0.944370 -0.251703
C86   C     C_R   0.358042 0.676954 0.052991 -0.245009
C87   C     C_R   0.358732 0.321700 0.052573 -0.250727
C88   C     C_R   0.641492 0.677844 0.947391 -0.248511
C89   C     C_R   0.148979 0.835506 0.940218 -0.249293
C90   C     C_R   0.855370 0.172104 0.054867 -0.248669
C91   C     C_R   0.850786 0.836123 0.059685 -0.252147
C92   C     C_R   0.150211 0.162354 0.939388 -0.243101
C93   C     C_R   0.623012 0.357696 0.893055 -0.075998
C94   C     C_R   0.201470 0.767330 0.676296 0.898953
C95   C     C_R   0.378650 0.645401 0.105518 -0.080364
C96   C     C_R   0.378850 0.354134 0.105333 -0.081421
C97   C     C_R   0.621216 0.645759 0.894664 -0.082300
C98   C     C_R   0.117551 0.847738 0.897657 -0.072369
C99   C     C_R   0.877541 0.143306 0.106460 -0.083808
C100  C     C_R   0.882329 0.847843 0.102158 -0.069130
C101  C     C_R   0.118360 0.151115 0.897400 -0.065456
C102  C     C_R   0.647242 0.345955 0.802904 -0.014689
C103  C     C_R   0.353690 0.656305 0.195897 -0.000228
C104  C     C_R   0.353589 0.343625 0.195779 -0.016377
C105  C     C_R   0.797434 0.230172 0.324588 0.970049
C106  C     C_R   0.646366 0.656486 0.804268 -0.000729
C107  C     C_R   0.129787 0.813851 0.818057 0.001241
C108  C     C_R   0.853385 0.155331 0.196533 -0.003251
C109  C     C_R   0.869887 0.813970 0.181796 -0.002069
C110  C     C_R   0.130446 0.185456 0.818341 -0.023281
C111  C     C_R   0.684197 0.289668 0.767612 -0.197483
C112  C     C_R   0.317994 0.713995 0.231060 -0.181477
C113  C     C_R   0.318276 0.285397 0.230947 -0.196141
C114  C     C_R   0.681740 0.714656 0.769169 -0.163574
C115  C     C_R   0.179221 0.778596 0.772266 -0.201623
C116  C     C_R   0.798264 0.767883 0.323812 0.908197
C117  C     C_R   0.817122 0.212435 0.231509 -0.162478
C118  C     C_R   0.819947 0.779865 0.228198 -0.200226
C119  C     C_R   0.180095 0.220155 0.771926 -0.205347
C120  C     C_R   0.706334 0.257769 0.819648 0.385528
C121  C     C_R   0.298426 0.749810 0.177738 0.390555
C122  C     C_R   0.299155 0.248682 0.177521 0.380410
C123  C     C_R   0.701267 0.750760 0.822499 0.419449
C124  C     C_R   0.209415 0.761167 0.817711 0.390580
C125  C     C_R   0.795880 0.245590 0.178865 0.428028
C126  C     C_R   0.788934 0.763939 0.183601 0.390772
C127  C     C_R   0.201650 0.232290 0.676277 0.917343
C128  C     C_R   0.210993 0.236494 0.816573 0.407725
C129  C     C_R   0.689929 0.283453 0.905982 0.119159
C130  C     C_R   0.315225 0.725783 0.090549 0.111756
C131  C     C_R   0.316125 0.272347 0.090124 0.120334
C132  C     C_R   0.684249 0.726930 0.909867 0.113935
C133  C     C_R   0.193824 0.790216 0.902423 0.106893
C134  C     C_R   0.811824 0.219585 0.092745 0.110194
C135  C     C_R   0.805145 0.792182 0.098358 0.111330
C136  C     C_R   0.195373 0.207268 0.901262 0.099624
C137  C     C_R   0.696003 0.127498 0.519360 0.943005
C138  C     C_R   0.046436 0.364149 0.522242 0.070993
C139  C     C_R   0.309049 0.869706 0.462020 0.931551
C140  C     C_R   0.306743 0.127917 0.472667 0.911081
C141  C     C_R   0.691061 0.870424 0.535412 0.915523
C142  C     C_R   0.193024 0.628146 0.528171 0.888122
C143  C     C_R   0.809030 0.370255 0.463324 0.913738
C144  C     C_R   0.803950 0.627471 0.480207 0.937218
C145  C     C_R   0.191222 0.370016 0.536261 0.901348
C146  C     C_R   0.074595 0.099137 0.933679 0.950940
C147  C     C_R   0.925736 0.900405 0.066065 0.944451
C148  C     C_R   0.923485 0.095872 0.068024 0.967950
Cl1   Cl    Cl    0.068742 0.295862 0.639913 -0.614158
Cl2   Cl    Cl    0.369394 0.832554 0.933343 -0.524958
Cl3   Cl    Cl    0.370140 0.164753 0.934138 -0.544525
Cl4   Cl    Cl    0.634510 0.843315 0.056257 -0.533078
Cl5   Cl    Cl    0.139971 0.686930 0.060813 -0.558533
Cl6   Cl    Cl    0.861841 0.332977 0.943372 -0.542586
Cl7   Cl    Cl    0.854269 0.678758 0.951530 -0.574723
Cl8   Cl    Cl    0.141646 0.311002 0.058667 -0.545061
Cl9   Cl    Cl    0.754072 0.186230 0.781108 -0.543390
Cl10  Cl    Cl    0.253413 0.824370 0.216084 -0.513248
Cl11  Cl    Cl    0.254439 0.173563 0.216073 -0.542756
Cl12  Cl    Cl    0.817570 0.653591 0.649381 -0.652700
Cl13  Cl    Cl    0.746812 0.824964 0.783691 -0.519965
Cl14  Cl    Cl    0.264815 0.700295 0.774284 -0.558818
Cl15  Cl    Cl    0.749826 0.319018 0.216646 -0.521471
Cl16  Cl    Cl    0.731133 0.706824 0.229025 -0.569759
Cl17  Cl    Cl    0.267297 0.296197 0.772348 -0.517662
Cl18  Cl    Cl    0.931856 0.310252 0.351440 -0.571643
Cl19  Cl    Cl    0.115329 0.666065 0.425974 -0.559485
Cl20  Cl    Cl    0.565829 0.807641 0.634658 -0.556955
Cl21  Cl    Cl    0.384401 0.163634 0.574331 -0.545244
Cl22  Cl    Cl    0.425852 0.800066 0.336511 -0.585872
Cl23  Cl    Cl    0.682240 0.156963 0.350147 -0.651717
Cl24  Cl    Cl    0.640183 0.169793 0.054698 -0.568883
H1    H     H_    0.713346 0.000981 0.568035 0.202268
H2    H     H_    0.870625 0.155812 0.986278 0.199250
H3    H     H_    0.861511 0.861303 0.996225 0.191909
H4    H     H_    0.139863 0.136491 0.002337 0.194596
H5    H     H_    0.052149 0.256992 0.492590 0.236932
H6    H     H_    0.097612 0.310143 0.411146 0.198648
H7    H     H_    0.905939 0.697273 0.659602 0.249697
H8    H     H_    0.931716 0.727639 0.553558 0.216970
H9    H     H_    0.971280 0.257238 0.459113 0.243448
H10   H     H_    0.916623 0.279346 0.555469 0.207538
H11   H     H_    0.013243 0.704564 0.657210 0.203570
H12   H     H_    0.277991 0.999682 0.451033 0.203675
H13   H     H_    0.007607 0.621042 0.701296 0.203928
H14   H     H_    0.554529 0.753113 0.490026 0.239510
H15   H     H_    0.606532 0.795854 0.405163 0.213145
H16   H     H_    0.484094 0.210298 0.349419 0.206773
H17   H     H_    0.490792 0.129820 0.298125 0.208656
H18   H     H_    0.485204 0.754802 0.415447 0.246823
H19   H     H_    0.432388 0.771823 0.516915 0.213408
H20   H     H_    0.593889 0.202014 0.341305 0.249824
H21   H     H_    0.566481 0.228228 0.449104 0.217506
H22   H     H_    0.827700 0.337337 0.809011 0.246397
H23   H     H_    0.220179 0.499857 0.553421 0.201720
H24   H     H_    0.794369 0.404262 0.883025 0.237875
H25   H     H_    0.204750 0.614102 0.124225 0.237791
H26   H     H_    0.174980 0.685020 0.193756 0.277413
H27   H     H_    0.176070 0.313306 0.192242 0.246357
H28   H     H_    0.206421 0.383953 0.122221 0.238318
H29   H     H_    0.785683 0.606354 0.893953 0.236104
H30   H     H_    0.821425 0.670933 0.817846 0.263075
H31   H     H_    0.333804 0.836348 0.800897 0.256935
H32   H     H_    0.303760 0.906804 0.870927 0.233556
H33   H     H_    0.709616 0.097539 0.111648 0.232643
H34   H     H_    0.784842 0.500968 0.432547 0.202375
H35   H     H_    0.674060 0.162476 0.186834 0.262460
H36   H     H_    0.668151 0.850516 0.191314 0.247705
H37   H     H_    0.702369 0.916199 0.115678 0.234694
H38   H     H_    0.304568 0.090399 0.871304 0.231763
H39   H     H_    0.335127 0.160656 0.800904 0.281989
H40   H     H_    0.673491 0.415745 0.696470 0.199645
H41   H     H_    0.612687 0.372383 0.724738 0.236534
H42   H     H_    0.324609 0.585294 0.301440 0.192028
H43   H     H_    0.385985 0.625598 0.275968 0.255512
H44   H     H_    0.323488 0.414808 0.300967 0.196627
H45   H     H_    0.630118 0.345570 0.013130 0.194425
H46   H     H_    0.385081 0.376199 0.276392 0.232973
H47   H     H_    0.676387 0.585409 0.698979 0.205005
H48   H     H_    0.614777 0.624133 0.723706 0.247528
H49   H     H_    0.102023 0.853170 0.735724 0.225388
H50   H     H_    0.088267 0.762924 0.763042 0.203726
H51   H     H_    0.826207 0.085284 0.302839 0.205698
H52   H     H_    0.887273 0.127708 0.275325 0.250207
H53   H     H_    0.898443 0.852225 0.263585 0.226274
H54   H     H_    0.911169 0.761913 0.236265 0.217451
H55   H     H_    0.100770 0.151522 0.736139 0.241346
H56   H     H_    0.373764 0.661540 0.984023 0.201135
H57   H     H_    0.087336 0.240533 0.770702 0.265140
H58   H     H_    0.374625 0.336860 0.983457 0.198880
H59   H     H_    0.625590 0.662632 0.016493 0.198098
H60   H     H_    0.138678 0.861167 0.003218 0.195228
N1    N     N_3   0.057161 0.306589 0.459858 -0.419784
N2    N     N_3   0.211760 0.664403 0.145045 -0.406445
N3    N     N_3   0.213042 0.333699 0.143587 -0.428561
N4    N     N_3   0.782848 0.655875 0.866740 -0.384871
N5    N     N_3   0.296910 0.856586 0.849703 -0.420589
N6    N     N_3   0.712611 0.147373 0.138115 -0.384819
N7    N     N_3   0.706254 0.866631 0.141718 -0.424903
N8    N     N_3   0.298061 0.140582 0.849629 -0.400148
N9    N     N_3   0.637167 0.396256 0.748015 -0.419358
N10   N     N_3   0.361690 0.603867 0.251023 -0.422070
N11   N     N_3   0.360840 0.396930 0.250870 -0.422128
N12   N     N_3   0.934574 0.687046 0.593741 -0.405318
N13   N     N_3   0.639051 0.603312 0.749116 -0.420807
N14   N     N_3   0.090986 0.814511 0.786048 -0.414708
N15   N     N_3   0.862785 0.104474 0.251648 -0.424010
N16   N     N_3   0.908919 0.813705 0.213324 -0.408413
N17   N     N_3   0.090591 0.187474 0.788821 -0.390232
N18   N     N_3   0.956270 0.294601 0.511304 -0.415449
N19   N     N_3   0.999107 0.651870 0.658228 -0.427034
N20   N     N_3   0.564874 0.797803 0.447342 -0.418959
N21   N     N_3   0.499389 0.157704 0.343085 -0.424125
N22   N     N_3   0.470399 0.790350 0.469481 -0.415826
N23   N     N_3   0.564978 0.189060 0.406187 -0.405596
N24   N     N_3   0.789871 0.354263 0.858482 -0.426932
O1    O     O_R   0.746490 0.236330 0.638080 -0.567391
O2    O     O_R   0.325830 0.813840 0.483730 -0.600633
O3    O     O_R   0.325830 0.186160 0.483730 -0.587414
O4    O     O_R   0.674170 0.813840 0.516270 -0.602134
O5    O     O_R   0.174170 0.686160 0.516270 -0.592313
O6    O     O_R   0.825830 0.313840 0.483730 -0.604546
O7    O     O_R   0.825830 0.686160 0.483730 -0.600934
O8    O     O_R   0.174170 0.313840 0.516270 -0.603001
O9    O     O_R   0.739960 0.127620 0.525000 -0.633436
O10   O     O_R   0.260040 0.872380 0.475000 -0.629981
O11   O     O_R   0.260040 0.127620 0.475000 -0.624472
O12   O     O_R   0.253510 0.763670 0.361920 -0.553561
O13   O     O_R   0.739960 0.872380 0.525000 -0.627191
O14   O     O_R   0.239960 0.627620 0.525000 -0.636623
O15   O     O_R   0.760040 0.372380 0.475000 -0.637228
O16   O     O_R   0.760040 0.627620 0.475000 -0.638324
O17   O     O_R   0.239960 0.372380 0.525000 -0.639144
O18   O     O_R   0.680700 0.294870 0.629350 -0.653305
O19   O     O_R   0.319300 0.705130 0.370650 -0.625495
O20   O     O_R   0.319300 0.294870 0.370650 -0.658799
O21   O     O_R   0.680700 0.705130 0.629350 -0.640509
O22   O     O_R   0.180700 0.794870 0.629350 -0.657066
O23   O     O_R   0.253510 0.236330 0.361920 -0.569353
O24   O     O_R   0.819300 0.205130 0.370650 -0.639708
O25   O     O_R   0.819300 0.794870 0.370650 -0.654217
O26   O     O_R   0.180700 0.205130 0.629350 -0.630250
O27   O     O_R   0.062020 0.072840 0.007170 -0.627562
O28   O     O_R   0.937980 0.927160 0.992830 -0.632393
O29   O     O_R   0.937980 0.072840 0.992830 -0.630907
O30   O     O_R   0.062020 0.927160 0.007170 -0.628242
O31   O     O_R   0.562020 0.572840 0.007170 -0.634328
O32   O     O_R   0.437980 0.427160 0.992830 -0.634509
O33   O     O_R   0.437980 0.572840 0.992830 -0.633385
O34   O     O_R   0.746490 0.763670 0.638080 -0.534032
O35   O     O_R   0.562020 0.427160 0.007170 -0.638286
O36   O     O_R   0.947860 0.073950 0.109290 -0.600385
O37   O     O_R   0.052140 0.926050 0.890710 -0.610276
O38   O     O_R   0.052140 0.073950 0.890710 -0.606045
O39   O     O_R   0.947860 0.926050 0.109290 -0.606547
O40   O     O_R   0.447860 0.573950 0.109290 -0.597787
O41   O     O_R   0.552140 0.426050 0.890710 -0.602573
O42   O     O_R   0.552140 0.573950 0.890710 -0.598959
O43   O     O_R   0.447860 0.426050 0.109290 -0.605481
O44   O     O_R   0.246490 0.736330 0.638080 -0.558428
O45   O     O_R   0.753510 0.263670 0.361920 -0.533749
O46   O     O_R   0.753510 0.736330 0.361920 -0.561270
O47   O     O_R   0.246490 0.263670 0.638080 -0.543297
O48   O     O_R   0.674170 0.186160 0.516270 -0.595186
Zn1   Zn    Zn3+2 0.792340 0.208750 0.507670 1.054776
Zn2   Zn    Zn3+2 0.494040 0.500000 0.919480 1.010637
Zn3   Zn    Zn3+2 0.005960 1.000000 0.080520 1.010426
Zn4   Zn    Zn3+2 0.994040 0.000000 0.919480 1.001888
Zn5   Zn    Zn3+2 0.207660 0.791250 0.492330 1.073985
Zn6   Zn    Zn3+2 0.207660 0.208750 0.492330 1.061584
Zn7   Zn    Zn3+2 0.792340 0.791250 0.507670 1.057660
Zn8   Zn    Zn3+2 0.292340 0.708750 0.507670 1.056968
Zn9   Zn    Zn3+2 0.707660 0.291250 0.492330 1.055646
Zn10  Zn    Zn3+2 0.707660 0.708750 0.492330 1.056707
Zn11  Zn    Zn3+2 0.292340 0.291250 0.507670 1.070582
Zn12  Zn    Zn3+2 0.505960 0.500000 0.080520 1.001248

loop_
_geom_bond_atom_site_label_1
_geom_bond_atom_site_label_2
_ccdc_geom_bond_type
O14   Zn8   S    
C28   C47   A    
C36   C42   A    
C13   C18   A    
C63   C133  S    
O5    Zn5   S    
C16   C35   A    
C90   C134  A    
O38   Zn4   S    
C62   C70   A    
C37   C42   A    
O10   Zn5   S    
C85   C129  A    
C113  C122  A    
C109  N16   S    
C33   C137  S    
H28   N3    S    
C49   Cl12  S    
C91   C100  A    
C88   C97   A    
C119  C128  A    
H44   N11   S    
C70   C79   A    
O34   Zn7   S    
C8    C16   A    
C48   Cl1   S    
O15   Zn9   S    
C83   C114  S    
C102  C111  A    
C4    O42   A    
C73   C81   A    
C109  C118  A    
O22   Zn5   S    
C7    O41   A    
C110  N17   S    
C7    C93   S    
C64   C134  S    
C4    O31   A    
C62   C132  S    
C84   N3    S    
C32   C139  S    
C101  C110  A    
C72   C113  S    
C29   C45   A    
C103  C112  A    
C142  O14   A    
H27   N3    S    
O44   Zn8   S    
O18   Zn9   S    
C116  O46   A    
O45   Zn9   S    
C145  O8    A    
C140  O11   A    
C70   Cl4   S    
C105  O45   A    
O32   Zn2   S    
C65   C135  S    
C66   C136  S    
C124  C133  A    
C63   C71   A    
C55   C57   A    
C10   C20   A    
O23   Zn6   S    
C68   C77   A    
C2    C19   A    
C24   N19   S    
C25   C55   A    
C83   O21   A    
C59   C80   A    
C94   C115  S    
C90   H2    S    
C48   C138  A    
H42   N10   S    
C5    O32   A    
C9    C15   A    
C41   H23   S    
C147  O28   A    
C3    C98   S    
C122  C131  A    
C46   C53   A    
C35   N20   S    
C141  O4    A    
C116  C118  S    
O6    Zn1   S    
C36   C144  S    
H33   N6    S    
C86   C95   A    
C58   C67   A    
C138  N1    S    
H17   N21   S    
C94   O44   A    
C144  O7    A    
C2    N12   S    
H57   N17   S    
O29   Zn4   S    
C3    O30   A    
O30   Zn3   S    
C11   C18   A    
C65   C79   A    
C56   N22   S    
C123  C132  A    
C51   Cl19  S    
O7    Zn7   S    
C121  C130  A    
C25   C43   A    
C146  O38   A    
C99   C108  A    
C30   C141  S    
C143  O15   A    
H21   N23   S    
C144  O16   A    
C123  Cl13  S    
C75   C84   A    
C94   O22   A    
C58   C129  S    
C139  O2    A    
C137  O48   A    
C87   C131  A    
H35   N6    S    
C85   C93   A    
C29   C38   A    
C64   C73   A    
C142  O5    A    
C46   N21   S    
H55   N17   S    
C4    C97   S    
H36   N7    S    
C95   C103  A    
C64   C76   A    
H19   N22   S    
C89   C133  A    
C120  C129  A    
C38   C41   A    
O8    Zn6   S    
C86   C130  A    
H29   N4    S    
H51   N15   S    
C65   C74   A    
H40   N9    S    
H13   N19   S    
C8    C12   A    
C10   C45   A    
C143  O6    A    
O20   Zn11  S    
C1    O18   A    
O36   Zn3   S    
O43   Zn12  S    
O17   Zn11  S    
C114  C123  A    
C121  Cl10  S    
C128  Cl17  S    
C12   C57   A    
C90   C99   A    
C29   C51   A    
C27   C47   A    
O24   Zn1   S    
H43   N10   S    
C108  C117  A    
H37   N7    S    
C110  C119  A    
H54   N16   S    
C53   Cl21  S    
C67   Cl24  S    
C104  N11   S    
C89   C98   A    
H10   N18   S    
C112  C121  A    
O28   Zn4   S    
C28   C37   A    
C24   C51   A    
H22   N24   S    
C30   C39   A    
C106  N13   S    
H31   N5    S    
C68   Cl2   S    
O47   Zn11  S    
C104  C113  A    
C100  C109  A    
C6    C95   S    
O4    Zn10  S    
C105  O24   A    
H39   N8    S    
C15   C46   A    
C31   C140  S    
C61   C112  S    
O1    Zn1   S    
C27   C49   A    
C25   C33   A    
C119  C127  S    
C125  C134  A    
O39   Zn3   S    
H48   N13   S    
O40   Zn12  S    
C82   N4    S    
C54   Cl22  S    
C107  N14   S    
C11   C47   A    
C8    C43   A    
C39   H1    S    
C116  O25   A    
O48   Zn9   S    
C92   H4    S    
C11   C19   A    
C127  O26   A    
H9    N18   S    
C128  C136  A    
C1    O1    A    
H49   N14   S    
C100  C147  S    
C148  O36   A    
C103  N10   S    
C31   C40   A    
C76   N6    S    
C20   C138  A    
C7    O35   A    
C73   Cl6   S    
C50   Cl18  S    
C122  Cl11  S    
C141  O13   A    
H14   N20   S    
O12   Zn5   S    
C26   C48   A    
H53   N16   S    
C62   C82   A    
O46   Zn10  S    
C77   N5    S    
C105  C117  S    
C92   C136  A    
C34   C41   A    
C74   C82   A    
C60   C131  S    
C55   Cl23  S    
C124  Cl14  S    
C66   C78   A    
C3    O37   A    
C58   C81   A    
O37   Zn4   S    
O33   Zn2   S    
C23   C44   A    
O35   Zn12  S    
C57   N23   S    
C9    C14   A    
C61   O12   A    
C80   N2    S    
C12   C15   A    
H20   N23   S    
O16   Zn10  S    
C92   C101  A    
C97   C106  A    
C126  C135  A    
C148  O29   A    
C120  Cl9   S    
C5    C96   S    
C115  C124  A    
C37   C143  S    
C72   O20   A    
O25   Zn7   S    
C93   C102  A    
C27   C36   A    
C87   H58   S    
C21   C30   A    
H24   N24   S    
C23   C32   A    
H41   N9    S    
C5    O43   A    
O21   Zn10  S    
C1    C111  S    
H50   N14   S    
C147  O39   A    
C66   C75   A    
C74   Cl7   S    
C42   H34   S    
C89   H60   S    
H11   N19   S    
C98   C107  A    
C88   H59   S    
C91   C135  A    
C35   C52   A    
H18   N22   S    
C40   H12   S    
O19   Zn8   S    
C14   C56   A    
C99   C148  S    
C59   C130  S    
C140  O3    A    
C86   H56   S    
C79   N7    S    
C13   N18   S    
C108  N15   S    
C33   C39   A    
C106  C114  A    
C60   C69   A    
H16   N21   S    
C127  O47   A    
C34   C145  S    
C6    O40   A    
C10   C17   A    
C71   Cl5   S    
H15   N20   S    
C85   H45   S    
H52   N15   S    
C21   C43   A    
C28   C50   A    
C75   Cl8   S    
C26   C34   A    
C22   C44   A    
H47   N13   S    
H7    N12   S    
C26   C45   A    
C6    O33   A    
C38   C142  S    
C69   C78   A    
C125  Cl15  S    
C137  O9    A    
C126  Cl16  S    
O26   Zn6   S    
C71   C80   A    
C83   O34   A    
O27   Zn3   S    
C22   C53   A    
H8    N12   S    
C54   C56   A    
C101  C146  S    
C17   C24   A    
C22   C31   A    
C69   Cl3   S    
O9    Zn1   S    
H26   N2    S    
H5    N1    S    
C13   C50   A    
C111  C120  A    
H38   N8    S    
O31   Zn12  S    
C145  O17   A    
C2    C49   A    
C59   C68   A    
C87   C96   A    
C61   O19   A    
C91   H3    S    
C102  N9    S    
H46   N11   S    
C107  C115  A    
O11   Zn6   S    
O42   Zn2   S    
C139  O10   A    
C14   C16   A    
C88   C132  A    
O41   Zn2   S    
C23   C54   A    
C63   C77   A    
C9    C44   A    
C78   N8    S    
H32   N5    S    
H6    N1    S    
H25   N2    S    
C72   O23   A    
C96   C104  A    
O2    Zn8   S    
C52   Cl20  S    
C60   C84   A    
C117  C125  A    
C17   C19   A    
C18   C20   A    
C32   C40   A    
C81   N24   S    
H30   N4    S    
C67   C76   A    
C118  C126  A    
C21   C52   A    
C146  O27   A    
O3    Zn11  S    
O13   Zn7   S    
