data_mof_unit_64380.cif
_audit_creation_date              2012-10-26T17:39:38-0400
_audit_creation_method            fapswitch 2.2
_symmetry_space_group_name_H-M    P1
_symmetry_Int_Tables_number       1
_space_group_crystal_system       triclinic
_cell_length_a                    43.529927
_cell_length_b                    30.743861
_cell_length_c                    31.928327
_cell_angle_alpha                 89.984752
_cell_angle_beta                  135.619495
_cell_angle_gamma                 90.044195
_cell_volume                      29885.499214

loop_
_atom_site_label
_atom_site_type_symbol
_atom_type_description
_atom_site_fract_x
_atom_site_fract_y
_atom_site_fract_z
_atom_type_partial_charge
C1    C     C_R   0.584352 0.000244 0.081796 0.554262
C2    C     C_3   0.539122 0.020187 0.802283 0.324769
C3    C     C_R   0.032589 0.300006 0.506448 0.002790
C4    C     C_R   0.465737 0.844742 0.485570 0.227617
C5    C     C_R   0.534103 0.845453 0.512179 0.228494
C6    C     C_R   0.967284 0.344882 0.488825 0.227128
C7    C     C_R   0.032129 0.345863 0.507484 0.228741
C8    C     C_R   0.500057 0.867602 0.499505 0.004016
C9    C     C_R   0.000029 0.367774 0.499267 0.008286
C10   C     C_R   0.499942 0.774781 0.497983 -0.020475
C11   C     C_R   0.999497 0.275060 0.496434 -0.016858
C12   C     C_R   0.014972 0.200344 0.478074 -0.132484
C13   C     C_3   0.961091 0.520343 0.197888 0.325180
C14   C     C_R   0.986571 0.201750 0.520411 -0.135567
C15   C     C_R   0.517652 0.700458 0.482269 -0.135397
C16   C     C_R   0.483702 0.701292 0.517167 -0.136214
C17   C     C_R   0.019702 0.154915 0.484702 0.213646
C18   C     C_R   0.982077 0.156060 0.515804 0.216041
C19   C     C_R   0.521909 0.654781 0.488207 0.214051
C20   C     C_R   0.479828 0.655478 0.512805 0.214674
C21   C     C_R   0.000798 0.132776 0.500554 0.020035
C22   C     C_R   0.500761 0.632689 0.500637 0.025171
C23   C     C_3   0.532888 0.020636 0.267767 0.010339
C24   C     C_3   0.039080 0.519875 0.802288 0.325169
C25   C     C_3   0.467342 0.020716 0.732470 0.010339
C26   C     C_3   0.032826 0.520628 0.267685 0.010312
C27   C     C_3   0.967344 0.520921 0.732447 0.010271
C28   C     C_R   0.000451 0.225278 0.498256 -0.036162
C29   C     C_R   0.500550 0.724984 0.499188 -0.033574
C30   C     C_R   0.485732 0.198669 0.450112 0.275070
C31   C     C_R   0.516350 0.198796 0.550968 0.274471
C32   C     C_R   0.985904 0.698645 0.450041 0.275079
C33   C     C_R   0.016541 0.698859 0.550908 0.274548
C34   C     C_R   0.492881 0.153244 0.455729 -0.039209
C35   C     C_3   0.497016 0.041369 0.260589 0.013141
C36   C     C_R   0.508251 0.153544 0.545010 -0.039386
C37   C     C_R   0.992934 0.653195 0.455642 -0.039210
C38   C     C_R   0.008327 0.653628 0.544942 -0.039495
C39   C     C_R   0.500195 0.131097 0.500159 -0.027835
C40   C     C_R   0.000209 0.631111 0.500082 -0.027815
C41   C     C_R   0.501179 0.224127 0.500610 0.055282
C42   C     C_R   0.001415 0.724135 0.500555 0.055495
C43   C     C_R   0.036944 0.800755 0.552800 0.270325
C44   C     C_R   0.965543 0.800429 0.448527 0.266475
C45   C     C_R   0.536652 0.300749 0.552877 0.269487
C46   C     C_3   0.503276 0.041376 0.739695 0.014236
C47   C     C_R   0.465358 0.300455 0.448505 0.267090
C48   C     C_R   0.039088 0.845962 0.547179 -0.038545
C49   C     C_R   0.962294 0.845318 0.453913 -0.037961
C50   C     C_R   0.538942 0.345922 0.547324 -0.038389
C51   C     C_R   0.462212 0.345383 0.453864 -0.037835
C52   C     C_R   0.000428 0.868219 0.500515 -0.028025
C53   C     C_R   0.500383 0.368229 0.500493 -0.027959
C54   C     C_R   0.001405 0.775014 0.500631 0.049887
C55   C     C_R   0.501148 0.275015 0.500670 0.049581
C56   C     C_1   0.497440 0.999923 0.122178 -0.021853
C57   C     C_3   0.997001 0.541439 0.260553 0.013219
C58   C     C_1   0.502842 0.999963 0.878092 -0.021394
C59   C     C_1   0.997297 0.499929 0.122038 -0.021378
C60   C     C_1   0.002669 0.499945 0.877925 -0.021541
C61   C     C_1   0.500392 0.999966 0.375333 -0.043154
C62   C     C_1   0.499616 0.999947 0.624683 -0.042325
C63   C     C_1   0.000376 0.500110 0.375318 -0.044254
C64   C     C_1   0.999614 0.500000 0.624672 -0.042797
C65   C     C_3   0.497173 0.958309 0.232787 -0.132255
C66   C     C_3   0.502817 0.958326 0.767230 -0.132445
C67   C     C_3   0.997005 0.458360 0.232656 -0.132336
C68   C     C_3   0.003453 0.541349 0.739870 0.013229
C69   C     C_3   0.002389 0.458275 0.766782 -0.132556
C70   C     C_3   0.497074 0.999797 0.205293 0.052090
C71   C     C_3   0.503092 0.999825 0.794848 0.053015
C72   C     C_3   0.996965 0.499830 0.205190 0.052032
C73   C     C_3   0.002924 0.499747 0.794698 0.052053
C74   C     C_3   0.461155 0.979075 0.225615 0.002097
C75   C     C_3   0.538925 0.978977 0.774457 0.000762
C76   C     C_3   0.961035 0.479205 0.225533 0.002114
C77   C     C_3   0.038637 0.478734 0.774184 0.002136
C78   C     C_3   0.574008 0.043438 0.291808 -0.406910
C79   C     C_1   0.497040 0.999851 0.159452 -0.019858
C80   C     C_3   0.426307 0.043566 0.708543 -0.406541
C81   C     C_3   0.073980 0.543354 0.291739 -0.406712
C82   C     C_3   0.926446 0.544045 0.708599 -0.406548
C83   C     C_3   0.739020 0.905180 0.244470 -0.079560
C84   C     C_3   0.256560 0.906380 0.759675 -0.081028
C85   C     C_3   0.240917 0.406111 0.242456 -0.081352
C86   C     C_3   0.757602 0.405852 0.759248 -0.080807
C87   C     C_3   0.755277 0.010620 0.351192 -0.096894
C88   C     C_3   0.247029 0.007913 0.652747 -0.098076
C89   C     C_3   0.253965 0.510280 0.348908 -0.097448
C90   C     C_1   0.503174 0.999880 0.840746 -0.017936
C91   C     C_3   0.746300 0.507505 0.651265 -0.098006
C92   C     C_3   0.860393 0.953133 0.429778 -0.350577
C93   C     C_3   0.140865 0.952391 0.572585 -0.353414
C94   C     C_3   0.359499 0.452682 0.428037 -0.351472
C95   C     C_3   0.640383 0.452047 0.571996 -0.352891
C96   C     C_3   0.885642 0.087514 0.350689 -0.076678
C97   C     C_3   0.113037 0.090103 0.645210 -0.077796
C98   C     C_3   0.386904 0.589145 0.353278 -0.075000
C99   C     C_3   0.613395 0.589459 0.645967 -0.076400
C100  C     C_3   0.423105 0.778077 0.461966 -0.364117
C101  C     C_1   0.996909 0.499865 0.159326 -0.019284
C102  C     C_3   0.574937 0.779392 0.529335 -0.366989
C103  C     C_3   0.927265 0.278165 0.471053 -0.368939
C104  C     C_3   0.068157 0.280122 0.513767 -0.372332
C105  C     C_3   0.441884 0.878104 0.522526 -0.109798
C106  C     C_3   0.557831 0.880663 0.475989 -0.110581
C107  C     C_3   0.947578 0.378587 0.530827 -0.110712
C108  C     C_3   0.051807 0.382626 0.467040 -0.111915
C109  C     C_3   0.074407 0.150977 0.486483 -0.130135
C110  C     C_3   0.930438 0.156263 0.520849 -0.127336
C111  C     C_3   0.570708 0.653035 0.477707 -0.130561
C112  C     C_R   0.415534 0.000194 0.917790 0.551118
C113  C     C_1   0.002998 0.499835 0.840582 -0.019053
C114  C     C_3   0.433521 0.655134 0.527661 -0.127744
C115  C     C_3   0.423051 0.197936 0.347493 -0.084162
C116  C     C_3   0.579472 0.197546 0.653322 -0.086443
C117  C     C_3   0.923254 0.697989 0.347398 -0.084056
C118  C     C_3   0.079643 0.697519 0.653271 -0.086639
C119  C     C_3   0.573558 0.956652 0.351581 -0.399288
C120  C     C_3   0.426411 0.956780 0.648481 -0.399465
C121  C     C_3   0.073396 0.456600 0.351441 -0.399060
C122  C     C_3   0.926020 0.457289 0.647980 -0.399024
C123  C     C_3   0.489110 0.128021 0.411109 -0.372186
C124  C     C_1   0.498844 0.999961 0.336121 -0.058483
C125  C     C_3   0.511960 0.128771 0.589831 -0.372663
C126  C     C_3   0.989108 0.627889 0.411020 -0.372090
C127  C     C_3   0.011957 0.628947 0.589742 -0.372859
C128  C     C_3   0.067854 0.800222 0.648302 -0.082008
C129  C     C_3   0.938792 0.800596 0.355665 -0.079895
C130  C     C_3   0.566569 0.300213 0.647792 -0.080803
C131  C     C_3   0.438129 0.300517 0.355327 -0.080605
C132  C     C_3   0.082338 0.870503 0.592965 -0.376848
C133  C     C_3   0.918638 0.868956 0.406923 -0.375381
C134  C     C_3   0.582203 0.370393 0.593509 -0.376394
C135  C     C_1   0.501198 0.999954 0.663929 -0.058142
C136  C     C_3   0.418592 0.369099 0.406967 -0.375669
C137  C     C_3   0.499052 0.087550 0.279611 -0.409183
C138  C     C_3   0.501339 0.087566 0.720759 -0.408181
C139  C     C_3   0.999121 0.587629 0.279627 -0.409112
C140  C     C_3   0.001979 0.587570 0.721430 -0.409213
C141  C     C_3   0.398801 0.062325 0.147001 -0.117178
C142  C     C_3   0.603015 0.060218 0.855017 -0.116546
C143  C     C_3   0.898809 0.562539 0.147017 -0.117305
C144  C     C_3   0.101958 0.561361 0.853853 -0.117258
C145  C     C_3   0.420900 0.954506 0.201921 -0.392920
C146  C     C_1   0.998804 0.500087 0.336085 -0.058743
C147  C     C_3   0.578737 0.953947 0.797465 -0.396755
C148  C     C_3   0.920751 0.454710 0.201849 -0.393045
C149  C     C_3   0.078599 0.453804 0.797561 -0.393204
C150  C     C_3   0.729054 0.101977 0.216445 -0.119316
C151  C     C_3   0.271702 0.102919 0.783358 -0.118762
C152  C     C_3   0.227640 0.603208 0.214759 -0.120840
C153  C     C_3   0.771292 0.602736 0.781723 -0.118931
C154  C     C_3   0.614049 0.981207 0.201221 -0.080729
C155  C     C_3   0.384049 0.976376 0.799676 -0.082281
C156  C     C_3   0.115172 0.479333 0.200991 -0.080033
C157  C     C_1   0.001173 0.499987 0.663893 -0.058640
C158  C     C_3   0.884479 0.475735 0.799503 -0.079804
C159  C     C_R   0.700549 0.034416 0.177744 0.215736
C160  C     C_R   0.299644 0.035299 0.823675 0.217789
C161  C     C_R   0.200364 0.535271 0.176687 0.216545
C162  C     C_R   0.799578 0.535327 0.822653 0.217263
C163  C     C_R   0.655032 0.031450 0.129097 -0.163157
C164  C     C_R   0.084386 0.500251 0.081758 0.552818
C165  C     C_R   0.345278 0.032267 0.871517 -0.161984
C166  C     C_R   0.154786 0.532037 0.128341 -0.163174
C167  C     C_R   0.845168 0.532378 0.870735 -0.161635
C168  C     C_R   0.631672 0.001383 0.130160 -0.085157
C169  C     C_R   0.367947 0.001081 0.870457 -0.087894
C170  C     C_R   0.131824 0.501399 0.129552 -0.086190
C171  C     C_R   0.868020 0.501109 0.870119 -0.087589
C172  C     C_R   0.653544 0.973529 0.178982 0.278317
C173  C     C_R   0.344915 0.971456 0.822992 0.282297
C174  C     C_R   0.154284 0.472879 0.177927 0.279987
C175  C     C_R   0.915549 0.500196 0.917813 0.551519
C176  C     C_R   0.845284 0.471465 0.822712 0.280536
C177  C     C_R   0.698599 0.967523 0.217598 0.299084
C178  C     C_R   0.299951 0.966186 0.785792 0.303810
C179  C     C_R   0.199328 0.467407 0.215948 0.300627
C180  C     C_R   0.800258 0.466198 0.785058 0.302181
C181  C     C_R   0.498372 0.999962 0.078327 0.529689
C182  C     C_R   0.501965 0.999984 0.922012 0.524193
C183  C     C_R   0.998228 0.499966 0.078182 0.527826
C184  C     C_R   0.001815 0.499980 0.921860 0.525641
C185  C     C_R   0.723904 0.001087 0.222501 -0.030140
C186  C     C_3   0.497050 0.000055 0.288472 0.030427
C187  C     C_R   0.275481 0.001457 0.779739 -0.029493
C188  C     C_R   0.224175 0.501871 0.221308 -0.029466
C189  C     C_R   0.775610 0.501333 0.778890 -0.029781
C190  C     C_R   0.795077 0.988141 0.333192 0.285634
C191  C     C_R   0.205322 0.988420 0.668796 0.284674
C192  C     C_R   0.294808 0.488876 0.332170 0.287510
C193  C     C_R   0.705129 0.487893 0.668161 0.285525
C194  C     C_R   0.840913 0.981622 0.376881 -0.053638
C195  C     C_R   0.159543 0.981898 0.624334 -0.054721
C196  C     C_R   0.340585 0.482018 0.376067 -0.052826
C197  C     C_3   0.503056 0.000043 0.711645 0.030873
C198  C     C_R   0.659342 0.481449 0.623953 -0.053578
C199  C     C_R   0.866184 0.000959 0.369086 -0.023573
C200  C     C_R   0.133630 0.001905 0.630722 -0.022941
C201  C     C_R   0.366264 0.501661 0.369169 -0.022843
C202  C     C_R   0.633646 0.501500 0.630697 -0.022441
C203  C     C_R   0.844472 0.024769 0.316439 0.231728
C204  C     C_R   0.154538 0.027656 0.681615 0.228160
C205  C     C_R   0.345162 0.526821 0.317727 0.228972
C206  C     C_R   0.654813 0.526963 0.681894 0.228084
C207  C     C_R   0.799156 0.020207 0.267791 -0.122289
C208  C     C_3   0.996978 0.500146 0.288407 0.030485
C209  C     C_R   0.199822 0.023876 0.731214 -0.126943
C210  C     C_R   0.299781 0.522915 0.268533 -0.124446
C211  C     C_R   0.700107 0.523102 0.731190 -0.125559
C212  C     C_R   0.773208 0.002919 0.275017 -0.026637
C213  C     C_R   0.226421 0.004516 0.726097 -0.026293
C214  C     C_R   0.273402 0.504483 0.274493 -0.026701
C215  C     C_R   0.726494 0.504012 0.725562 -0.025734
C216  C     C_R   0.499997 0.915205 0.499980 0.569356
C217  C     C_R   0.999996 0.415266 0.500033 0.571520
C218  C     C_R   0.500325 0.999980 0.420167 0.528409
C219  C     C_3   0.002977 0.500054 0.711551 0.030426
C220  C     C_R   0.499675 0.999947 0.579835 0.529421
C221  C     C_R   0.000322 0.500117 0.420165 0.527045
C222  C     C_R   0.999676 0.500011 0.579832 0.529050
C223  C     C_R   0.500027 0.084117 0.500174 0.560431
C224  C     C_R   0.000028 0.584122 0.500167 0.560242
C225  C     C_3   0.532837 0.979656 0.295534 0.010287
C226  C     C_3   0.467219 0.979734 0.704565 0.010206
C227  C     C_3   0.032717 0.479667 0.295422 0.010136
C228  C     C_3   0.966966 0.479955 0.704260 0.010094
C229  C     C_R   0.000312 0.084978 0.500290 0.571227
C230  C     C_3   0.461153 0.020233 0.197942 0.325199
C231  C     C_R   0.500248 0.584906 0.500229 0.582126
C232  C     C_R   0.914704 0.998994 0.415453 0.553779
C233  C     C_R   0.085271 0.998822 0.584486 0.553624
C234  C     C_R   0.414720 0.498892 0.415470 0.554943
C235  C     C_R   0.585268 0.498769 0.584480 0.554603
C236  C     C_R   0.000042 0.915406 0.500064 0.551337
C237  C     C_R   0.500067 0.415410 0.500090 0.551220
C238  C     C_R   0.464177 0.798920 0.482307 0.000057
C239  C     C_R   0.535393 0.799576 0.513306 0.002145
C240  C     C_R   0.965884 0.299079 0.485830 -0.000423
Cu1   Cu    Cu3+1 0.500000 0.955920 0.000000 1.001382
Cu2   Cu    Cu3+1 0.000030 0.999960 0.458590 0.968199
Cu3   Cu    Cu3+1 0.499970 0.499960 0.541410 0.968360
Cu4   Cu    Cu3+1 0.500030 0.499960 0.458590 0.968601
Cu5   Cu    Cu3+1 1.000000 0.455920 0.000000 1.001945
Cu6   Cu    Cu3+1 0.500000 0.044010 0.000000 0.923243
Cu7   Cu    Cu3+1 1.000000 0.544010 0.000000 0.923015
Cu8   Cu    Cu3+1 0.544020 0.999870 0.544020 0.947589
Cu9   Cu    Cu3+1 0.455980 0.999870 0.455980 0.947335
Cu10  Cu    Cu3+1 0.044020 0.499870 0.544020 0.948057
Cu11  Cu    Cu3+1 0.955980 0.499870 0.455980 0.947630
Cu12  Cu    Cu3+1 0.999970 0.999960 0.541410 0.971552
H1    H     H_    0.784814 0.031384 0.224801 0.206716
H2    H     H_    0.502498 0.924432 0.778942 0.114169
H3    H     H_    0.081209 0.393771 0.478024 0.137553
H4    H     H_    0.096957 0.166371 0.531914 0.092699
H5    H     H_    0.063181 0.174407 0.451012 0.118077
H6    H     H_    0.093830 0.125696 0.488966 0.140101
H7    H     H_    0.906558 0.173397 0.476265 0.096524
H8    H     H_    0.946800 0.178569 0.559975 0.114966
H9    H     H_    0.910936 0.133116 0.520857 0.139170
H10   H     H_    0.594690 0.674121 0.518203 0.099765
H11   H     H_    0.550250 0.671347 0.434574 0.117886
H12   H     H_    0.590217 0.629330 0.478231 0.140122
H13   H     H_    0.997112 0.424439 0.220825 0.114658
H14   H     H_    0.408299 0.676402 0.487848 0.102082
H15   H     H_    0.456519 0.673341 0.571052 0.115656
H16   H     H_    0.415671 0.632138 0.531043 0.140481
H17   H     H_    0.412147 0.173903 0.360906 0.107669
H18   H     H_    0.422544 0.182411 0.315624 0.096702
H19   H     H_    0.396891 0.222810 0.321647 0.161686
H20   H     H_    0.589362 0.172492 0.639541 0.107189
H21   H     H_    0.580250 0.183000 0.685882 0.098105
H22   H     H_    0.606121 0.221922 0.678297 0.162093
H23   H     H_    0.912272 0.674034 0.360776 0.107499
H24   H     H_    0.001847 0.424360 0.778212 0.114277
H25   H     H_    0.922741 0.682396 0.315548 0.096617
H26   H     H_    0.897147 0.722927 0.321531 0.161670
H27   H     H_    0.089470 0.672374 0.639494 0.107501
H28   H     H_    0.080318 0.683057 0.685769 0.098039
H29   H     H_    0.106391 0.721777 0.678319 0.161582
H30   H     H_    0.593879 0.945213 0.344726 0.132491
H31   H     H_    0.593099 0.979518 0.390033 0.136492
H32   H     H_    0.563566 0.928396 0.361269 0.125931
H33   H     H_    0.406065 0.945386 0.655329 0.131250
H34   H     H_    0.406934 0.979659 0.610069 0.136597
H35   H     H_    0.637639 0.053907 0.091714 0.163687
H36   H     H_    0.436305 0.928493 0.638729 0.126318
H37   H     H_    0.093688 0.445094 0.344564 0.132317
H38   H     H_    0.092987 0.479448 0.389916 0.136785
H39   H     H_    0.063353 0.428384 0.361110 0.125658
H40   H     H_    0.905578 0.445988 0.654702 0.131373
H41   H     H_    0.906712 0.480322 0.609748 0.136976
H42   H     H_    0.935745 0.428966 0.638031 0.126197
H43   H     H_    0.515797 0.103658 0.434448 0.131456
H44   H     H_    0.456997 0.110782 0.378294 0.127577
H45   H     H_    0.492397 0.149537 0.386559 0.155342
H46   H     H_    0.363285 0.055647 0.908010 0.165347
H47   H     H_    0.485007 0.104710 0.566661 0.130190
H48   H     H_    0.543872 0.111226 0.622515 0.127531
H49   H     H_    0.509113 0.150705 0.614533 0.155918
H50   H     H_    0.015739 0.603461 0.434357 0.131547
H51   H     H_    0.956954 0.610720 0.378199 0.127501
H52   H     H_    0.992450 0.649333 0.386477 0.155314
H53   H     H_    0.984952 0.604947 0.566557 0.130086
H54   H     H_    0.043830 0.611338 0.622447 0.127508
H55   H     H_    0.009135 0.650958 0.614413 0.155827
H56   H     H_    0.036599 0.790492 0.633431 0.164474
H57   H     H_    0.137037 0.554777 0.091177 0.163985
H58   H     H_    0.070602 0.836055 0.652991 0.094939
H59   H     H_    0.095529 0.787483 0.694307 0.114664
H60   H     H_    0.971468 0.791525 0.374002 0.161970
H61   H     H_    0.935345 0.836501 0.350744 0.097003
H62   H     H_    0.912795 0.787439 0.309207 0.117087
H63   H     H_    0.534798 0.290797 0.631781 0.163245
H64   H     H_    0.569791 0.336038 0.652961 0.095116
H65   H     H_    0.593677 0.287059 0.693831 0.115748
H66   H     H_    0.470551 0.291285 0.373127 0.162548
H67   H     H_    0.434907 0.336400 0.350543 0.096471
H68   H     H_    0.863006 0.555829 0.907151 0.165296
H69   H     H_    0.411880 0.287501 0.308934 0.116690
H70   H     H_    0.089343 0.887539 0.570145 0.113057
H71   H     H_    0.080770 0.894843 0.617148 0.134322
H72   H     H_    0.110618 0.848605 0.626431 0.165284
H73   H     H_    0.910371 0.885497 0.428485 0.111805
H74   H     H_    0.920346 0.893588 0.383121 0.135415
H75   H     H_    0.891066 0.846459 0.373137 0.166547
H76   H     H_    0.589557 0.387411 0.571094 0.112527
H77   H     H_    0.580426 0.394734 0.617476 0.134778
H78   H     H_    0.610384 0.348450 0.627154 0.165408
H79   H     H_    0.594231 0.054379 0.338450 0.132341
H80   H     H_    0.410455 0.385722 0.428644 0.111901
H81   H     H_    0.420284 0.393678 0.383100 0.134941
H82   H     H_    0.390949 0.346647 0.373240 0.166424
H83   H     H_    0.496464 0.111119 0.250892 0.138769
H84   H     H_    0.471924 0.092877 0.275796 0.115775
H85   H     H_    0.530779 0.092519 0.326976 0.133963
H86   H     H_    0.505027 0.111123 0.750434 0.140658
H87   H     H_    0.527818 0.092579 0.723175 0.115968
H88   H     H_    0.469209 0.092873 0.673847 0.133285
H89   H     H_    0.996558 0.611184 0.250918 0.138768
H90   H     H_    0.593534 0.020632 0.291373 0.122375
H91   H     H_    0.972013 0.593015 0.275840 0.115756
H92   H     H_    0.030864 0.592559 0.326990 0.134029
H93   H     H_    0.004868 0.611072 0.750460 0.138806
H94   H     H_    0.029174 0.592643 0.725315 0.115886
H95   H     H_    0.970314 0.592888 0.674133 0.133849
H96   H     H_    0.413884 0.094541 0.167831 0.119445
H97   H     H_    0.393627 0.044258 0.171679 0.104890
H98   H     H_    0.365900 0.068319 0.101125 0.146924
H99   H     H_    0.587598 0.090718 0.828659 0.115883
H100  H     H_    0.612031 0.038736 0.837211 0.108183
H101  H     H_    0.564631 0.072081 0.263521 0.135175
H102  H     H_    0.634069 0.069490 0.901212 0.147456
H103  H     H_    0.913947 0.594733 0.167884 0.119432
H104  H     H_    0.893613 0.544493 0.171682 0.104855
H105  H     H_    0.865914 0.568580 0.101155 0.146735
H106  H     H_    0.087243 0.593715 0.833294 0.119428
H107  H     H_    0.107020 0.543220 0.829105 0.105001
H108  H     H_    0.134890 0.567045 0.899860 0.146923
H109  H     H_    0.399152 0.946716 0.153846 0.152321
H110  H     H_    0.431332 0.923816 0.227417 0.128075
H111  H     H_    0.402576 0.974439 0.207116 0.127232
H112  H     H_    0.213628 0.036615 0.773299 0.205866
H113  H     H_    0.406083 0.054529 0.661915 0.131787
H114  H     H_    0.601221 0.947020 0.845918 0.151112
H115  H     H_    0.567861 0.922778 0.772734 0.129287
H116  H     H_    0.596370 0.973094 0.790474 0.126143
H117  H     H_    0.898976 0.446932 0.153765 0.152388
H118  H     H_    0.931145 0.424015 0.227324 0.127838
H119  H     H_    0.902472 0.474687 0.207084 0.127072
H120  H     H_    0.100310 0.445839 0.845572 0.152379
H121  H     H_    0.067806 0.423200 0.771758 0.127760
H122  H     H_    0.097094 0.473562 0.792478 0.127086
H123  H     H_    0.740564 0.089128 0.258437 0.094143
H124  H     H_    0.406737 0.020777 0.708959 0.122325
H125  H     H_    0.755491 0.123617 0.230230 0.142785
H126  H     H_    0.698924 0.121920 0.191566 0.126404
H127  H     H_    0.268116 0.089723 0.747452 0.088898
H128  H     H_    0.240468 0.119890 0.760628 0.137921
H129  H     H_    0.298576 0.127425 0.809991 0.132387
H130  H     H_    0.239074 0.590364 0.256694 0.094940
H131  H     H_    0.253817 0.625346 0.228641 0.141958
H132  H     H_    0.197153 0.622625 0.189378 0.126883
H133  H     H_    0.766492 0.589226 0.744953 0.089773
H134  H     H_    0.740706 0.620398 0.760193 0.139090
H135  H     H_    0.435789 0.072195 0.736911 0.136174
H136  H     H_    0.798600 0.626664 0.807776 0.131307
H137  H     H_    0.585147 0.998930 0.160721 0.127806
H138  H     H_    0.638901 0.005616 0.235752 0.078445
H139  H     H_    0.602140 0.963347 0.217592 0.135405
H140  H     H_    0.418400 0.985279 0.841995 0.143131
H141  H     H_    0.364522 0.007243 0.776321 0.069729
H142  H     H_    0.386253 0.959345 0.771042 0.132988
H143  H     H_    0.083927 0.493817 0.159634 0.132916
H144  H     H_    0.138242 0.506306 0.231431 0.074162
H145  H     H_    0.107010 0.461536 0.222238 0.134316
H146  H     H_    0.094225 0.554279 0.338394 0.132267
H147  H     H_    0.917161 0.487922 0.841012 0.136818
H148  H     H_    0.863101 0.504349 0.771724 0.071372
H149  H     H_    0.889947 0.457561 0.775261 0.133864
H150  H     H_    0.093466 0.520504 0.291276 0.122441
H151  H     H_    0.064645 0.572001 0.263480 0.135369
H152  H     H_    0.906365 0.555192 0.662082 0.132016
H153  H     H_    0.906665 0.521370 0.708742 0.122431
H154  H     H_    0.936097 0.572578 0.737186 0.135776
H155  H     H_    0.773148 0.899778 0.288753 0.140505
H156  H     H_    0.285846 0.535008 0.226107 0.206933
H157  H     H_    0.740621 0.919491 0.213979 0.078617
H158  H     H_    0.722915 0.872843 0.226553 0.135039
H159  H     H_    0.221251 0.905221 0.715743 0.135832
H160  H     H_    0.258755 0.921112 0.793804 0.080589
H161  H     H_    0.268367 0.872062 0.773087 0.136607
H162  H     H_    0.274906 0.400535 0.286926 0.139672
H163  H     H_    0.242956 0.421648 0.212923 0.079395
H164  H     H_    0.225073 0.373752 0.223432 0.134858
H165  H     H_    0.722895 0.402453 0.715075 0.137838
H166  H     H_    0.757743 0.421350 0.791003 0.079411
H167  H     H_    0.714127 0.535694 0.773446 0.205757
H168  H     H_    0.771293 0.372485 0.775646 0.135934
H169  H     H_    0.732840 0.030223 0.309484 0.091209
H170  H     H_    0.782081 0.031357 0.389935 0.097825
H171  H     H_    0.735389 0.998407 0.358508 0.148092
H172  H     H_    0.269530 0.027857 0.694157 0.091849
H173  H     H_    0.220833 0.028624 0.613429 0.096492
H174  H     H_    0.267087 0.994329 0.646327 0.148204
H175  H     H_    0.231502 0.529861 0.307185 0.091355
H176  H     H_    0.280408 0.531166 0.387757 0.098262
H177  H     H_    0.233961 0.497545 0.355806 0.147956
H178  H     H_    0.021687 0.215263 0.455174 0.124684
H179  H     H_    0.768987 0.527450 0.692657 0.091980
H180  H     H_    0.719947 0.528189 0.612077 0.097378
H181  H     H_    0.766093 0.493977 0.644386 0.147828
H182  H     H_    0.894035 0.941946 0.455684 0.135384
H183  H     H_    0.860187 0.970780 0.459883 0.153331
H184  H     H_    0.840441 0.923007 0.413535 0.155546
H185  H     H_    0.106210 0.943308 0.543629 0.136993
H186  H     H_    0.144168 0.968154 0.544662 0.154225
H187  H     H_    0.159492 0.921264 0.590479 0.154887
H188  H     H_    0.393529 0.442242 0.455022 0.135089
H189  H     H_    0.979409 0.218692 0.541812 0.119903
H190  H     H_    0.358125 0.469309 0.457519 0.154433
H191  H     H_    0.339842 0.422225 0.410603 0.154836
H192  H     H_    0.605805 0.442865 0.543426 0.136678
H193  H     H_    0.643345 0.467942 0.543781 0.154237
H194  H     H_    0.659046 0.420958 0.589627 0.154355
H195  H     H_    0.921151 0.089499 0.377963 0.168561
H196  H     H_    0.882403 0.086715 0.382419 0.091179
H197  H     H_    0.870312 0.118069 0.324588 0.119441
H198  H     H_    0.081359 0.099897 0.629001 0.161345
H199  H     H_    0.105716 0.083383 0.604327 0.104683
H200  H     H_    0.526862 0.716535 0.462936 0.115574
H201  H     H_    0.135908 0.118343 0.669127 0.106861
H202  H     H_    0.419861 0.596614 0.372241 0.161143
H203  H     H_    0.391599 0.584042 0.392246 0.112138
H204  H     H_    0.365866 0.618305 0.328448 0.112102
H205  H     H_    0.580912 0.597897 0.627978 0.159110
H206  H     H_    0.607834 0.583642 0.606403 0.112871
H207  H     H_    0.635140 0.618273 0.670391 0.110145
H208  H     H_    0.412550 0.748450 0.433776 0.120198
H209  H     H_    0.429668 0.772388 0.503055 0.100985
H210  H     H_    0.393239 0.799986 0.432160 0.181151
H211  H     H_    0.473517 0.718504 0.534644 0.113347
H212  H     H_    0.587972 0.750758 0.559802 0.120151
H213  H     H_    0.565428 0.772570 0.486372 0.097311
H214  H     H_    0.603970 0.801927 0.554697 0.182137
H215  H     H_    0.915262 0.248597 0.442717 0.117671
H216  H     H_    0.936791 0.272430 0.513998 0.101433
H217  H     H_    0.897837 0.299941 0.443924 0.183472
H218  H     H_    0.084128 0.252059 0.545133 0.118806
H219  H     H_    0.053900 0.272672 0.468329 0.096769
H220  H     H_    0.095581 0.302846 0.533171 0.183436
H221  H     H_    0.464306 0.906766 0.545439 0.134023
H222  H     H_    0.497343 0.924397 0.220994 0.114588
H223  H     H_    0.456640 0.850288 0.554321 0.092567
H224  H     H_    0.411066 0.887255 0.509108 0.135967
H225  H     H_    0.535019 0.908967 0.453460 0.135623
H226  H     H_    0.543426 0.853199 0.443662 0.092276
H227  H     H_    0.588589 0.890746 0.489694 0.136129
H228  H     H_    0.970270 0.406944 0.552365 0.132051
H229  H     H_    0.963108 0.350769 0.562680 0.094567
H230  H     H_    0.918098 0.388319 0.520358 0.137182
H231  H     H_    0.028736 0.410507 0.446563 0.135090
H232  H     H_    0.036551 0.355613 0.433945 0.093461
O1    O     O_R   0.564270 0.962770 0.064270 -0.464695
O2    O     O_R   0.064310 0.999950 0.599310 -0.468774
O3    O     O_R   0.435690 0.499950 0.400690 -0.470867
O4    O     O_R   0.564310 0.499950 0.599310 -0.470604
O5    O     O_R   0.000020 0.935690 0.535010 -0.523961
O6    O     O_R   0.999980 0.935690 0.464990 -0.523898
O7    O     O_R   0.500020 0.435690 0.535010 -0.524119
O8    O     O_R   0.499980 0.435690 0.464990 -0.524662
O9    O     O_R   0.564210 0.037160 0.064210 -0.526398
O10   O     O_R   0.435790 0.037160 0.935790 -0.523998
O11   O     O_R   0.064210 0.537160 0.064210 -0.525773
O12   O     O_R   0.435730 0.962770 0.935730 -0.468834
O13   O     O_R   0.935790 0.537160 0.935790 -0.524540
O14   O     O_R   0.500000 0.962770 0.060460 -0.500481
O15   O     O_R   0.500000 0.962770 0.939540 -0.507801
O16   O     O_R   0.000000 0.462770 0.060460 -0.502706
O17   O     O_R   1.000000 0.462770 0.939540 -0.505887
O18   O     O_R   0.499940 0.037170 0.060400 -0.508868
O19   O     O_R   0.500060 0.037170 0.939600 -0.506632
O20   O     O_R   0.999940 0.537170 0.060400 -0.508067
O21   O     O_R   0.000060 0.537170 0.939600 -0.507247
O22   O     O_R   0.537150 0.935610 0.537150 -0.469049
O23   O     O_R   0.064270 0.462770 0.064270 -0.465835
O24   O     O_R   0.462850 0.935610 0.462850 -0.469897
O25   O     O_R   0.037150 0.435610 0.537150 -0.470597
O26   O     O_R   0.962850 0.435610 0.462850 -0.471322
O27   O     O_R   0.537160 0.999880 0.476700 -0.510437
O28   O     O_R   0.462840 0.999880 0.523300 -0.510143
O29   O     O_R   0.037160 0.499880 0.476700 -0.508676
O30   O     O_R   0.962840 0.499880 0.523300 -0.508154
O31   O     O_R   0.462760 0.999960 0.402300 -0.509759
O32   O     O_R   0.537240 0.999960 0.597700 -0.510083
O33   O     O_R   0.962760 0.499960 0.402300 -0.510731
O34   O     O_R   0.935730 0.462770 0.935730 -0.467015
O35   O     O_R   0.037240 0.499960 0.597700 -0.511078
O36   O     O_R   0.537180 0.064140 0.537190 -0.512596
O37   O     O_R   0.462820 0.064140 0.462810 -0.512502
O38   O     O_R   0.037180 0.564140 0.537190 -0.512639
O39   O     O_R   0.962820 0.564140 0.462810 -0.512640
O40   O     O_R   0.999920 0.064220 0.534910 -0.463896
O41   O     O_R   0.000080 0.064220 0.465090 -0.469278
O42   O     O_R   0.499920 0.564220 0.534910 -0.468332
O43   O     O_R   0.500080 0.564220 0.465090 -0.468170
O44   O     O_3   0.716571 0.930436 0.252823 -0.475563
O45   O     O_R   0.935700 0.999950 0.470690 -0.523889
O46   O     O_3   0.281117 0.928194 0.752268 -0.474217
O47   O     O_3   0.217831 0.430078 0.250738 -0.475033
O48   O     O_3   0.781559 0.428333 0.751276 -0.474253
O49   O     O_3   0.772492 0.974437 0.346454 -0.515213
O50   O     O_3   0.228839 0.972893 0.657594 -0.513932
O51   O     O_3   0.271792 0.474532 0.344536 -0.514470
O52   O     O_3   0.728386 0.472427 0.656505 -0.514159
O53   O     O_3   0.867010 0.051535 0.310813 -0.543274
O54   O     O_3   0.130724 0.054330 0.685135 -0.541154
O55   O     O_3   0.368640 0.553231 0.313408 -0.544207
O56   O     O_R   0.064300 0.999950 0.529310 -0.525864
O57   O     O_3   0.631311 0.553680 0.685914 -0.543693
O58   O     O_3   0.431083 0.867461 0.470031 -0.551361
O59   O     O_3   0.568694 0.868914 0.528259 -0.551203
O60   O     O_3   0.933962 0.367593 0.476577 -0.553736
O61   O     O_3   0.065520 0.369534 0.520781 -0.553113
O62   O     O_3   0.037667 0.130578 0.469452 -0.542918
O63   O     O_3   0.962692 0.132283 0.529527 -0.542338
O64   O     O_3   0.543547 0.629407 0.479145 -0.550284
O65   O     O_3   0.457042 0.630671 0.520572 -0.551474
O66   O     O_3   0.465346 0.217162 0.395880 -0.544367
O67   O     O_R   0.435700 0.499950 0.470690 -0.523223
O68   O     O_3   0.537449 0.217331 0.605460 -0.545205
O69   O     O_3   0.965592 0.717126 0.395829 -0.544129
O70   O     O_3   0.037715 0.717460 0.605398 -0.545648
O71   O     O_3   0.070529 0.783278 0.609174 -0.540680
O72   O     O_3   0.933369 0.783222 0.391717 -0.542417
O73   O     O_3   0.569962 0.283350 0.609371 -0.540978
O74   O     O_3   0.433039 0.283190 0.391754 -0.542133
O75   O     O_3   0.424005 0.038970 0.142290 -0.557063
O76   O     O_3   0.575881 0.039256 0.857997 -0.557499
O77   O     O_3   0.923966 0.539129 0.142262 -0.557102
O78   O     O_R   0.564300 0.499950 0.529310 -0.523891
O79   O     O_3   0.076398 0.538265 0.858168 -0.557225
O80   O     O_3   0.721447 0.069077 0.179048 -0.568732
O81   O     O_3   0.279470 0.070979 0.821925 -0.568863
O82   O     O_3   0.220868 0.570354 0.177944 -0.569279
O83   O     O_3   0.779232 0.570997 0.820615 -0.568988
O84   O     O_3   0.631319 0.950986 0.188539 -0.505026
O85   O     O_3   0.365472 0.947545 0.811737 -0.504784
O86   O     O_3   0.132845 0.449703 0.188338 -0.504520
O87   O     O_3   0.866343 0.447189 0.812466 -0.504021
O88   O     O_R   0.935690 0.999950 0.400690 -0.473649

loop_
_geom_bond_atom_site_label_1
_geom_bond_atom_site_label_2
_ccdc_geom_bond_type
C172  C177  A    
C60   C184  S    
C187  C213  S    
C151  H128  S    
C92   H183  S    
C147  H115  S    
C18   C21   A    
C93   H186  S    
C106  H227  S    
C141  H98   S    
Cu6   O10   S    
C115  H18   S    
C217  O25   A    
C129  H62   S    
C132  H70   S    
C166  H57   S    
Cu11  O33   S    
C61   C124  T    
C94   C196  S    
C81   H146  S    
C151  O81   S    
C92   C194  S    
C19   O64   S    
C130  O73   S    
C67   H13   S    
C236  O6    A    
C86   H168  S    
C72   C101  S    
C107  H228  S    
C204  O54   S    
C141  O75   S    
C190  C212  A    
Cu6   O19   S    
C142  O76   S    
C27   C68   S    
C99   H207  S    
C6    C240  A    
C126  H51   S    
C137  H85   S    
C64   C157  T    
C82   H152  S    
C32   O69   S    
C83   H157  S    
C18   O63   S    
C63   C146  T    
C105  O58   S    
C96   H196  S    
C107  O60   S    
C100  H208  S    
Cu3   O4    S    
C83   O44   S    
Cu7   O20   S    
C220  O28   A    
C140  H94   S    
C23   C225  S    
C129  H60   S    
C91   H180  S    
C145  H111  S    
C165  C169  A    
C148  H117  S    
C87   H171  S    
C50   C53   A    
C192  O51   S    
C121  H39   S    
C122  H40   S    
C176  O87   S    
C216  O22   A    
C81   H150  S    
C50   C134  S    
C95   H193  S    
C119  H31   S    
C179  C188  A    
C85   H163  S    
C88   H172  S    
C24   C68   S    
C88   O50   S    
C144  H108  S    
C17   C21   A    
C93   C195  S    
C139  H91   S    
Cu8   O36   S    
C152  H131  S    
C148  H118  S    
C110  O63   S    
C110  H8    S    
C190  O49   S    
C114  H16   S    
C184  O17   A    
C43   C54   A    
C112  C169  S    
C89   H177  S    
C26   C227  S    
C16   C20   A    
C65   C225  S    
C122  H41   S    
C56   C79   T    
C13   O77   S    
C218  O31   A    
C150  H126  S    
C26   C81   S    
C221  O33   A    
C175  O34   A    
C84   H159  S    
C68   C140  S    
C106  H225  S    
C33   O70   S    
C2    C71   S    
Cu5   O16   S    
C52   C236  S    
C170  C174  A    
C132  H72   S    
C49   C133  S    
C211  H167  S    
C70   C79   S    
C229  O41   A    
C8    C216  S    
C231  O43   A    
C80   H113  S    
C135  C197  S    
C5    C8    A    
C44   O72   S    
C86   H166  S    
C13   C72   S    
C103  H217  S    
C33   C38   A    
C156  H144  S    
C159  O80   S    
C153  H133  S    
C78   H90   S    
Cu3   O7    S    
Cu5   O23   S    
Cu2   O6    S    
C80   H135  S    
C99   H205  S    
C124  C186  S    
C201  C234  S    
C203  C207  A    
C45   C50   A    
Cu9   O31   S    
C229  O40   A    
C83   H155  S    
C121  C227  S    
C232  O88   A    
C26   C57   S    
C3    C11   A    
C152  O82   S    
C24   C77   S    
C48   C52   A    
C164  O23   A    
C94   H191  S    
C76   C148  S    
C134  H77   S    
C56   C181  S    
C131  H66   S    
C100  H210  S    
C98   O55   S    
C102  H214  S    
C154  H139  S    
C27   C73   S    
C4    O58   S    
C2    C75   S    
Cu3   Cu4   S    
Cu1   O15   S    
C97   H198  S    
C148  H119  S    
C6    O60   S    
C191  O50   S    
C128  H56   S    
C45   C55   A    
C203  O53   S    
C74   C145  S    
C164  C170  S    
C179  O47   S    
C117  H23   S    
C123  H43   S    
C6    C9    A    
C177  C185  A    
C162  O83   S    
C235  O4    A    
C120  H34   S    
C102  C239  S    
C222  O30   A    
C92   H182  S    
C139  H89   S    
C33   C42   A    
C11   C28   S    
C161  C188  A    
C156  O86   S    
C180  C189  A    
C114  H14   S    
C115  H19   S    
C47   O74   S    
C13   C57   S    
C183  O16   A    
C65   C70   S    
C177  O44   S    
C181  O14   A    
C175  O13   A    
C67   C72   S    
C43   O71   S    
C84   H160  S    
C158  H147  S    
C104  H219  S    
C103  C240  S    
C103  H216  S    
C198  C202  A    
C84   H161  S    
C30   C41   A    
C100  C238  S    
C25   C71   S    
C108  H231  S    
C219  C228  S    
C98   H204  S    
C125  H49   S    
C234  O67   A    
Cu4   O8    S    
C24   O79   S    
C10   C239  A    
C182  O19   A    
C23   C70   S    
C123  H45   S    
Cu12  O5    S    
C87   H169  S    
Cu8   O27   S    
C193  C215  A    
C130  H64   S    
C185  C212  S    
C30   C34   A    
C34   C39   A    
C1    O1    A    
C138  H87   S    
C136  H80   S    
C233  O56   A    
C88   H174  S    
C200  C233  S    
C114  O65   S    
C137  H83   S    
C53   C237  S    
C125  H48   S    
C188  C214  S    
C77   C219  S    
C133  H73   S    
C2    O76   S    
C11   C240  A    
C127  H54   S    
C65   C74   S    
C51   C53   A    
C154  O84   S    
C62   C135  T    
C12   C17   A    
C152  H130  S    
C80   H124  S    
C117  H26   S    
C84   O46   S    
Cu4   O43   S    
C51   C136  S    
C142  H99   S    
C131  O74   S    
C130  H65   S    
C67   C227  S    
C200  C204  A    
C122  C228  S    
C233  O2    A    
C224  O39   A    
C222  O35   A    
C64   C222  S    
C154  H137  S    
C32   C37   A    
C59   C183  S    
C166  C170  A    
C143  O77   S    
C235  O78   A    
C65   H222  S    
C87   H170  S    
C17   O62   S    
C69   C228  S    
C120  C226  S    
C37   C126  S    
C9    C217  S    
C120  H36   S    
C151  H127  S    
C92   H184  S    
C31   C36   A    
C93   H185  S    
C36   C39   A    
C210  H156  S    
C141  H97   S    
C218  O27   A    
C115  H17   S    
C142  H102  S    
C149  H122  S    
C129  H61   S    
C171  C176  A    
Cu10  O29   S    
C35   C230  S    
Cu2   Cu12  S    
C178  O46   S    
Cu10  O25   S    
C163  C168  A    
C143  H105  S    
C186  C225  S    
C205  C210  A    
C35   C186  S    
C221  O29   A    
C155  H140  S    
Cu2   O56   S    
Cu8   O22   S    
C95   H192  S    
C109  O62   S    
C99   O57   S    
C141  H96   S    
C136  H81   S    
C191  C195  A    
C111  H12   S    
C98   H202  S    
C44   C54   A    
C176  C180  A    
C126  H52   S    
Cu10  O38   S    
C201  C205  A    
C160  C187  A    
C74   C186  S    
C196  C201  A    
C97   O54   S    
C85   O47   S    
C3    C104  S    
C134  H76   S    
C237  O8    A    
C116  H22   S    
Cu4   O78   S    
C25   C80   S    
C26   C72   S    
C108  O61   S    
C63   C221  S    
C105  H224  S    
C91   H179  S    
C133  H75   S    
C145  H110  S    
C174  O86   S    
C15   C19   A    
C57   C208  S    
C82   H154  S    
C128  H59   S    
C12   C28   A    
C121  H38   S    
C192  C196  A    
C3    C7    A    
C118  H27   S    
C24   C73   S    
C155  H142  S    
C85   H162  S    
C206  C211  A    
C193  C198  A    
C107  H229  S    
C73   C113  S    
C78   H79   S    
C57   C139  S    
C128  O71   S    
C35   C137  S    
C109  H6    S    
C152  H132  S    
C41   C55   S    
C110  H9    S    
C189  C215  S    
C202  C235  S    
C69   C77   S    
C22   C231  S    
C66   H2    S    
C89   H176  S    
C204  C209  A    
C69   C73   S    
C122  H42   S    
C31   C41   A    
C96   O53   S    
C216  O24   A    
C143  H104  S    
C183  O20   A    
C158  O87   S    
C75   C197  S    
Cu3   O42   S    
C104  H218  S    
C129  O72   S    
Cu8   O32   S    
C147  H116  S    
C199  C203  A    
C167  H68   S    
Cu7   O13   S    
C39   C223  S    
C106  H226  S    
C93   H187  S    
C164  O11   A    
C91   H181  S    
Cu6   O9    S    
C15   C29   A    
C76   C208  S    
C217  O26   A    
C27   C82   S    
Cu4   O3    S    
C163  H35   S    
Cu10  O35   S    
Cu1   Cu6   S    
C82   H153  S    
C68   C219  S    
C61   C218  S    
C158  H149  S    
C150  O80   S    
C77   C149  S    
C161  O82   S    
C236  O5    A    
C46   C197  S    
C47   C51   A    
C1    C168  S    
C75   C147  S    
Cu10  Cu11  S    
C102  H212  S    
C59   C101  T    
C111  H11   S    
C199  C232  S    
Cu6   O18   S    
C111  H10   S    
Cu1   O1    S    
C66   C71   S    
C126  H50   S    
C49   C52   A    
C127  H55   S    
C182  O15   A    
C66   C226  S    
C83   H158  S    
C160  C165  A    
C58   C90   T    
C118  H29   S    
C178  C187  A    
C96   H195  S    
C146  C208  S    
C220  O32   A    
C20   C22   A    
C134  H78   S    
C23   C35   S    
Cu5   Cu7   S    
C224  O38   A    
C150  H123  S    
C153  H134  S    
C107  H230  S    
C140  H93   S    
C89   O51   S    
Cu8   Cu9   S    
Cu1   O14   S    
Cu9   O37   S    
C5    C239  A    
Cu12  O40   S    
Cu12  O2    S    
C81   H151  S    
C167  C171  A    
C119  H32   S    
C85   H164  S    
C45   O73   S    
C37   C40   A    
C144  H107  S    
C105  H221  S    
C139  H92   S    
C58   C182  S    
C110  H7    S    
C114  H15   S    
C42   C54   S    
C115  O66   S    
C38   C40   A    
C20   O65   S    
C10   C29   S    
C159  C185  A    
C131  H67   S    
C95   C198  S    
C66   C75   S    
C23   C78   S    
C209  C213  A    
C118  O70   S    
C106  O59   S    
Cu2   O41   S    
C168  C172  A    
C158  H148  S    
C234  O3    A    
C104  H220  S    
C150  H125  S    
C147  H114  S    
C103  H215  S    
C32   C42   A    
C48   C132  S    
C108  H232  S    
C1    O9    A    
C116  H20   S    
C173  O85   S    
C162  C189  A    
C62   C220  S    
C5    O59   S    
C44   C49   A    
C132  H71   S    
C211  C215  A    
C34   C123  S    
C14   C18   A    
C36   C125  S    
C4    C8    A    
C78   H101  S    
C38   C127  S    
C74   C230  S    
C86   H165  S    
C112  O12   A    
C2    C46   S    
C71   C90   S    
C156  H143  S    
C40   C224  S    
C15   H200  S    
C173  C178  A    
C138  H88   S    
C96   H197  S    
C112  O10   A    
C99   H206  S    
C125  H47   S    
C27   C228  S    
C127  H53   S    
Cu11  O39   S    
C25   C226  S    
C157  C219  S    
C128  H58   S    
C31   O68   S    
C30   O66   S    
C12   H178  S    
C155  O85   S    
C116  O68   S    
Cu9   O24   S    
C117  H25   S    
C88   H173  S    
C4    C238  A    
C232  O45   A    
C94   H190  S    
C100  H209  S    
C102  H213  S    
C154  H138  S    
C43   C48   A    
C172  O84   S    
C140  H95   S    
C161  C166  A    
C46   C138  S    
C184  O21   A    
C97   H199  S    
C21   C229  S    
C180  O48   S    
C7    O61   S    
C60   C113  T    
C116  H21   S    
C123  H44   S    
C237  O7    A    
C192  C214  A    
C119  H30   S    
C120  H33   S    
C223  O37   A    
C160  O81   S    
C19   C22   A    
C165  H46   S    
C149  H121  S    
C16   C29   A    
C210  C214  A    
C171  C175  S    
C153  O83   S    
C91   O52   S    
C191  C213  A    
C70   C230  S    
Cu1   O12   S    
Cu9   O28   S    
C206  O57   S    
C194  C199  A    
C13   C76   S    
C151  H129  S    
C16   H211  S    
C209  H112  S    
C136  H82   S    
Cu7   O11   S    
C131  H69   S    
C98   H203  S    
C149  H120  S    
C208  C227  S    
C10   C238  A    
Cu11  O30   S    
C207  C212  A    
C159  C163  A    
Cu3   O67   S    
C231  O42   A    
C117  O69   S    
Cu2   O88   S    
C119  C225  S    
C47   C55   A    
C195  C200  A    
C87   O49   S    
C142  H100  S    
C7    C9    A    
C69   H24   S    
C130  H63   S    
C169  C173  A    
C156  H145  S    
C95   H194  S    
C153  H136  S    
C138  H86   S    
C109  H4    S    
C105  H223  S    
C137  H84   S    
C133  H74   S    
C145  H109  S    
Cu12  O45   S    
C144  O79   S    
C121  H37   S    
C230  O75   S    
C193  O52   S    
C207  H1    S    
C108  H3    S    
C205  O55   S    
C118  H28   S    
C155  H141  S    
C94   H188  S    
Cu5   O34   S    
C174  C179  A    
C144  H106  S    
C223  O36   A    
Cu7   O21   S    
C109  H5    S    
C190  C194  A    
C162  C167  A    
C97   H201  S    
Cu5   O17   S    
C89   H175  S    
C202  C206  A    
C197  C226  S    
C14   H189  S    
C181  O18   A    
Cu11  O26   S    
C67   C76   S    
C14   C28   A    
C25   C46   S    
C111  O64   S    
C143  H103  S    
C86   O48   S    
