data_mof_unit_13820.cif
_audit_creation_date              2012-12-11T15:47:09-0500
_audit_creation_method            fapswitch 2.2
_symmetry_space_group_name_H-M    P1
_symmetry_Int_Tables_number       1
_space_group_crystal_system       monoclinic
_cell_length_a                    20.155581
_cell_length_b                    7.244184
_cell_length_c                    13.645707
_cell_angle_alpha                 90.0
_cell_angle_beta                  102.93273
_cell_angle_gamma                 90.0
_cell_volume                      1941.87903461

loop_
_atom_site_label
_atom_site_type_symbol
_atom_type_description
_atom_site_fract_x
_atom_site_fract_y
_atom_site_fract_z
_atom_type_partial_charge
O1    O     O_R   0.449560 0.506810 0.599700 -0.533792
O2    O     O_R   0.550440 0.006810 0.400300 -0.533792
O3    O     O_R   0.587960 0.180060 0.595760 -0.544990
O4    O     O_R   0.412040 0.680060 0.404240 -0.544990
C1    C     C_R   0.614592 0.344050 0.617795 0.691670
C2    C     C_R   0.385408 0.844050 0.382205 0.691670
O5    O     O_R   0.452380 0.177430 0.611700 -0.541133
O6    O     O_R   0.547620 0.677430 0.388300 -0.541133
O7    O     O_R   0.413900 0.001890 0.416350 -0.543141
O8    O     O_R   0.586100 0.501890 0.583650 -0.543140
C3    C     C_R   0.435889 0.346167 0.637036 0.685363
C4    C     C_R   0.564111 0.846167 0.362964 0.685363
O9    O     O_3   0.487530 0.337490 0.435890 -0.379532
O10   O     O_3   0.512470 0.837490 0.564110 -0.379532
V1    V     V_3+5 0.502310 0.064660 0.511890 1.411049
V2    V     V_3+5 0.497690 0.564660 0.488110 1.411049
C5    C     C_R   0.614402 0.984911 0.125818 -0.164168
C6    C     C_R   0.385598 0.484914 0.874182 -0.164168
H1    H     H_    0.520819 0.977348 0.175294 0.108335
H2    H     H_    0.479180 0.477352 0.824705 0.108335
H3    H     H_    0.700568 0.068971 0.012196 0.125453
H4    H     H_    0.299432 0.568975 0.987803 0.125453
H5    H     H_    0.590664 0.050353 0.055232 0.114982
H6    H     H_    0.409336 0.550358 0.944767 0.114982
C7    C     C_R   0.603747 0.860435 0.285709 -0.031742
C8    C     C_R   0.396253 0.360436 0.714290 -0.031742
C9    C     C_R   0.928124 0.752908 0.302080 -0.140029
C10   C     C_R   0.071876 0.252907 0.697920 -0.140029
C11   C     C_R   0.890344 0.690935 0.368835 0.239185
C12   C     C_R   0.109656 0.190934 0.631165 0.239185
C13   C     C_R   0.820867 0.729543 0.351842 -0.190939
C14   C     C_R   0.179134 0.229542 0.648158 -0.190939
C15   C     C_R   0.787211 0.828690 0.265249 0.046561
C16   C     C_R   0.212789 0.328690 0.734751 0.046561
C17   C     C_R   0.826342 0.887445 0.195664 0.069932
C18   C     C_R   0.173658 0.387445 0.804336 0.069932
C19   C     C_R   0.715538 0.863560 0.242892 0.087843
C20   C     C_R   0.284463 0.363561 0.757108 0.087843
C21   C     C_R   0.684599 0.949631 0.150150 0.143058
C22   C     C_R   0.315400 0.449633 0.849850 0.143058
C23   C     C_R   0.723888 0.002855 0.082803 -0.208982
C24   C     C_R   0.276112 0.502858 0.917196 -0.208981
C25   C     C_R   0.793622 0.973886 0.105389 -0.185881
C26   C     C_R   0.206378 0.473888 0.894611 -0.185882
C27   C     C_R   0.673450 0.819606 0.309997 -0.210352
C28   C     C_R   0.326550 0.319605 0.690004 -0.210352
C29   C     C_R   0.574429 0.942115 0.193551 -0.168996
C30   C     C_R   0.425571 0.442118 0.806449 -0.168996
C31   C     C_R   0.897050 0.849739 0.215456 -0.107417
C32   C     C_R   0.102950 0.349738 0.784543 -0.107417
H7    H     H_    0.693767 0.763513 0.383807 0.100145
H8    H     H_    0.306234 0.263510 0.616194 0.100146
H9    H     H_    0.981452 0.715559 0.314682 0.143612
H10   H     H_    0.018547 0.215558 0.685318 0.143612
H11   H     H_    0.794334 0.672983 0.405253 0.127578
H12   H     H_    0.205666 0.172983 0.594747 0.127578
H13   H     H_    0.821530 0.018478 0.050495 0.125098
H14   H     H_    0.178470 0.518480 0.949504 0.125098
C33   C     C_R   0.213901 0.027741 0.242357 0.104341
C34   C     C_R   0.786099 0.527741 0.757642 0.104341
C35   C     C_R   0.279637 0.014922 0.304067 -0.177228
C36   C     C_R   0.720363 0.514922 0.695932 -0.177228
H15   H     H_    0.301830 0.134666 0.346715 0.119994
H16   H     H_    0.698170 0.634666 0.653285 0.119993
C37   C     C_R   0.316806 0.850961 0.314030 -0.058811
C38   C     C_R   0.683194 0.350961 0.685970 -0.058812
C39   C     C_R   0.287569 0.695132 0.260093 -0.165414
C40   C     C_R   0.712431 0.195132 0.739907 -0.165414
H17   H     H_    0.315332 0.566195 0.265326 0.122861
H18   H     H_    0.684668 0.066195 0.734674 0.122861
C41   C     C_R   0.222325 0.703700 0.197719 -0.195380
C42   C     C_R   0.777675 0.203700 0.802281 -0.195380
H19   H     H_    0.202487 0.581668 0.155598 0.122635
H20   H     H_    0.797513 0.081668 0.844402 0.122636
C43   C     C_R   0.183610 0.867101 0.187885 -0.053202
C44   C     C_R   0.816390 0.367101 0.812114 -0.053202
O11   O     O_R   0.913920 0.203370 0.916260 -0.544806
O12   O     O_R   0.086080 0.703370 0.083740 -0.544805
O13   O     O_R   0.047620 0.535540 0.888290 -0.536005
O14   O     O_R   0.952380 0.035540 0.111710 -0.536005
C45   C     C_R   0.063962 0.367471 0.862704 0.689459
C46   C     C_R   0.936038 0.867471 0.137295 0.689459
O15   O     O_R   0.912040 0.532780 0.904220 -0.544280
O16   O     O_R   0.087960 0.032780 0.095780 -0.544280
O17   O     O_R   0.949550 0.708160 0.099720 -0.536660
O18   O     O_R   0.050450 0.208160 0.900280 -0.536660
C47   C     C_R   0.885623 0.366512 0.881697 0.671253
C48   C     C_R   0.114377 0.866512 0.118303 0.671252
O19   O     O_3   0.012480 0.375300 0.064060 -0.380080
O20   O     O_3   0.987520 0.875300 0.935940 -0.380080
V3    V     V_3+5 0.997690 0.648180 0.988110 1.396702
V4    V     V_3+5 0.002310 0.148180 0.011890 1.396702
I1    I     I_    0.938054 0.517055 0.487989 -0.464083
I2    I     I_    0.061946 0.017054 0.512012 -0.464082
C49   C     C_3   0.180093 0.216038 0.241431 -0.379216
C50   C     C_3   0.127502 0.216754 0.306862 -0.265266
C51   C     C_3   0.100864 0.411136 0.318355 -0.694746
H21   H     H_    0.143054 0.502703 0.356322 0.224881
H22   H     H_    0.077019 0.470339 0.243922 0.239798
H23   H     H_    0.062123 0.405839 0.364696 0.255348
H24   H     H_    0.084066 0.124750 0.274547 0.218057
H25   H     H_    0.152297 0.164658 0.382757 0.211213
H26   H     H_    0.219004 0.321620 0.273138 0.157188
H27   H     H_    0.159067 0.266907 0.164242 0.192676
C52   C     C_3   0.819907 0.716038 0.758569 -0.379216
C53   C     C_3   0.872498 0.716754 0.693138 -0.265266
C54   C     C_3   0.899136 0.911136 0.681645 -0.694746
H28   H     H_    0.856946 0.002703 0.643678 0.224881
H29   H     H_    0.922981 0.970339 0.756078 0.239798
H30   H     H_    0.937876 0.905840 0.635304 0.255348
H31   H     H_    0.915934 0.624750 0.725453 0.218057
H32   H     H_    0.847703 0.664658 0.617243 0.211212
H33   H     H_    0.780995 0.821620 0.726862 0.157187
H34   H     H_    0.840933 0.766907 0.835758 0.192676

loop_
_geom_bond_atom_site_label_1
_geom_bond_atom_site_label_2
_ccdc_geom_bond_type
O15   C47   A    
O11   V4    S    
O4    V2    S    
C50   H25   S    
C9    C11   A    
C23   C25   A    
C38   C40   A    
C49   C50   S    
O1    C3    A    
C42   C44   A    
O2    C4    A    
C2    O7    A    
C51   H21   S    
O17   V3    S    
O3    V1    S    
C21   C23   A    
C53   H32   S    
O5    C3    A    
C5    H5    S    
C33   C49   S    
C6    H6    S    
C52   H33   S    
C20   C22   A    
H1    C29   S    
C39   C41   A    
C53   C54   S    
C27   H7    S    
C7    C27   A    
C28   H8    S    
C34   C36   A    
C5    C21   A    
C35   H15   S    
C6    C22   A    
C36   H16   S    
C10   C32   A    
C2    C37   S    
C26   H14   S    
C37   C39   A    
C17   C31   A    
C54   H28   S    
C13   C15   A    
C12   C14   A    
C17   C25   A    
C7    C29   A    
O13   V3    S    
C45   O18   A    
C8    C30   A    
C22   C24   A    
O6    V2    S    
C50   H24   S    
C11   C13   A    
C54   H29   S    
C24   C26   A    
C51   H22   S    
C49   H26   S    
C53   H31   S    
C41   C43   A    
C33   C35   A    
C36   C38   A    
C5    C29   A    
C52   H34   S    
C42   H20   S    
O13   C45   A    
C10   H10   S    
C3    C8    S    
C34   C44   A    
C15   C19   A    
C40   C42   A    
C39   H17   S    
C14   C16   A    
C31   C46   S    
O14   V4    S    
O6    C4    A    
C50   C51   S    
C25   H13   S    
O1    V2    S    
O19   V4    S    
O2    V1    S    
C44   C47   S    
H2    C30   S    
H3    C23   S    
O4    C2    A    
C54   H30   S    
C18   C26   A    
C19   C27   A    
C33   C43   A    
C51   H23   S    
C18   C32   A    
C49   H27   S    
C41   H19   S    
O12   C48   A    
C16   C20   A    
O16   C48   A    
C1    C38   S    
O3    C1    A    
C6    C30   A    
C9    H9    S    
O12   V3    S    
C46   O17   A    
O15   V3    S    
C52   C53   S    
C4    C7    S    
C10   C12   A    
O7    V1    S    
C1    O8    A    
C12   I2    S    
O8    V2    S    
C11   I1    S    
O20   V3    S    
H4    C24   S    
O5    V1    S    
C15   C17   A    
O14   C46   A    
C16   C18   A    
C20   C28   A    
C8    C28   A    
C35   C37   A    
C43   C48   S    
O11   C47   A    
C19   C21   A    
O9    V2    S    
C40   H18   S    
O10   V1    S    
O18   V4    S    
O16   V4    S    
C13   H11   S    
C14   H12   S    
C34   C52   S    
C9    C31   A    
C32   C45   S    
