data_mof_unit_21209.cif
_audit_creation_date              2012-12-10T17:41:03-0500
_audit_creation_method            fapswitch 2.2
_symmetry_space_group_name_H-M    P1
_symmetry_Int_Tables_number       1
_space_group_crystal_system       triclinic
_cell_length_a                    15.020478
_cell_length_b                    15.194827
_cell_length_c                    9.869737
_cell_angle_alpha                 92.323475
_cell_angle_beta                  89.013211
_cell_angle_gamma                 89.81248
_cell_volume                      2250.40173906

loop_
_atom_site_label
_atom_site_type_symbol
_atom_type_description
_atom_site_fract_x
_atom_site_fract_y
_atom_site_fract_z
_atom_type_partial_charge
C1    C     C_R   0.384910 0.875113 0.499063 0.889608
C2    C     C_R   0.681551 0.256449 0.402798 0.083980
C3    C     C_R   0.231962 0.288462 0.370213 0.090949
C4    C     C_R   0.181550 0.756449 0.402804 0.083994
C5    C     C_R   0.710709 0.839957 0.488345 -0.179388
C6    C     C_R   0.669634 0.203476 0.514983 -0.157867
C7    C     C_R   0.210701 0.339947 0.488342 -0.179408
C8    C     C_R   0.169636 0.703474 0.514987 -0.157870
C9    C     C_R   0.337007 0.996293 0.143374 -0.210793
C10   C     C_R   0.837007 0.496297 0.143375 -0.210763
C11   C     C_R   0.256785 0.998123 0.075323 -0.222600
C12   C     C_R   0.383070 0.123637 0.502835 0.855339
C13   C     C_R   0.756786 0.498130 0.075323 -0.222575
C14   C     C_R   0.256140 0.002348 0.934285 0.142983
C15   C     C_R   0.756141 0.502354 0.934286 0.142972
C16   C     C_R   0.337496 0.001175 0.863483 -0.213686
C17   C     C_R   0.837497 0.501178 0.863483 -0.213685
C18   C     C_R   0.419751 0.998819 0.929526 0.149380
C19   C     C_R   0.919751 0.498821 0.929526 0.149399
C20   C     C_R   0.419707 0.997784 0.074025 0.198390
C21   C     C_R   0.919707 0.497787 0.074025 0.198421
C22   C     C_R   0.576524 0.005046 0.069967 -0.114689
C23   C     C_R   0.884910 0.375114 0.499064 0.889610
C24   C     C_R   0.076525 0.505043 0.069967 -0.114670
C25   C     C_R   0.612879 0.126687 0.503348 0.866282
C26   C     C_R   0.627937 0.888969 0.496820 0.886627
C27   C     C_R   0.112878 0.626687 0.503349 0.866295
C28   C     C_R   0.127934 0.388965 0.496819 0.886643
C29   C     C_R   0.576468 0.004705 0.926746 -0.119071
C30   C     C_R   0.076469 0.504701 0.926746 -0.119094
C31   C     C_R   0.381859 0.264409 0.726126 -0.191956
C32   C     C_R   0.364214 0.756818 0.727204 -0.258082
C33   C     C_R   0.881844 0.764400 0.726155 -0.191985
C34   C     C_R   0.883075 0.623642 0.502835 0.855373
C35   C     C_R   0.864198 0.256830 0.727221 -0.258094
C36   C     C_R   0.376057 0.329738 0.830167 0.075366
C37   C     C_R   0.335896 0.733356 0.856641 0.052343
C38   C     C_R   0.876032 0.829722 0.830206 0.075367
C39   C     C_R   0.835869 0.233377 0.856658 0.052319
C40   C     C_R   0.817640 0.900220 0.817973 -0.279449
C41   C     C_R   0.747951 0.206771 0.876034 -0.139094
C42   C     C_R   0.317658 0.400231 0.817942 -0.279444
C43   C     C_R   0.247981 0.706743 0.876025 -0.139136
C44   C     C_R   0.765728 0.905409 0.703571 -0.156300
C45   C     C_R   0.282893 0.214732 0.384620 -0.247636
C46   C     C_R   0.691192 0.199423 0.766201 -0.195717
C47   C     C_R   0.265733 0.405411 0.703552 -0.156276
C48   C     C_R   0.191213 0.699403 0.766201 -0.195755
C49   C     C_R   0.765387 0.836535 0.603215 0.088686
C50   C     C_R   0.720872 0.218851 0.633375 0.063371
C51   C     C_R   0.265386 0.336531 0.603205 0.088657
C52   C     C_R   0.220883 0.718841 0.633372 0.063398
C53   C     C_R   0.324765 0.265348 0.613084 0.050055
C54   C     C_R   0.303493 0.759311 0.618744 0.093709
C55   C     C_R   0.824765 0.765350 0.613095 0.050079
C56   C     C_R   0.258680 0.805105 0.394322 -0.192694
C57   C     C_R   0.803483 0.259320 0.618752 0.093707
C58   C     C_R   0.326655 0.200401 0.505495 -0.139862
C59   C     C_R   0.319703 0.806212 0.499707 -0.141368
C60   C     C_R   0.826668 0.700413 0.505493 -0.139860
C61   C     C_R   0.819700 0.306216 0.499711 -0.141376
C62   C     C_3   0.171732 0.010266 0.853248 -0.410840
C63   C     C_3   0.085014 0.019086 0.937382 -0.354733
C64   C     C_3   0.006238 0.038150 0.847367 -0.870768
C65   C     C_3   0.671733 0.510270 0.853248 -0.410834
C66   C     C_3   0.585018 0.519118 0.937386 -0.354689
C67   C     C_R   0.782920 0.714756 0.384611 -0.247691
C68   C     C_3   0.506244 0.538184 0.847368 -0.870731
C69   C     C_2   0.432869 0.327142 0.950324 0.328172
C70   C     C_2   0.396737 0.743739 0.972155 0.353041
C71   C     C_2   0.932824 0.827112 0.950385 0.328193
C72   C     C_2   0.896705 0.243764 0.972180 0.353071
C73   C     C_3   0.715990 0.815104 0.225671 -0.381505
C74   C     C_3   0.644963 0.758704 0.153740 -0.316112
C75   C     C_3   0.655468 0.762942 0.999743 -0.881924
C76   C     C_3   0.605306 0.278344 0.310870 -0.379686
C77   C     C_3   0.531874 0.326578 0.395432 -0.350143
C78   C     C_R   0.758680 0.305107 0.394321 -0.192654
C79   C     C_3   0.459031 0.361354 0.306886 -0.853585
C80   C     C_3   0.215973 0.315077 0.225670 -0.381502
C81   C     C_3   0.144954 0.258670 0.153738 -0.316175
C82   C     C_3   0.155435 0.262940 0.999745 -0.881930
C83   C     C_3   0.105295 0.778364 0.310906 -0.379694
C84   C     C_3   0.031918 0.826673 0.395485 -0.350135
C85   C     C_3   0.959068 0.861446 0.306949 -0.853589
C86   C     C_R   0.731983 0.788484 0.370211 0.090982
H1    H     H_    0.292225 0.170756 0.296164 0.183768
H2    H     H_    0.433236 0.775158 0.713290 0.156013
H3    H     H_    0.933910 0.716371 0.734318 0.203861
H4    H     H_    0.933222 0.275164 0.713314 0.156016
H5    H     H_    0.813976 0.952867 0.895222 0.135964
H6    H     H_    0.722624 0.192498 0.976208 0.180290
H7    H     H_    0.314001 0.452884 0.895184 0.135981
H8    H     H_    0.222661 0.692463 0.976201 0.180280
H9    H     H_    0.728839 0.965634 0.691622 0.162812
H10   H     H_    0.622552 0.184647 0.789738 0.208260
H11   H     H_    0.228841 0.465635 0.691606 0.162817
H12   H     H_    0.267421 0.848009 0.310098 0.168935
H13   H     H_    0.122575 0.684627 0.789748 0.208228
H14   H     H_    0.638945 0.010118 0.122462 0.137101
H15   H     H_    0.138945 0.510110 0.122461 0.137104
H16   H     H_    0.330856 0.995442 0.250586 0.206974
H17   H     H_    0.830856 0.495444 0.250586 0.206971
H18   H     H_    0.195762 0.997333 0.134981 0.135139
H19   H     H_    0.695762 0.497342 0.134981 0.135137
H20   H     H_    0.016813 0.100678 0.794891 0.253643
H21   H     H_    0.997448 0.983598 0.770479 0.268517
H22   H     H_    0.944799 0.045086 0.910940 0.255956
H23   H     H_    0.792260 0.670789 0.296147 0.183791
H24   H     H_    0.072569 0.957049 0.990225 0.227536
H25   H     H_    0.090230 0.073924 0.014503 0.229621
H26   H     H_    0.178439 0.069364 0.790873 0.201970
H27   H     H_    0.166933 0.951540 0.782712 0.205665
H28   H     H_    0.516830 0.600705 0.794874 0.253635
H29   H     H_    0.497446 0.483626 0.770493 0.268506
H30   H     H_    0.444806 0.545136 0.910942 0.255992
H31   H     H_    0.572562 0.457090 0.990252 0.227532
H32   H     H_    0.590247 0.573965 0.014492 0.229633
H33   H     H_    0.678448 0.569356 0.790846 0.201962
H34   H     H_    0.767426 0.348006 0.310093 0.168962
H35   H     H_    0.666924 0.451532 0.782735 0.205680
H36   H     H_    0.428924 0.380622 0.026041 0.065111
H37   H     H_    0.460236 0.776038 0.958572 0.070133
H38   H     H_    0.928884 0.880594 0.026095 0.065084
H39   H     H_    0.960226 0.276024 0.958585 0.070121
H40   H     H_    0.721479 0.736313 0.965747 0.275544
H41   H     H_    0.603723 0.722574 0.948737 0.246053
H42   H     H_    0.649083 0.831858 0.968125 0.269381
H43   H     H_    0.651112 0.688723 0.180964 0.210889
H44   H     H_    0.577499 0.782519 0.185661 0.255422
H45   H     H_    0.333595 0.004371 0.756557 0.211991
H46   H     H_    0.701060 0.886085 0.219430 0.205869
H47   H     H_    0.780146 0.807102 0.168453 0.193039
H48   H     H_    0.486690 0.412172 0.240464 0.247951
H49   H     H_    0.430548 0.306333 0.244605 0.281247
H50   H     H_    0.405361 0.391971 0.371841 0.253784
H51   H     H_    0.501718 0.281049 0.468274 0.214300
H52   H     H_    0.560911 0.383119 0.454413 0.220674
H53   H     H_    0.628515 0.322019 0.229687 0.201993
H54   H     H_    0.578393 0.218934 0.257589 0.247773
H55   H     H_    0.221452 0.236346 0.965713 0.275539
H56   H     H_    0.833596 0.504371 0.756557 0.211992
H57   H     H_    0.103702 0.222555 0.948736 0.246046
H58   H     H_    0.149015 0.331860 0.968169 0.269381
H59   H     H_    0.151129 0.188687 0.180923 0.210891
H60   H     H_    0.077490 0.282460 0.185694 0.255426
H61   H     H_    0.201040 0.386057 0.219420 0.205893
H62   H     H_    0.280132 0.307075 0.168458 0.193050
H63   H     H_    0.986743 0.912176 0.240385 0.247949
H64   H     H_    0.930497 0.806409 0.244809 0.281213
H65   H     H_    0.905467 0.892166 0.371913 0.253775
H66   H     H_    0.001756 0.781194 0.468415 0.214288
H67   H     H_    0.638839 0.009381 0.871972 0.138408
H68   H     H_    0.061011 0.883229 0.454384 0.220655
H69   H     H_    0.128514 0.821997 0.229673 0.201986
H70   H     H_    0.078324 0.718958 0.257686 0.247792
H71   H     H_    0.138840 0.509373 0.871971 0.138416
H72   H     H_    0.433929 0.216382 0.734279 0.203853
N1    N     N_R   0.498810 0.000000 0.142780 -0.116068
N2    N     N_R   0.998810 0.500000 0.142780 -0.116061
N3    N     N_R   0.498740 1.000000 0.857170 -0.117404
N4    N     N_R   0.998740 0.500000 0.857170 -0.117405
O1    O     O_R   0.408390 0.908380 0.614690 -0.642027
O2    O     O_R   0.591620 0.908390 0.614640 -0.623274
O3    O     O_R   0.091620 0.591610 0.614640 -0.647180
O4    O     O_R   0.091620 0.408390 0.614640 -0.623275
O5    O     O_R   0.591610 0.091610 0.385310 -0.617754
O6    O     O_R   0.591610 0.908390 0.385310 -0.618825
O7    O     O_R   0.091610 0.591610 0.385310 -0.617762
O8    O     O_R   0.091610 0.408390 0.385310 -0.618825
O9    O     O_2   0.484109 0.266002 0.966339 -0.607536
O10   O     O_2   0.376260 0.717719 0.083883 -0.587157
O11   O     O_2   0.984040 0.765956 0.966424 -0.607494
O12   O     O_R   0.408390 0.091620 0.614690 -0.653615
O13   O     O_2   0.876197 0.217794 0.083928 -0.587155
O14   O     O_R   0.908390 0.408380 0.614690 -0.642030
O15   O     O_R   0.908390 0.591620 0.614690 -0.653619
O16   O     O_R   0.408370 0.908380 0.385360 -0.626214
O17   O     O_R   0.408370 0.091620 0.385360 -0.633010
O18   O     O_R   0.908370 0.408380 0.385360 -0.626202
O19   O     O_R   0.908370 0.591620 0.385360 -0.633025
O20   O     O_R   0.591620 0.091610 0.614640 -0.647183
Zn1   Zn    Zn3+2 0.500010 1.000000 0.653130 0.913818
Zn2   Zn    Zn3+2 0.000010 0.500000 0.653130 0.913821
Zn3   Zn    Zn3+2 0.499980 1.000000 0.346870 0.935845
Zn4   Zn    Zn3+2 0.999980 0.500000 0.346870 0.935864

loop_
_geom_bond_atom_site_label_1
_geom_bond_atom_site_label_2
_ccdc_geom_bond_type
C44   C49   A    
C33   C55   A    
C30   H71   S    
C66   C68   S    
C37   C43   A    
C22   C29   A    
C42   H7    S    
C73   C74   S    
C36   C42   A    
N2    Zn4   S    
C4    C8    A    
C81   C82   S    
C39   C41   A    
C78   H34   S    
C25   O5    A    
C79   H50   S    
C26   O6    A    
C12   O12   A    
C10   H17   S    
C45   H1    S    
C77   H51   S    
O7    Zn4   S    
C24   H15   S    
C48   C52   A    
C3    C7    A    
C1    C59   S    
C18   N3    A    
C6    C25   S    
C83   H69   S    
C22   N1    A    
C15   C65   S    
C43   H8    S    
C34   O19   A    
O14   Zn2   S    
C75   H42   S    
C69   O9    D    
C72   O13   D    
C48   H13   S    
C16   H45   S    
C70   O10   D    
C85   H64   S    
C17   C19   A    
O20   Zn1   S    
O16   Zn3   S    
C84   H68   S    
C70   H37   S    
C67   H23   S    
C80   H61   S    
C60   C67   A    
C9    H16   S    
C20   N1    A    
C41   C46   A    
C11   H18   S    
C65   H35   S    
C43   C48   A    
C8    C52   A    
C40   C44   A    
C75   H41   S    
C28   O4    A    
C12   C58   S    
C77   C79   S    
C73   H46   S    
C55   C60   A    
C4    C56   A    
C34   C60   S    
O3    Zn2   S    
C5    C49   A    
C2    C6    A    
C82   H55   S    
C3    C80   S    
C32   C54   A    
C52   C54   A    
C64   H22   S    
C24   C30   A    
C54   C59   A    
C76   H54   S    
C10   C21   A    
C45   C58   A    
C22   H14   S    
C74   C75   S    
C63   C64   S    
O1    Zn1   S    
C29   N3    A    
C71   H38   S    
O4    Zn2   S    
C84   C85   S    
C62   H27   S    
C13   H19   S    
C80   C81   S    
C47   C51   A    
C23   O14   A    
C49   C55   A    
C66   H31   S    
C31   C53   A    
C7    C28   S    
C71   O11   D    
C17   H56   S    
C51   C53   A    
C19   N4    A    
N3    Zn1   S    
C35   C39   A    
C85   H65   S    
N4    Zn2   S    
C62   C63   S    
C2    C78   A    
C33   H3    S    
C1    O16   A    
C9    C20   A    
C83   C84   S    
C23   C61   S    
C61   C78   A    
C39   C72   S    
O8    Zn4   S    
C65   H33   S    
C62   H26   S    
C32   C37   A    
C77   H52   S    
C64   H20   S    
C9    C11   A    
C23   O18   A    
O18   Zn4   S    
C27   O3    A    
C53   C58   A    
C5    C86   A    
C84   H66   S    
C82   H58   S    
C68   H30   S    
C65   C66   S    
C81   H59   S    
C74   H44   S    
C21   N2    A    
C14   C16   A    
C32   H2    S    
C30   N4    A    
C2    C76   S    
C25   O20   A    
C64   H21   S    
C29   H67   S    
C76   H53   S    
C28   O8    A    
C15   C17   A    
C79   H48   S    
C27   O7    A    
C38   C71   S    
C67   C86   A    
O6    Zn3   S    
C6    C50   A    
C19   C21   A    
C50   C57   A    
C73   H47   S    
C82   H57   S    
C10   C13   A    
O12   Zn1   S    
O19   Zn4   S    
C24   N2    A    
C57   C61   A    
C83   H70   S    
O15   Zn2   S    
C79   H49   S    
C12   O17   A    
C46   C50   A    
C33   C38   A    
C47   H11   S    
C56   C59   A    
C72   H39   S    
C35   C57   A    
C75   H40   S    
N1    Zn3   S    
C63   H24   S    
C13   C15   A    
C7    C51   A    
C44   H9    S    
C38   C40   A    
C76   C77   S    
C4    C83   S    
C69   H36   S    
C26   O2    A    
C56   H12   S    
C11   C14   A    
C3    C45   A    
O17   Zn3   S    
C18   C20   A    
C42   C47   A    
C40   H5    S    
C63   H25   S    
C36   C69   S    
C85   H63   S    
C73   C86   S    
C31   H72   S    
C68   H29   S    
C5    C26   S    
C35   H4    S    
C80   H62   S    
C41   H6    S    
C46   H10   S    
C1    O1    A    
C16   C18   A    
C81   H60   S    
C66   H32   S    
C74   H43   S    
O2    Zn1   S    
C8    C27   S    
C31   C36   A    
C34   O15   A    
C37   C70   S    
C68   H28   S    
O5    Zn3   S    
C14   C62   S    
