data_mof_unit_18180.cif
_audit_creation_date              2012-12-11T15:50:23-0500
_audit_creation_method            fapswitch 2.2
_symmetry_space_group_name_H-M    P1
_symmetry_Int_Tables_number       1
_space_group_crystal_system       triclinic
_cell_length_a                    18.970417
_cell_length_b                    10.982816
_cell_length_c                    18.809527
_cell_angle_alpha                 89.712026
_cell_angle_beta                  90.920148
_cell_angle_gamma                 90.391361
_cell_volume                      3918.29446803

loop_
_atom_site_label
_atom_site_type_symbol
_atom_type_description
_atom_site_fract_x
_atom_site_fract_y
_atom_site_fract_z
_atom_type_partial_charge
C1    C     C_R   0.274105 0.038456 0.855353 0.535736
C2    C     C_R   0.726132 0.038978 0.145019 0.541612
C3    C     C_R   0.774105 0.538456 0.855353 0.535736
C4    C     C_R   0.226132 0.538978 0.145019 0.541612
C5    C     C_3   0.521874 0.715838 0.970865 0.439518
C6    C     C_3   0.475929 0.755328 0.032129 0.438159
C7    C     C_3   0.021874 0.215838 0.970865 0.439518
C8    C     C_3   0.975929 0.255328 0.032129 0.438159
C9    C     C_R   0.240623 0.572980 0.071822 -0.016763
C10   C     C_R   0.759984 0.571704 0.928873 -0.027291
C11   C     C_R   0.740623 0.072980 0.071822 -0.016763
C12   C     C_R   0.259984 0.071704 0.928873 -0.027291
C13   C     C_R   0.303618 0.544615 0.038193 0.151467
C14   C     C_R   0.698277 0.536319 0.963234 0.093966
C15   C     C_R   0.803618 0.044616 0.038193 0.151467
C16   C     C_R   0.198277 0.036319 0.963234 0.093966
C17   C     C_R   0.309269 0.555368 0.964600 -0.000136
C18   C     C_R   0.692768 0.546073 0.037078 -0.037312
C19   C     C_R   0.809269 0.055368 0.964600 -0.000136
C20   C     C_R   0.192768 0.046073 0.037078 -0.037312
C21   C     C_R   0.187757 0.616939 0.956571 -0.192823
C22   C     C_R   0.813627 0.615167 0.044195 -0.175175
C23   C     C_R   0.687757 0.116939 0.956571 -0.192823
C24   C     C_R   0.313627 0.115167 0.044195 -0.175175
C25   C     C_R   0.183404 0.613062 0.029695 -0.193078
C26   C     C_R   0.817172 0.614033 0.970753 -0.197536
C27   C     C_R   0.683404 0.113062 0.029695 -0.193078
C28   C     C_R   0.317172 0.114033 0.970753 -0.197536
C29   C     C_3   0.342887 0.427828 0.039898 0.286646
C30   C     C_3   0.665771 0.413067 0.963101 0.288999
C31   C     C_3   0.842887 0.927828 0.039898 0.286646
C32   C     C_3   0.165770 0.913067 0.963101 0.288999
C33   C     C_3   0.349851 0.439648 0.960166 -0.204308
C34   C     C_3   0.657224 0.424824 0.042426 -0.200342
C35   C     C_3   0.849851 0.939648 0.960166 -0.204308
C36   C     C_3   0.157224 0.924824 0.042426 -0.200342
C37   C     C_R   0.250660 0.588468 0.922772 -0.024397
C38   C     C_R   0.750657 0.585201 0.078326 -0.008116
C39   C     C_R   0.750660 0.088468 0.922772 -0.024397
C40   C     C_R   0.250657 0.085201 0.078326 -0.008116
C41   C     C_R   0.541800 0.827675 0.435621 -0.036791
C42   C     C_R   0.509434 0.827025 0.581231 -0.017406
C43   C     C_R   0.041800 0.327675 0.435621 -0.036791
C44   C     C_R   0.009434 0.327025 0.581231 -0.017406
C45   C     C_R   0.469796 0.821257 0.855694 0.549846
C46   C     C_R   0.560172 0.818197 0.137629 0.554163
C47   C     C_R   0.969796 0.321257 0.855694 0.549846
C48   C     C_R   0.060172 0.318197 0.137629 0.554163
C49   C     C_R   0.524717 0.720535 0.470752 -0.024919
C50   C     C_R   0.509896 0.719540 0.541619 -0.005575
C51   C     C_R   0.024718 0.220535 0.470752 -0.024918
C52   C     C_R   0.009897 0.219540 0.541619 -0.005575
C53   C     C_R   0.534642 0.934587 0.549231 0.391805
C54   C     C_R   0.549131 0.935536 0.475940 0.352235
C55   C     C_R   0.034642 0.434587 0.549231 0.391805
C56   C     C_R   0.049131 0.435536 0.475940 0.352235
C57   C     C_3   0.468760 0.628348 0.453134 0.354464
C58   C     C_3   0.453003 0.625661 0.531423 0.376926
C59   C     C_3   0.968760 0.128348 0.453134 0.354464
C60   C     C_3   0.953003 0.125661 0.531423 0.376926
C61   C     C_R   0.244119 0.567827 0.427818 -0.051379
C62   C     C_R   0.752952 0.601194 0.579433 0.018227
C63   C     C_R   0.744119 0.067827 0.427818 -0.051379
C64   C     C_R   0.252952 0.101194 0.579433 0.018227
C65   C     C_R   0.197035 0.642740 0.460620 0.024335
C66   C     C_R   0.809185 0.644228 0.538721 -0.005362
C67   C     C_R   0.697035 0.142739 0.460620 0.024335
C68   C     C_R   0.309185 0.144227 0.538721 -0.005362
C69   C     C_R   0.198229 0.654563 0.532368 -0.005233
C70   C     C_R   0.803506 0.652442 0.466770 0.009853
C71   C     C_R   0.698229 0.154563 0.532368 -0.005233
C72   C     C_R   0.303506 0.152442 0.466770 0.009854
C73   C     C_R   0.287819 0.500426 0.543814 0.337909
C74   C     C_R   0.683121 0.581471 0.472046 0.355821
C75   C     C_R   0.787819 0.000426 0.543814 0.337909
C76   C     C_R   0.183121 0.081471 0.472046 0.355821
C77   C     C_R   0.288359 0.491583 0.469788 0.384979
C78   C     C_R   0.687322 0.580906 0.546337 0.371174
C79   C     C_R   0.788359 0.991583 0.469788 0.384979
C80   C     C_R   0.187322 0.080906 0.546337 0.371174
C81   C     C_3   0.184873 0.773654 0.445981 0.354729
C82   C     C_3   0.882995 0.596491 0.532988 0.333053
C83   C     C_3   0.684873 0.273654 0.445981 0.354729
C84   C     C_3   0.382995 0.096491 0.532988 0.333053
C85   C     C_3   0.190439 0.789658 0.525217 0.298325
C86   C     C_3   0.877026 0.613007 0.453869 0.361913
C87   C     C_3   0.690439 0.289658 0.525217 0.298325
C88   C     C_3   0.377026 0.113007 0.453869 0.361912
C89   C     C_R   0.260618 0.635520 0.851277 0.528546
C90   C     C_R   0.739610 0.634763 0.148999 0.530805
C91   C     C_R   0.760617 0.135520 0.851277 0.528546
C92   C     C_R   0.239610 0.134763 0.148999 0.530805
C93   C     C_R   0.245377 0.588514 0.574960 -0.033261
C94   C     C_R   0.743172 0.611843 0.432046 -0.077260
C95   C     C_R   0.745377 0.088514 0.574960 -0.033261
C96   C     C_R   0.243172 0.111843 0.432046 -0.077260
C97   C     C_R   0.270767 0.049572 0.647748 0.656893
C98   C     C_R   0.728150 0.042125 0.354935 0.576447
C99   C     C_R   0.770767 0.549572 0.647748 0.656893
C100  C     C_R   0.228150 0.542125 0.354935 0.576447
C101  C     C_R   0.472024 0.823431 0.648428 0.616214
C102  C     C_R   0.559414 0.819953 0.360645 0.588877
C103  C     C_R   0.972024 0.323431 0.648428 0.616214
C104  C     C_R   0.059414 0.319953 0.360645 0.588877
C105  C     C_R   0.259111 0.635544 0.644767 0.614636
C106  C     C_R   0.738579 0.640197 0.357793 0.548219
C107  C     C_R   0.759111 0.135544 0.644767 0.614636
C108  C     C_R   0.238580 0.140197 0.357793 0.548219
C109  C     C_3   0.513639 0.942653 0.020935 -0.172937
C110  C     C_3   0.559864 0.902558 0.957703 -0.196207
C111  C     C_3   0.013639 0.442653 0.020935 -0.172937
C112  C     C_3   0.059864 0.402558 0.957703 -0.196207
C113  C     C_3   0.450776 0.867596 0.990209 -0.155906
C114  C     C_3   0.584854 0.789304 0.000770 -0.171612
C115  C     C_3   0.950776 0.367596 0.990209 -0.155906
C116  C     C_3   0.084854 0.289305 0.000770 -0.171612
C117  C     C_3   0.497705 0.827540 0.928542 -0.005568
C118  C     C_3   0.537943 0.828480 0.062601 -0.006947
C119  C     C_3   0.997705 0.327539 0.928542 -0.005568
C120  C     C_3   0.037943 0.328480 0.062601 -0.006947
Cr1   Cr    Cr6+3 0.229640 0.835880 0.747370 1.159732
Cr2   Cr    Cr6+3 0.770360 0.835880 0.252630 1.161395
Cr3   Cr    Cr6+3 0.729640 0.335880 0.747370 1.159732
Cr4   Cr    Cr6+3 0.270360 0.335880 0.252630 1.161395
Cr5   Cr    Cr6+3 0.387390 0.989720 0.750850 1.116769
Cr6   Cr    Cr6+3 0.612610 0.989720 0.249150 1.128210
Cr7   Cr    Cr6+3 0.887390 0.489720 0.750850 1.116769
Cr8   Cr    Cr6+3 0.112610 0.489720 0.249150 1.128210
Cr9   Cr    Cr6+3 0.385770 0.677220 0.749340 1.160070
Cr10  Cr    Cr6+3 0.614230 0.677220 0.250660 1.142210
Cr11  Cr    Cr6+3 0.885770 0.177220 0.749340 1.160070
Cr12  Cr    Cr6+3 0.114230 0.177220 0.250660 1.142210
H1    H     H_    0.989071 0.041383 0.431916 0.273259
H2    H     H_    0.899704 0.158831 0.544884 0.159062
H3    H     H_    0.489071 0.541383 0.431916 0.273259
H4    H     H_    0.399704 0.658831 0.544884 0.159062
O1    O     O_R   0.214300 0.709080 0.827500 -0.513538
O2    O     O_R   0.785700 0.709080 0.172500 -0.511935
O3    O     O_R   0.714300 0.209080 0.827500 -0.513538
O4    O     O_R   0.285700 0.209080 0.172500 -0.511935
O5    O     O_R   0.445900 0.919370 0.676500 -0.410820
O6    O     O_R   0.554100 0.919370 0.323500 -0.421596
O7    O     O_R   0.945900 0.419370 0.676500 -0.410820
O8    O     O_R   0.054100 0.419370 0.323500 -0.421597
O9    O     O_R   0.456660 0.717710 0.669820 -0.480885
O10   O     O_R   0.543340 0.717710 0.330180 -0.435131
O11   O     O_R   0.956660 0.217710 0.669820 -0.480885
O12   O     O_R   0.043340 0.217710 0.330180 -0.435131
O13   O     O_R   0.320590 0.625770 0.672930 -0.448399
O14   O     O_R   0.679410 0.625770 0.327070 -0.460241
O15   O     O_R   0.820590 0.125770 0.672930 -0.448399
O16   O     O_R   0.179410 0.125770 0.327070 -0.460241
O17   O     O_3   0.334270 0.834280 0.749190 -0.308158
O18   O     O_3   0.665730 0.834280 0.250810 -0.368638
O19   O     O_3   0.834270 0.334280 0.749190 -0.308158
O20   O     O_3   0.165730 0.334280 0.250810 -0.368638
O21   O     O_R   0.236190 0.958390 0.823150 -0.480575
O22   O     O_R   0.763810 0.958390 0.176850 -0.477099
O23   O     O_R   0.736190 0.458390 0.823150 -0.480575
O24   O     O_R   0.263810 0.458390 0.176850 -0.477099
O25   O     O_R   0.332090 0.075280 0.831290 -0.530011
O26   O     O_R   0.667910 0.075280 0.168710 -0.532702
O27   O     O_R   0.832090 0.575280 0.831290 -0.530011
O28   O     O_R   0.167910 0.575280 0.168710 -0.532702
O29   O     O_R   0.446280 0.918040 0.826620 -0.522246
O30   O     O_R   0.553720 0.918040 0.173380 -0.498610
O31   O     O_R   0.946280 0.418040 0.826620 -0.522246
O32   O     O_R   0.053720 0.418040 0.173380 -0.498610
O33   O     O_R   0.457080 0.716270 0.831760 -0.451755
O34   O     O_R   0.542920 0.716270 0.168240 -0.416003
O35   O     O_R   0.957080 0.216270 0.831760 -0.451755
O36   O     O_R   0.042920 0.216270 0.168240 -0.416003
O37   O     O_R   0.320980 0.624440 0.823040 -0.500312
O38   O     O_R   0.679020 0.624440 0.176960 -0.517436
O39   O     O_R   0.820980 0.124440 0.823040 -0.500312
O40   O     O_R   0.179020 0.124440 0.176960 -0.517436
O41   O     O_R   0.213880 0.710510 0.665560 -0.478414
O42   O     O_R   0.786120 0.710510 0.334440 -0.441941
O43   O     O_R   0.713880 0.210510 0.665560 -0.478414
O44   O     O_R   0.286120 0.210510 0.334440 -0.441941
O45   O     O_R   0.235800 0.959720 0.673040 -0.411040
O46   O     O_R   0.764200 0.959720 0.326960 -0.427142
O47   O     O_R   0.735800 0.459720 0.673040 -0.411040
O48   O     O_R   0.264200 0.459720 0.326960 -0.427142
O49   O     O_R   0.331670 0.076720 0.669350 -0.486457
O50   O     O_R   0.668330 0.076720 0.330650 -0.445522
O51   O     O_R   0.831670 0.576720 0.669350 -0.486457
O52   O     O_R   0.168330 0.576720 0.330650 -0.445522
H5    H     H_    0.395124 0.896981 0.984829 0.128320
H6    H     H_    0.640859 0.762833 0.005905 0.114636
H7    H     H_    0.895124 0.396981 0.984829 0.128320
H8    H     H_    0.140859 0.262833 0.005905 0.114636
F1    F     F_    0.539168 0.039695 0.586680 -0.586493
F2    F     F_    0.563494 0.043001 0.443636 -0.529880
F3    F     F_    0.039168 0.539695 0.586680 -0.586493
F4    F     F_    0.063494 0.543000 0.443636 -0.529880
F5    F     F_    0.413934 0.677894 0.413213 -0.630707
F6    F     F_    0.471273 0.515979 0.563014 -0.489421
F7    F     F_    0.913934 0.177894 0.413213 -0.630707
F8    F     F_    0.971273 0.015979 0.563014 -0.489421
F9    F     F_    0.332214 0.431073 0.583969 -0.557867
F10   F     F_    0.622849 0.543112 0.439601 -0.576186
F11   F     F_    0.832214 0.931073 0.583969 -0.557867
F12   F     F_    0.122848 0.043112 0.439601 -0.576187
F13   F     F_    0.333500 0.412600 0.439696 -0.512854
F14   F     F_    0.630777 0.545255 0.584731 -0.570801
F15   F     F_    0.833500 0.912600 0.439696 -0.512854
F16   F     F_    0.130777 0.045255 0.584731 -0.570801
F17   F     F_    0.117269 0.793246 0.419815 -0.486921
F18   F     F_    0.885484 0.474114 0.550038 -0.636632
F19   F     F_    0.617269 0.293245 0.419815 -0.486921
F20   F     F_    0.385484 0.974114 0.550038 -0.636632
H9    H     H_    0.227111 0.818950 0.414900 0.135946
H10   H     H_    0.923537 0.654397 0.559796 0.250884
H11   H     H_    0.727111 0.318950 0.414900 0.135946
H12   H     H_    0.423537 0.154397 0.559796 0.250884
F21   F     F_    0.252881 0.847639 0.543872 -0.657592
F22   F     F_    0.918752 0.707837 0.429602 -0.482189
F23   F     F_    0.752881 0.347639 0.543872 -0.657592
F24   F     F_    0.418752 0.207837 0.429602 -0.482189
H13   H     H_    0.142382 0.825070 0.550673 0.258236
H14   H     H_    0.881106 0.527906 0.422381 0.153063
H15   H     H_    0.642382 0.325070 0.550673 0.258236
H16   H     H_    0.381106 0.027906 0.422381 0.153063
H17   H     H_    0.510400 0.036173 0.042675 0.156266
H18   H     H_    0.592128 0.958186 0.921484 0.145112
H19   H     H_    0.010400 0.536174 0.042675 0.156266
H20   H     H_    0.092128 0.458186 0.921484 0.145112
F25   F     F_    0.524355 0.598752 0.944992 -0.538526
F26   F     F_    0.432744 0.680591 0.071651 -0.548220
F27   F     F_    0.024355 0.098752 0.944992 -0.538526
F28   F     F_    0.932744 0.180591 0.071651 -0.548220
H21   H     H_    0.142247 0.649249 0.926670 0.185938
H22   H     H_    0.859522 0.646575 0.074050 0.178658
H23   H     H_    0.642247 0.149249 0.926670 0.185938
H24   H     H_    0.359522 0.146575 0.074050 0.178658
H25   H     H_    0.133152 0.635785 0.052498 0.167443
H26   H     H_    0.867090 0.639188 0.947464 0.171226
H27   H     H_    0.633152 0.135785 0.052498 0.167443
H28   H     H_    0.367090 0.139188 0.947464 0.171226
H29   H     H_    0.809666 0.850684 0.057473 0.106418
H30   H     H_    0.204314 0.844085 0.946914 0.117842
H31   H     H_    0.309666 0.350684 0.057473 0.106418
H32   H     H_    0.704314 0.344085 0.946914 0.117842
F29   F     F_    0.406911 0.437925 0.075709 -0.534576
F30   F     F_    0.602385 0.408880 0.925925 -0.545115
F31   F     F_    0.906911 0.937925 0.075709 -0.534576
F32   F     F_    0.102385 0.908880 0.925925 -0.545115
H33   H     H_    0.404865 0.455801 0.942816 0.252094
H34   H     H_    0.601425 0.433142 0.058846 0.229674
H35   H     H_    0.904865 0.955801 0.942816 0.252094
H36   H     H_    0.101425 0.933142 0.058846 0.229674
H37   H     H_    0.320783 0.367837 0.930031 0.083402
H38   H     H_    0.688818 0.358137 0.073861 0.101861
H39   H     H_    0.820783 0.867837 0.930031 0.083402
H40   H     H_    0.188818 0.858137 0.073861 0.101861

loop_
_geom_bond_atom_site_label_1
_geom_bond_atom_site_label_2
_ccdc_geom_bond_type
C7    F27   S    
C55   F3    S    
C55   C56   A    
Cr10  O18   S    
C67   C83   S    
C112  H20   S    
C29   C33   S    
C5    C114  S    
Cr10  O10   S    
C53   F1    S    
C14   C18   A    
C81   F17   S    
C111  C112  S    
C73   C93   A    
C13   C29   S    
C116  H8    S    
Cr9   O37   S    
C2    O26   A    
C99   O51   A    
C45   O29   A    
C9    C25   A    
C7    C8    S    
C48   C120  S    
C63   C79   A    
C53   C54   A    
C92   O40   A    
C15   C19   A    
C84   F20   S    
C101  O9    A    
C36   H40   S    
C75   C79   A    
Cr1   O17   S    
C32   F32   S    
C54   F2    S    
C32   C36   S    
Cr9   O33   S    
C16   C20   A    
C100  O52   A    
Cr4   O48   S    
C63   C98   S    
C69   C93   A    
C64   C68   A    
C42   C53   A    
Cr12  O40   S    
C5    C6    S    
C20   C40   A    
C89   O1    A    
C23   C39   A    
C114  H6    S    
C60   F8    S    
C22   C38   A    
Cr3   O3    S    
Cr8   O28   S    
C109  H17   S    
C49   C57   S    
C41   C102  S    
C46   C118  S    
Cr5   O49   S    
C86   F22   S    
Cr1   O1    S    
C106  O14   A    
C19   C35   S    
C9    C13   A    
C43   C104  S    
C85   F21   S    
C52   C60   S    
C8    C115  S    
C93   C105  S    
C88   H16   S    
C82   H10   S    
C11   C15   A    
C115  H7    S    
C41   C49   A    
C81   H9    S    
Cr5   O29   S    
C12   C16   A    
C61   C77   A    
C11   C27   A    
C27   H27   S    
Cr3   O47   S    
C76   C80   A    
C4    O28   A    
C58   H4    S    
Cr11  O11   S    
C87   F23   S    
Cr7   O51   S    
C110  C114  S    
C113  H5    S    
C99   O47   A    
C109  C113  S    
Cr11  O39   S    
C23   H23   S    
C10   C26   A    
C47   C119  S    
C72   C88   S    
C1    O25   A    
C59   C60   S    
C56   F4    S    
C35   H39   S    
Cr2   O18   S    
C31   F31   S    
C1    C12   S    
C101  O5    A    
C14   C30   S    
C71   C95   A    
C64   C80   A    
C2    C11   S    
C110  C117  S    
C39   C91   S    
C90   O2    A    
C44   C103  S    
C62   C78   A    
C109  C118  S    
C107  O15   A    
Cr12  O36   S    
C83   F19   S    
C29   H31   S    
C63   C67   A    
Cr9   O17   S    
C30   C34   S    
C75   C95   A    
C51   C52   A    
C68   C84   S    
C7    C119  S    
Cr6   O50   S    
C62   C66   A    
Cr2   O2    S    
Cr3   O43   S    
C110  H18   S    
Cr5   O5    S    
C108  O16   A    
Cr3   O19   S    
C111  H19   S    
C74   F10   S    
C72   C96   A    
C86   H14   S    
C103  O11   A    
C73   F9    S    
C74   C94   A    
Cr6   O6    S    
C96   C108  S    
Cr10  O38   S    
C116  C120  S    
C5    C117  S    
C111  C120  S    
Cr12  O12   S    
C7    C116  S    
C98   O46   A    
C97   O49   A    
C2    O22   A    
C78   F14   S    
C6    C113  S    
Cr9   O13   S    
C24   H24   S    
C5    F25   S    
C77   F13   S    
C76   C96   A    
C66   C82   S    
Cr10  O14   S    
C47   O31   A    
C38   C90   S    
C26   H26   S    
C65   C81   S    
C48   O32   A    
C25   H25   S    
C89   O37   A    
C68   C72   A    
Cr11  O35   S    
C35   H35   S    
Cr2   O22   S    
C50   C58   S    
C91   O39   A    
C34   H34   S    
Cr7   O7    S    
C40   C92   S    
C33   H33   S    
C18   C34   S    
C114  C118  S    
C22   C26   A    
C95   C107  S    
C42   C50   A    
C6    F26   S    
C71   C87   S    
Cr6   O18   S    
Cr7   O31   S    
C64   C97   S    
C80   F16   S    
C12   C28   A    
C87   H15   S    
C83   H11   S    
C23   C27   A    
Cr4   O20   S    
C88   F24   S    
C10   C14   A    
Cr12  O16   S    
C91   O3    A    
C61   C100  S    
C51   C59   S    
C17   C37   A    
Cr7   O19   S    
C92   O4    A    
C42   C101  S    
C60   H2    S    
C16   C32   S    
C112  C116  S    
C69   C85   S    
C48   O36   A    
C108  O44   A    
Cr1   O45   S    
C36   H36   S    
C113  C117  S    
C45   C117  S    
Cr2   O42   S    
C8    C120  S    
C21   C25   A    
C94   C106  S    
C75   F11   S    
C46   O30   A    
C30   F30   S    
C107  O43   A    
Cr8   O52   S    
C29   F29   S    
C31   H29   S    
Cr5   O25   S    
Cr4   O4    S    
C24   C28   A    
C97   O45   A    
C105  O41   A    
Cr6   O30   S    
C103  O7    A    
C83   C87   S    
C112  C119  S    
C47   O35   A    
C66   C70   A    
C76   F12   S    
C15   C31   S    
C44   C52   A    
C3    O27   A    
C70   C94   A    
C105  O13   A    
C90   O38   A    
C115  C119  S    
Cr11  O19   S    
Cr8   O8    S    
C37   C89   S    
C34   H38   S    
C21   H21   S    
Cr5   O17   S    
C1    O21   A    
C18   C38   A    
C59   F7    S    
C104  O12   A    
C98   O50   A    
C3    C10   S    
C82   C86   S    
C109  C110  S    
C28   H28   S    
C111  C115  S    
C62   C99   S    
C8    F28   S    
C44   C55   A    
C43   C51   A    
C57   C58   S    
C4    O24   A    
C84   C88   S    
Cr3   O23   S    
C32   H30   S    
Cr10  O34   S    
C65   C69   A    
Cr4   O24   S    
C31   C35   S    
C17   C33   S    
Cr12  O20   S    
C59   H1    S    
Cr11  O15   S    
C67   C71   A    
Cr9   O9    S    
C79   F15   S    
C61   C65   A    
C22   H22   S    
C100  O48   A    
C81   C85   S    
C41   C54   A    
Cr4   O44   S    
Cr7   O27   S    
C58   F6    S    
C104  O8    A    
Cr8   O20   S    
C3    O23   A    
C57   F5    S    
C13   C17   A    
C20   C36   S    
C46   O34   A    
C43   C56   A    
Cr2   O46   S    
C21   C37   A    
Cr1   O41   S    
C24   C40   A    
C19   C39   A    
C49   C50   A    
C74   C78   A    
C33   H37   S    
Cr8   O32   S    
C73   C77   A    
C30   H32   S    
C57   H3    S    
Cr1   O21   S    
C102  O6    A    
C4    C9    S    
Cr6   O26   S    
C85   H13   S    
C106  O42   A    
C102  O10   A    
C45   O33   A    
C84   H12   S    
C6    C118  S    
C82   F18   S    
C70   C86   S    
