data_mof_unit_63455.cif
_audit_creation_date              2012-12-10T17:46:09-0500
_audit_creation_method            fapswitch 2.2
_symmetry_space_group_name_H-M    P1
_symmetry_Int_Tables_number       1
_space_group_crystal_system       triclinic
_cell_length_a                    16.060042
_cell_length_b                    17.870806
_cell_length_c                    17.843022
_cell_angle_alpha                 114.918264
_cell_angle_beta                  99.085567
_cell_angle_gamma                 76.018853
_cell_volume                      4497.57385481

loop_
_atom_site_label
_atom_site_type_symbol
_atom_type_description
_atom_site_fract_x
_atom_site_fract_y
_atom_site_fract_z
_atom_type_partial_charge
C1    C     C_R   0.462540 0.456875 0.280938 0.840576
C2    C     C_R   0.513201 0.543629 0.925993 0.069279
C3    C     C_R   0.547736 0.615053 0.980470 0.067167
C4    C     C_R   0.536840 0.543133 0.719167 0.815738
C5    C     C_R   0.480524 0.496852 0.958371 0.001527
C6    C     C_R   0.501732 0.509930 0.043068 -0.005180
C7    C     C_R   0.555398 0.568676 0.091254 0.151769
C8    C     C_R   0.568954 0.626266 0.062981 -0.188895
C9    C     C_R   0.427132 0.437882 0.909978 0.136511
C10   C     C_R   0.412262 0.381568 0.939024 -0.243142
C11   C     C_R   0.435471 0.391127 0.021073 0.059978
C12   C     C_1   0.888675 0.475947 0.474068 -0.014296
C13   C     C_R   0.470191 0.462407 0.075476 0.095998
C14   C     C_R   0.417479 0.335375 0.051645 -0.026743
C15   C     C_R   0.426968 0.356079 0.137891 -0.061100
C16   C     C_R   0.461068 0.723573 0.548182 0.809666
C17   C     C_R   0.465997 0.487616 0.160723 -0.216274
C18   C     C_R   0.556215 0.185959 0.435410 -0.029260
C19   C     C_R   0.442895 0.813234 0.567247 0.003903
C20   C     C_R   0.642634 0.046414 0.375354 -0.193643
C21   C     C_R   0.625267 0.131249 0.389338 -0.191575
C22   C     C_R   0.505539 0.155304 0.468472 -0.237632
C23   C     C_1   0.110878 0.522934 0.520739 0.070173
C24   C     C_R   0.522808 0.070199 0.457254 0.077159
C25   C     C_R   0.590427 0.013977 0.406299 0.082048
C26   C     C_R   0.476436 0.040073 0.497125 0.041093
C27   C     C_R   0.493475 0.952661 0.479421 -0.007023
C28   C     C_R   0.538107 0.276280 0.453004 0.799942
C29   C     C_R   0.545721 0.896811 0.413521 0.084224
C30   C     C_R   0.602245 0.926679 0.385471 -0.069790
C31   C     C_R   0.414209 0.094271 0.554812 -0.188517
C32   C     C_R   0.370892 0.063657 0.593898 -0.223684
C33   C     C_R   0.392217 0.979389 0.581838 0.164677
C34   C     C_1   0.813594 0.480917 0.479876 -0.119691
C35   C     C_R   0.456964 0.924055 0.527750 0.120227
C36   C     C_R   0.350957 0.950010 0.624810 -0.201030
C37   C     C_R   0.374249 0.866255 0.615072 -0.199748
C38   C     C_R   0.486661 0.843285 0.527760 -0.223747
C39   C     C_R   0.276002 0.513591 0.513067 0.803808
C40   C     C_R   0.724234 0.486501 0.486315 0.835523
C41   C     C_1   0.186241 0.519009 0.517342 -0.102377
C42   C     C_2   0.020864 0.526982 0.524612 -0.230605
C43   C     C_2   0.978436 0.469733 0.466941 0.205458
C44   C     C_R   0.389983 0.255514 0.994065 0.097602
C45   C     C_R   0.543273 0.567747 0.809096 -0.070388
C46   C     C_R   0.444773 0.193566 0.934016 -0.171336
C47   C     C_R   0.418608 0.118879 0.879228 -0.121016
C48   C     C_R   0.337894 0.105362 0.884252 -0.108773
C49   C     C_R   0.283203 0.166524 0.944068 -0.120479
C50   C     C_R   0.308982 0.241440 0.998782 -0.118635
C51   C     C_R   0.674344 0.864725 0.336863 0.137484
C52   C     C_R   0.735675 0.817420 0.373661 -0.118503
C53   C     C_R   0.802993 0.757307 0.328733 -0.102315
C54   C     C_R   0.809819 0.744075 0.246862 -0.085145
C55   C     C_R   0.749070 0.790604 0.209710 -0.123590
C56   C     C_R   0.447243 0.434662 0.191963 -0.073041
C57   C     C_R   0.680835 0.850107 0.254061 -0.130235
C58   C     C_R   0.417104 0.295942 0.171980 0.110129
C59   C     C_R   0.475831 0.219211 0.154229 -0.092798
C60   C     C_R   0.469836 0.164833 0.190212 -0.117253
C61   C     C_R   0.405269 0.186612 0.244027 -0.107169
C62   C     C_R   0.346245 0.262593 0.261573 -0.134849
C63   C     C_R   0.351963 0.317113 0.225674 -0.177828
C64   C     C_R   0.568684 0.668138 0.948826 0.164642
C65   C     C_R   0.565331 0.644506 0.863447 -0.204108
C66   C     C_R   0.519666 0.517112 0.840817 -0.198106
H1    H     H_    0.543365 0.802499 0.496661 0.159370
H2    H     H_    0.606302 0.673009 0.102867 0.204405
H3    H     H_    0.477697 0.548732 0.204033 0.186895
H4    H     H_    0.374820 0.334947 0.898957 0.185267
H5    H     H_    0.580316 0.686050 0.839671 0.187178
H6    H     H_    0.510121 0.455059 0.798498 0.186447
H7    H     H_    0.507533 0.203309 0.929666 0.143059
H8    H     H_    0.460868 0.071488 0.832849 0.143555
H9    H     H_    0.317733 0.047523 0.841777 0.128362
H10   H     H_    0.220699 0.155989 0.947876 0.140368
H11   H     H_    0.265809 0.288609 0.044477 0.138869
H12   H     H_    0.339354 0.842940 0.645209 0.134692
H13   H     H_    0.731171 0.827121 0.437167 0.131205
H14   H     H_    0.849941 0.721097 0.357453 0.141845
H15   H     H_    0.862191 0.697783 0.212192 0.143570
H16   H     H_    0.755167 0.780363 0.146491 0.171590
H17   H     H_    0.633487 0.885080 0.224350 0.166836
H18   H     H_    0.526956 0.202249 0.113645 0.133459
H19   H     H_    0.515655 0.106092 0.176888 0.146252
H20   H     H_    0.401126 0.144720 0.272284 0.144147
H21   H     H_    0.296339 0.279473 0.303356 0.153195
H22   H     H_    0.306271 0.376109 0.240243 0.139520
H23   H     H_    0.322763 0.107049 0.636498 0.156634
H24   H     H_    0.697044 0.006817 0.339673 0.152874
H25   H     H_    0.666259 0.154122 0.364441 0.167636
H26   H     H_    0.451975 0.199504 0.501809 0.160487
H27   H     H_    0.987683 0.578019 0.576430 0.147322
H28   H     H_    0.397393 0.161174 0.572192 0.157880
H29   H     H_    0.299967 0.991426 0.664827 0.139191
I1    I     I_    0.038111 0.368025 0.363692 -0.353876
I2    I     I_    0.644264 0.557512 0.190536 -0.355239
I3    I     I_    0.345392 0.440479 0.803631 -0.367294
I4    I     I_    0.516098 0.776397 0.331393 -0.358649
I5    I     I_    0.600234 0.787261 0.024383 -0.449494
O1    O     O_3   0.500000 0.500000 0.500000 -0.490925
O2    O     O_R   0.299440 0.550140 0.473730 -0.641102
O3    O     O_R   0.684420 0.431670 0.431640 -0.625503
O4    O     O_R   0.331720 0.471780 0.548240 -0.617472
O5    O     O_R   0.684420 0.546410 0.546380 -0.636686
O6    O     O_R   0.525630 0.690350 0.582790 -0.641528
O7    O     O_R   0.571070 0.303900 0.411450 -0.643010
O8    O     O_R   0.412800 0.516450 0.332470 -0.634736
O9    O     O_R   0.490500 0.489300 0.673290 -0.624383
O10   O     O_R   0.525640 0.414150 0.306600 -0.622320
O11   O     O_R   0.571060 0.580100 0.687640 -0.648329
O12   O     O_R   0.412790 0.677900 0.493930 -0.620105
O13   O     O_R   0.490510 0.327840 0.511830 -0.640428
Zn1   Zn    Zn3+2 0.569080 0.577860 0.577850 0.984856
Zn2   Zn    Zn3+2 0.407860 0.560080 0.450890 0.999562
Zn3   Zn    Zn3+2 0.453980 0.448130 0.557350 0.993715
Zn4   Zn    Zn3+2 0.569080 0.413920 0.413920 1.004051

loop_
_geom_bond_atom_site_label_1
_geom_bond_atom_site_label_2
_ccdc_geom_bond_type
C4    O9    A    
C17   H3    S    
C9    I3    S    
C63   H22   S    
C27   C29   A    
C42   H27   S    
C30   C51   S    
C39   O4    A    
C39   C41   S    
C53   C54   A    
C26   C27   A    
C29   C30   A    
C23   C42   S    
O6    Zn1   S    
C34   C40   S    
O8    Zn2   S    
C36   C37   A    
C1    C56   S    
C24   C26   A    
C12   C43   S    
C5    C6    A    
C11   C14   A    
C20   C25   A    
C28   O7    A    
C18   C21   A    
C58   C63   A    
C33   C36   A    
C46   C47   A    
O2    Zn2   S    
C19   C37   A    
O9    Zn3   S    
O4    Zn3   S    
C66   H6    S    
C61   H20   S    
C32   H23   S    
C57   H17   S    
C51   C57   A    
C52   H13   S    
C9    C10   A    
C16   O6    A    
O13   Zn3   S    
C59   C60   A    
O1    Zn1   S    
C48   H9    S    
O3    Zn4   S    
O10   Zn4   S    
C44   C46   A    
C4    C45   S    
C29   I4    S    
C51   C52   A    
O5    Zn1   S    
C7    C8    A    
C53   H14   S    
C18   C28   S    
C24   C25   A    
C3    C8    A    
C28   O13   A    
C27   C35   A    
C58   C59   A    
C3    C64   A    
C20   H24   S    
C60   C61   A    
C5    C9    A    
C62   C63   A    
C19   C38   A    
C1    O10   A    
C47   C48   A    
C64   I5    S    
C35   C38   A    
C43   I1    S    
C49   H10   S    
C59   H18   S    
C55   H16   S    
C17   C56   A    
C10   H4    S    
C48   C49   A    
C4    O11   A    
C8    H2    S    
C55   C57   A    
C45   C65   A    
O1    Zn2   S    
C15   C58   S    
C22   C24   A    
C2    C5    A    
C42   C43   D    
C12   C34   T    
C38   H1    S    
C50   H11   S    
C52   C53   A    
C16   O12   A    
C39   O2    A    
C14   C44   S    
C21   H25   S    
C44   C50   A    
C25   C30   A    
C54   C55   A    
C54   H15   S    
C7    I2    S    
C18   C22   A    
C31   C32   A    
C47   H8    S    
C2    C66   A    
C60   H19   S    
C6    C7    A    
C31   H28   S    
C62   H21   S    
C23   C41   T    
C13   C17   A    
O1    Zn4   S    
C32   C33   A    
C2    C3    A    
C65   H5    S    
C15   C56   A    
C6    C13   A    
C11   C13   A    
C36   H29   S    
C16   C19   S    
C64   C65   A    
C33   C35   A    
O11   Zn1   S    
O12   Zn2   S    
C61   C62   A    
C10   C11   A    
C1    O8    A    
C26   C31   A    
C20   C21   A    
C49   C50   A    
C45   C66   A    
O1    Zn3   S    
C22   H26   S    
C14   C15   A    
C37   H12   S    
O7    Zn4   S    
C46   H7    S    
C40   O5    A    
C40   O3    A    
