data_mof_unit_38277.cif
_audit_creation_date              2012-10-26T18:43:52-0400
_audit_creation_method            fapswitch 2.2
_symmetry_space_group_name_H-M    P1
_symmetry_Int_Tables_number       1
_space_group_crystal_system       triclinic
_cell_length_a                    9.536851
_cell_length_b                    10.858295
_cell_length_c                    17.293915
_cell_angle_alpha                 90.229779
_cell_angle_beta                  85.092629
_cell_angle_gamma                 89.974527
_cell_volume                      1784.27342505

loop_
_atom_site_label
_atom_site_type_symbol
_atom_type_description
_atom_site_fract_x
_atom_site_fract_y
_atom_site_fract_z
_atom_type_partial_charge
C1    C     C_R   0.500178 0.737320 0.499657 0.552271
C2    C     C_R   0.534738 0.495462 0.265209 0.004659
C3    C     C_R   0.378603 0.938122 0.503652 0.021020
C4    C     C_R   0.480467 0.499241 0.649990 0.543455
C5    C     C_R   0.502036 0.869915 0.497937 0.013287
C6    C     C_R   0.630443 0.935291 0.490406 -0.153117
C7    C     C_R   0.630470 0.064504 0.490297 -0.156662
C8    C     C_R   0.502084 0.130096 0.497721 0.011750
C9    C     C_R   0.378614 0.062097 0.503459 0.020669
C10   C     C_3   0.222374 0.071177 0.515484 -0.260611
C11   C     C_3   0.222386 0.929335 0.515752 -0.271879
C12   C     C_R   0.357104 0.440374 0.779189 -0.020040
C13   C     C_R   0.931735 0.406747 0.464689 0.159786
C14   C     C_R   0.919066 0.584761 0.541485 0.003552
C15   C     C_R   0.068008 0.584629 0.541597 0.002949
C16   C     C_R   0.500251 0.262690 0.499510 0.551689
C17   C     C_R   0.079218 0.407170 0.464310 0.165259
C18   C     C_3   0.096942 0.373296 0.380364 -0.282467
C19   C     C_3   0.937777 0.371017 0.381207 -0.275889
C20   C     C_R   0.519729 0.500701 0.350009 0.544627
C21   C     C_R   0.467969 0.500791 0.734849 0.002887
C22   C     C_R   0.571031 0.563889 0.772430 -0.131490
C23   C     C_R   0.450947 0.414663 0.147035 -0.119767
C24   C     C_R   0.566547 0.565031 0.852734 -0.089846
C25   C     C_R   0.460905 0.500357 0.896634 0.024582
C26   C     C_R   0.354228 0.441362 0.860050 -0.111771
C27   C     C_1   0.747937 0.630852 0.257058 0.197122
C28   C     C_1   0.706394 0.430250 0.978041 0.205472
C29   C     C_1   0.249361 0.372155 0.743616 0.219074
C30   C     C_R   0.437003 0.426360 0.227266 -0.139509
C31   C     C_R   0.648102 0.553409 0.221482 -0.022191
C32   C     C_R   0.661844 0.540314 0.140957 -0.110967
C33   C     C_R   0.563068 0.471926 0.103579 0.014334
C34   C     C_2   0.459466 0.495225 0.981303 -0.146079
C35   C     C_2   0.573297 0.466479 0.018649 -0.020709
Cu1   Cu    Cu3+1 0.359330 0.500020 0.500000 0.962562
Cu2   Cu    Cu3+1 0.640670 0.499980 0.500000 0.962402
H1    H     H_    0.655038 0.613004 0.739545 0.125744
H2    H     H_    0.894691 0.277206 0.373014 0.123075
H3    H     H_    0.271327 0.393154 0.894544 0.123796
H4    H     H_    0.374535 0.360577 0.118780 0.117182
H5    H     H_    0.646111 0.615842 0.880590 0.127785
H6    H     H_    0.730468 0.887379 0.485047 0.141512
H7    H     H_    0.175507 0.111434 0.464649 0.132982
H8    H     H_    0.858158 0.654813 0.573851 0.110823
H9    H     H_    0.351162 0.379327 0.259806 0.116841
H10   H     H_    0.896157 0.443370 0.344154 0.174514
H11   H     H_    0.359773 0.514835 0.014392 0.121276
H12   H     H_    0.747168 0.586326 0.107032 0.120576
H13   H     H_    0.730512 0.112253 0.484867 0.135956
H14   H     H_    0.186404 0.112678 0.572631 0.165938
H15   H     H_    0.186524 0.889347 0.573121 0.132615
H16   H     H_    0.175579 0.887623 0.465097 0.147698
H17   H     H_    0.118814 0.654376 0.574163 0.111157
H18   H     H_    0.145171 0.448354 0.343605 0.160216
H19   H     H_    0.146158 0.281216 0.370370 0.116636
N1    N     N_R   0.852130 0.499070 0.499500 -0.227686
N2    N     N_R   0.148040 0.499110 0.499500 -0.228137
N3    N     N_1   0.827828 0.692941 0.285543 -0.304573
N4    N     N_1   0.812663 0.401267 0.945749 -0.298233
N5    N     N_1   0.163088 0.317497 0.715107 -0.291513
O1    O     O_R   0.381190 0.680360 0.500000 -0.507947
O2    O     O_R   0.618770 0.680320 0.499990 -0.511518
O3    O     O_R   0.367430 0.500040 0.613600 -0.492008
O4    O     O_R   0.605020 0.500000 0.613590 -0.503632
O5    O     O_R   0.381230 0.319680 0.500010 -0.496665
O6    O     O_R   0.618810 0.319640 0.500000 -0.508185
O7    O     O_R   0.394980 0.500000 0.386410 -0.510361
O8    O     O_R   0.632570 0.499960 0.386400 -0.496281

loop_
_geom_bond_atom_site_label_1
_geom_bond_atom_site_label_2
_ccdc_geom_bond_type
C24   C25   A    
Cu1   O7    S    
C6    C7    A    
C3    C9    A    
Cu2   O8    S    
C12   C29   S    
C24   H5    S    
C9    C10   S    
C4    O3    A    
Cu1   O5    S    
C31   C32   A    
C23   H4    S    
C13   C17   A    
C17   N2    A    
C2    C30   A    
C32   C33   A    
C3    C5    A    
C17   C18   S    
C7    C8    A    
C8    C16   S    
C16   O6    A    
C27   N3    T    
C21   C22   A    
C1    O1    A    
C4    C21   S    
C18   H19   S    
C26   H3    S    
C4    O4    A    
C16   O5    A    
C19   H2    S    
C18   H18   S    
Cu1   O1    S    
C10   H14   S    
C1    O2    A    
C22   C24   A    
Cu2   O4    S    
Cu1   Cu2   S    
C33   C35   S    
C30   H9    S    
C34   C35   D    
C14   H8    S    
Cu1   N2    S    
C6    H6    S    
C28   N4    T    
C27   C31   S    
C5    C6    A    
C32   H12   S    
C15   N2    A    
C29   N5    T    
C20   O8    A    
C3    C11   S    
C10   C11   S    
C13   C19   S    
C2    C20   S    
C22   H1    S    
C15   H17   S    
Cu2   O6    S    
C1    C5    S    
C25   C34   S    
C13   N1    A    
C23   C30   A    
C28   C35   S    
C23   C33   A    
C18   C19   S    
C19   H10   S    
C14   N1    A    
C14   C15   A    
C8    C9    A    
C11   H15   S    
Cu2   O2    S    
C25   C26   A    
Cu1   O3    S    
C10   H7    S    
C12   C21   A    
C20   O7    A    
Cu2   N1    S    
C7    H13   S    
C12   C26   A    
C2    C31   A    
C34   H11   S    
C11   H16   S    
