data_mof_unit_65053.cif
_audit_creation_date              2012-12-10T17:28:56-0500
_audit_creation_method            fapswitch 2.2
_symmetry_space_group_name_H-M    P1
_symmetry_Int_Tables_number       1
_space_group_crystal_system       triclinic
_cell_length_a                    18.617465
_cell_length_b                    18.645935
_cell_length_c                    18.666143
_cell_angle_alpha                 109.246454
_cell_angle_beta                  109.306254
_cell_angle_gamma                 109.40646
_cell_volume                      5015.90205093

loop_
_atom_site_label
_atom_site_type_symbol
_atom_type_description
_atom_site_fract_x
_atom_site_fract_y
_atom_site_fract_z
_atom_type_partial_charge
C1    C     C_R   0.619069 0.498833 0.619741 0.767567
C2    C     C_R   0.381153 0.501205 0.380143 0.767798
C3    C     C_3   0.334297 0.237729 0.500576 -0.393696
C4    C     C_3   0.666696 0.763328 0.501367 -0.387173
C5    C     C_3   0.312465 0.311405 0.501851 -0.009708
C6    C     C_3   0.687409 0.688602 0.498056 -0.024841
C7    C     C_3   0.188987 0.188882 0.499441 -0.068141
C8    C     C_3   0.810967 0.811018 0.500439 -0.091684
C9    C     C_3   0.150322 0.201915 0.419619 0.406791
C10   C     C_3   0.849869 0.796669 0.579229 0.414230
C11   C     C_3   0.259727 0.163815 0.495061 -0.432661
C12   C     C_3   0.741293 0.837065 0.506712 -0.429237
C13   C     C_3   0.774528 0.586861 0.734530 -0.404467
C14   C     C_3   0.313804 0.463164 0.223864 -0.379651
C15   C     C_3   0.847518 0.592636 0.810630 0.320799
C16   C     C_3   0.247795 0.468676 0.152354 0.284643
C17   C     C_3   0.661106 0.491832 0.757179 -0.361633
C18   C     C_3   0.327362 0.595229 0.337047 -0.355467
C19   C     C_3   0.706047 0.423489 0.651563 -0.356130
C20   C     C_3   0.221617 0.443154 0.295486 -0.412237
C21   C     C_3   0.688556 0.499646 0.688931 0.047880
C22   C     C_3   0.312592 0.501135 0.310868 0.058750
C23   C     C_R   0.381547 0.380189 0.501732 0.794582
C24   C     C_R   0.618338 0.619815 0.498170 0.799110
C25   C     C_3   0.811901 0.505561 0.815082 -0.030526
C26   C     C_3   0.191253 0.499973 0.187409 -0.025757
C27   C     C_3   0.731586 0.491179 0.828864 -0.273569
C28   C     C_3   0.251193 0.593017 0.268267 -0.316601
C29   C     C_3   0.779817 0.428263 0.725421 -0.457021
C30   C     C_3   0.150063 0.437576 0.219055 -0.395758
C31   C     C_3   0.003889 0.310335 0.815166 -0.351437
C32   C     C_3   0.996882 0.687288 0.188413 -0.328089
C33   C     C_R   0.000407 0.120655 0.619756 0.847070
C34   C     C_R   0.999376 0.879402 0.380138 0.923763
C35   C     C_R   0.119913 0.119384 0.499115 0.792362
C36   C     C_R   0.880081 0.880502 0.500775 0.790969
C37   C     C_R   0.999063 0.619784 0.119647 0.891433
C38   C     C_R   0.003507 0.379895 0.883572 0.942461
C39   C     C_R   0.880207 0.503757 0.883413 0.799752
C40   C     C_R   0.120438 0.499043 0.118952 0.791307
C41   C     C_3   0.939144 0.222857 0.650502 0.354611
C42   C     C_3   0.081919 0.849905 0.304288 0.263141
C43   C     C_3   0.967821 0.150510 0.740954 -0.395095
C44   C     C_3   0.917094 0.770209 0.221099 -0.387210
C45   C     C_3   0.096178 0.341229 0.823146 0.490917
C46   C     C_3   0.003792 0.668091 0.265013 0.476605
C47   C     C_3   0.970132 0.220872 0.815936 0.258662
C48   C     C_3   0.912196 0.694557 0.149206 0.159472
C49   C     C_3   0.939722 0.292425 0.724575 0.172890
C50   C     C_3   0.078186 0.779197 0.228593 0.265074
C51   C     C_3   0.000300 0.189252 0.688972 -0.304227
C52   C     C_3   0.998801 0.810267 0.311076 -0.266872
C53   C     C_3   0.095032 0.268429 0.751872 0.409319
C54   C     C_3   0.997286 0.736460 0.333193 0.382037
C55   C     C_3   0.303353 0.349515 0.584144 -0.374507
C56   C     C_3   0.695052 0.650833 0.414754 -0.374067
C57   C     C_3   0.233236 0.276756 0.584542 0.492422
C58   C     C_3   0.765357 0.723533 0.414497 0.508659
C59   C     C_3   0.223867 0.271444 0.419508 -0.441397
C60   C     C_3   0.776357 0.727098 0.579331 -0.431643
Cu1   Cu    Cu3+1 0.499950 0.562450 0.562440 0.977808
Cu2   Cu    Cu3+1 0.500050 0.437550 0.437560 0.990430
Cu3   Cu    Cu3+1 0.062480 0.999960 0.562430 1.111759
Cu4   Cu    Cu3+1 0.937520 0.000040 0.437570 1.103603
Cu5   Cu    Cu3+1 0.062470 0.562430 0.999950 1.160405
Cu6   Cu    Cu3+1 0.937530 0.437570 0.000050 1.122954
H1    H     H_    0.343307 0.209938 0.443651 0.207628
H2    H     H_    0.658839 0.791008 0.559141 0.201907
H3    H     H_    0.396809 0.264852 0.560636 0.186454
H4    H     H_    0.603866 0.737249 0.442137 0.193955
H5    H     H_    0.287818 0.151544 0.549443 0.250461
H6    H     H_    0.713049 0.850185 0.453063 0.259814
H7    H     H_    0.229493 0.102274 0.432974 0.203326
H8    H     H_    0.772529 0.898369 0.569362 0.160609
H9    H     H_    0.227819 0.240752 0.359719 0.162700
H10   H     H_    0.773393 0.757384 0.639858 0.165391
H11   H     H_    0.116757 0.138992 0.357927 0.143418
H12   H     H_    0.884243 0.859224 0.641500 0.121053
H13   H     H_    0.762247 0.642379 0.757746 0.229416
H14   H     H_    0.381817 0.498620 0.236531 0.214882
H15   H     H_    0.795993 0.591839 0.686470 0.137035
H16   H     H_    0.296386 0.393354 0.200351 0.179022
H17   H     H_    0.901937 0.598770 0.796052 0.122062
H18   H     H_    0.202905 0.401707 0.095241 0.169854
H19   H     H_    0.651626 0.547639 0.787918 0.232748
H20   H     H_    0.390467 0.636556 0.343237 0.200530
H21   H     H_    0.751392 0.542193 0.893918 0.267309
H22   H     H_    0.277224 0.643008 0.250285 0.249759
H23   H     H_    0.645246 0.359653 0.618790 0.188049
H24   H     H_    0.217279 0.471064 0.355604 0.195567
H25   H     H_    0.725383 0.426860 0.601849 0.202566
H26   H     H_    0.210884 0.376281 0.280436 0.175684
H27   H     H_    0.835331 0.436431 0.712259 0.220044
H28   H     H_    0.109447 0.368899 0.164495 0.225432
H29   H     H_    0.755222 0.365309 0.725902 0.199648
H30   H     H_    0.106241 0.454892 0.240689 0.210659
H31   H     H_    0.597494 0.430781 0.724576 0.157143
H32   H     H_    0.331567 0.626150 0.401540 0.187100
H33   H     H_    0.702669 0.427247 0.826650 0.198912
H34   H     H_    0.212187 0.611332 0.297283 0.165761
H35   H     H_    0.872494 0.268700 0.715968 0.171524
H36   H     H_    0.073648 0.797864 0.177076 0.220125
H37   H     H_    0.119083 0.294885 0.713895 0.033826
H38   H     H_    0.054035 0.764551 0.398591 0.069222
H39   H     H_    0.962372 0.252014 0.613748 0.160025
H40   H     H_    0.140904 0.874789 0.366788 0.149557
H41   H     H_    0.115369 0.399563 0.814236 0.120425
H42   H     H_    0.068479 0.672602 0.297194 0.057783
H43   H     H_    0.008354 0.122905 0.766075 0.265988
H44   H     H_    0.857334 0.748346 0.227523 0.249818
H45   H     H_    0.899670 0.094534 0.696722 0.178405
H46   H     H_    0.919644 0.821259 0.201993 0.211703
H47   H     H_    0.901417 0.198131 0.802757 0.122217
H48   H     H_    0.912938 0.712168 0.098077 0.148080
H49   H     H_    0.284265 0.400273 0.585022 0.164432
H50   H     H_    0.713197 0.599219 0.412269 0.178092
H51   H     H_    0.367499 0.381758 0.644288 0.211928
H52   H     H_    0.630617 0.619736 0.355336 0.219600
H53   H     H_    0.183122 0.294909 0.589427 0.109903
H54   H     H_    0.814680 0.704631 0.408424 0.184678
H55   H     H_    0.208533 0.323797 0.417292 0.203380
H56   H     H_    0.790999 0.674000 0.580001 0.207700
O1    O     O_R   0.591120 0.552750 0.643890 -0.581342
O2    O     O_R   0.408880 0.447250 0.356110 -0.582667
O3    O     O_R   0.947240 0.538460 0.091150 -0.491150
O4    O     O_R   0.052760 0.461540 0.908850 -0.532308
O5    O     O_R   0.961590 0.552710 0.908800 -0.557022
O6    O     O_R   0.038410 0.447290 0.091200 -0.568725
O7    O     O_R   0.856080 0.447270 0.908890 -0.583054
O8    O     O_R   0.143920 0.552730 0.091110 -0.535555
O9    O     O_R   0.591210 0.447270 0.538420 -0.585733
O10   O     O_R   0.408790 0.552730 0.461580 -0.588899
O11   O     O_R   0.408810 0.461590 0.552740 -0.585848
O12   O     O_R   0.591190 0.538410 0.447260 -0.580821
O13   O     O_R   0.408900 0.356100 0.447280 -0.583480
O14   O     O_R   0.591100 0.643900 0.552720 -0.585470
O15   O     O_R   0.052750 0.091090 0.643890 -0.524234
O16   O     O_R   0.947250 0.908910 0.356110 -0.569993
O17   O     O_R   0.947230 0.091150 0.538450 -0.549063
O18   O     O_R   0.052770 0.908850 0.461550 -0.610373
O19   O     O_R   0.143910 0.091120 0.552710 -0.543303
O20   O     O_R   0.856090 0.908880 0.447290 -0.543070
O21   O     O_R   0.038380 0.091180 0.447270 -0.551478
O22   O     O_R   0.961620 0.908820 0.552730 -0.549619
O23   O     O_R   0.052740 0.643910 0.091070 -0.541840
O24   O     O_R   0.947260 0.356090 0.908930 -0.591976
F1    F     F_    0.159132 0.366753 0.905260 -0.518972
F2    F     F_    0.941060 0.584247 0.236467 -0.533400
S1    S     S_3+6 0.892176 0.692946 0.909784 -0.017674
O25   O     O_2   0.963718 0.702071 0.985577 -0.314595
O26   O     O_2   0.930131 0.768372 0.895499 -0.254751
O27   O     O_3   0.813353 0.697154 0.933193 -0.546200
H57   H     H_    0.842829 0.755305 0.985410 0.382708
S2    S     S_3+6 0.307432 0.532090 0.114753 0.059807
O28   O     O_2   0.358071 0.491277 0.087696 -0.208747
O29   O     O_2   0.247518 0.531489 0.037250 -0.198656
O30   O     O_3   0.378954 0.636024 0.195080 -0.566237
H58   H     H_    0.413779 0.662490 0.171366 0.390931
F3    F     F_    0.151979 0.242900 0.790493 -0.510274
F4    F     F_    0.921809 0.697266 0.336716 -0.573340
F5    F     F_    0.853880 0.154386 0.592672 -0.633219
F6    F     F_    0.089142 0.920108 0.290485 -0.669106
F7    F     F_    0.962833 0.368586 0.719245 -0.673638
F8    F     F_    0.155597 0.776512 0.259215 -0.663395
S3    S     S_3+6 0.027407 0.223488 0.917053 0.038886
O31   O     O_2   0.116681 0.235943 0.934443 -0.166086
O32   O     O_2   0.036017 0.294395 0.992653 -0.328182
O33   O     O_3   0.968222 0.126759 0.907183 -0.527409
H59   H     H_    0.001950 0.130840 0.963406 0.380918
S4    S     S_3+6 0.805583 0.598119 0.095719 0.091924
O34   O     O_2   0.788835 0.574279 0.160331 -0.125852
O35   O     O_2   0.794972 0.520356 0.025468 -0.246925
O36   O     O_3   0.729057 0.621398 0.048251 -0.509002
H60   H     H_    0.715091 0.647660 0.093598 0.368951
F9    F     F_    0.271730 0.269341 0.657347 -0.617322
F10   F     F_    0.726788 0.732106 0.342541 -0.629293
F11   F     F_    0.089014 0.227939 0.421898 -0.645340
F12   F     F_    0.910389 0.769951 0.575308 -0.625328

loop_
_geom_bond_atom_site_label_1
_geom_bond_atom_site_label_2
_ccdc_geom_bond_type
C59   H55   S    
C44   C48   S    
C13   H13   S    
C1    C21   S    
S3    O31   D    
C41   F5    S    
Cu3   O15   S    
Cu3   O18   S    
C9    C59   S    
C42   C50   S    
C3    C11   S    
C26   C40   S    
Cu2   O2    S    
Cu5   O8    S    
C10   H12   S    
Cu1   O11   S    
Cu4   O16   S    
O36   H60   S    
Cu3   O19   S    
C7    C11   S    
C20   H26   S    
C27   H33   S    
O30   H58   S    
C41   H39   S    
C17   H19   S    
Cu5   O5    S    
C54   H38   S    
C3    H3    S    
C33   O17   A    
C12   H8    S    
S1    O26   D    
C49   H35   S    
C47   S3    S    
C11   H5    S    
C15   C25   S    
S4    O34   D    
C40   O6    A    
C13   H15   S    
C16   H18   S    
C47   H47   S    
C8    C36   S    
C41   C49   S    
C36   O20   A    
C38   O24   A    
C30   H30   S    
C34   C52   S    
Cu1   O10   S    
C8    C58   S    
C57   F9    S    
C46   F2    S    
S4    O35   D    
C33   O15   A    
C46   H42   S    
C2    C22   S    
C2    O10   A    
Cu3   O22   S    
C14   H14   S    
C4    C12   S    
C43   C47   S    
S2    O29   D    
C57   H53   S    
Cu6   O7    S    
C24   O14   A    
C12   H6    S    
C45   C53   S    
S3    O32   D    
C45   F1    S    
C16   C26   S    
C32   C48   S    
C54   F4    S    
C43   H45   S    
C31   C49   S    
C4    H4    S    
C38   O4    A    
C52   C54   S    
C37   O3    A    
C25   C29   S    
C3    H1    S    
C53   F3    S    
C39   O5    A    
C23   O11   A    
C50   F8    S    
C10   F12   S    
C6    C60   S    
C7    C35   S    
C18   C28   S    
S2    O30   S    
C4    C6    S    
C11   H7    S    
S1    O27   S    
C4    H2    S    
C5    C59   S    
C20   C30   S    
C39   O7    A    
C3    C5    S    
C20   H24   S    
C34   O16   A    
C17   C21   S    
Cu4   O17   S    
C51   C53   S    
C17   C27   S    
Cu2   O13   S    
C10   C60   S    
C1    O1    A    
C28   H22   S    
C19   H23   S    
C5    C23   S    
C8    C12   S    
C6    C24   S    
C46   C54   S    
C58   H54   S    
C56   H50   S    
C13   C21   S    
C9    H11   S    
C32   C37   S    
C27   H21   S    
C42   H40   S    
C28   H34   S    
C32   C50   S    
S2    O28   D    
C35   O19   A    
C48   S4    S    
C44   H46   S    
O33   H59   S    
C20   C22   S    
C50   H36   S    
S3    O33   S    
C60   H10   S    
C13   C15   S    
C16   S2    S    
C14   C22   S    
C14   C16   S    
C33   C51   S    
C14   H16   S    
Cu5   O23   S    
C19   C29   S    
C59   H9    S    
C15   S1    S    
Cu6   O24   S    
C9    F11   S    
C48   H48   S    
C55   H51   S    
C24   O12   A    
C7    C9    S    
C40   O8    A    
C19   C21   S    
C18   C22   S    
C32   C46   S    
Cu2   O9    S    
C5    C55   S    
C58   F10   S    
C6    C56   S    
C1    O9    A    
C44   C52   S    
C15   H17   S    
C42   F6    S    
C31   C38   S    
C26   C30   S    
Cu4   O21   S    
C2    O2    A    
C25   C27   S    
C43   H43   S    
C26   C28   S    
Cu6   O3    S    
C23   O13   A    
Cu1   O1    S    
Cu5   O4    S    
Cu2   O12   S    
C55   C57   S    
C36   O22   A    
C30   H28   S    
S1    O25   D    
C25   C39   S    
C29   H27   S    
C55   H49   S    
C43   C51   S    
C18   H20   S    
Cu4   O20   S    
C53   H37   S    
C34   O18   A    
C56   C58   S    
Cu1   Cu2   S    
C7    C57   S    
C49   F7    S    
C19   H25   S    
C29   H29   S    
Cu3   Cu4   S    
C60   H56   S    
C56   H52   S    
O27   H57   S    
C8    C10   S    
Cu5   Cu6   S    
C31   C45   S    
C42   C52   S    
C31   C47   S    
C18   H32   S    
C37   O23   A    
Cu6   O6    S    
C17   H31   S    
C41   C51   S    
C45   H41   S    
Cu1   O14   S    
C35   O21   A    
S4    O36   S    
C44   H44   S    
