data_mof_unit_14250.cif
_audit_creation_date              2012-12-11T14:50:34-0500
_audit_creation_method            fapswitch 2.2
_symmetry_space_group_name_H-M    P1
_symmetry_Int_Tables_number       1
_space_group_crystal_system       triclinic
_cell_length_a                    11.132648
_cell_length_b                    11.183297
_cell_length_c                    18.927685
_cell_angle_alpha                 89.797872
_cell_angle_beta                  89.470069
_cell_angle_gamma                 60.395108
_cell_volume                      2048.76872195

loop_
_atom_site_label
_atom_site_type_symbol
_atom_type_description
_atom_site_fract_x
_atom_site_fract_y
_atom_site_fract_z
_atom_type_partial_charge
C1    C     C_R   0.234431 0.648195 0.608479 0.609820
C2    C     C_3   0.630377 0.581607 0.801806 0.158703
C3    C     C_3   0.697349 0.675526 0.810791 0.101712
C4    C     C_3   0.675435 0.644938 0.673537 0.017601
C5    C     C_3   0.827053 0.617801 0.685839 0.308225
C6    C     C_3   0.648932 0.542071 0.721110 0.049681
C7    C     C_R   0.771572 0.181070 0.711677 -0.096396
C8    C     C_R   0.785712 0.164870 0.785492 0.055552
C9    C     C_R   0.676274 0.170034 0.826425 0.065812
C10   C     C_R   0.548041 0.210444 0.792309 0.265717
C11   C     C_R   0.538271 0.223721 0.720367 -0.006582
C12   C     C_R   0.654709 0.620804 0.599528 0.592071
C13   C     C_R   0.650841 0.201423 0.678874 0.045493
C14   C     C_R   0.211212 0.555496 0.721879 -0.085012
C15   C     C_R   0.201431 0.559803 0.795590 0.074414
C16   C     C_R   0.175543 0.680058 0.832483 0.028977
C17   C     C_R   0.169410 0.790919 0.793034 0.208120
C18   C     C_R   0.165985 0.789860 0.719223 0.097134
C19   C     C_R   0.190670 0.669201 0.683084 0.018242
C20   C     C_R   0.721147 0.529611 0.269638 0.181468
C21   C     C_R   0.706631 0.548573 0.197092 0.087039
C22   C     C_R   0.650940 0.680572 0.169402 0.085147
C23   C     C_R   0.624462 0.234686 0.604050 0.581203
C24   C     C_R   0.584777 0.797505 0.214648 0.115700
C25   C     C_R   0.592744 0.779155 0.288730 0.068400
C26   C     C_R   0.657193 0.644358 0.316334 -0.003476
C27   C     C_R   0.515552 0.237488 0.278937 -0.145172
C28   C     C_R   0.530429 0.215295 0.207105 -0.176251
C29   C     C_R   0.662176 0.151016 0.177087 0.023626
C30   C     C_R   0.779950 0.113808 0.220515 0.230775
C31   C     C_R   0.763872 0.128034 0.292783 -0.058783
C32   C     C_R   0.632824 0.192590 0.321794 -0.006503
C33   C     C_R   0.260564 0.704400 0.279625 -0.075965
C34   C     C_R   0.230614 0.645931 0.399576 0.537644
C35   C     C_R   0.239559 0.705997 0.207945 0.223489
C36   C     C_R   0.148633 0.664074 0.182408 0.072922
C37   C     C_R   0.093843 0.602247 0.228575 0.037166
C38   C     C_R   0.117977 0.599551 0.300831 -0.140351
C39   C     C_R   0.195223 0.656601 0.326193 -0.024459
C40   C     C_R   0.700185 0.104399 0.897024 0.588891
C41   C     C_R   0.721933 0.688474 0.888538 0.583686
C42   C     C_R   0.117232 0.708429 0.905383 0.570865
C43   C     C_R   0.678149 0.102119 0.104827 0.556629
C44   C     C_R   0.695865 0.692816 0.097864 0.611841
C45   C     C_R   0.641577 0.618614 0.391197 0.541435
C46   C     C_R   0.090448 0.709619 0.112675 0.608353
C47   C     C_R   0.613134 0.234751 0.394406 0.543712
C48   C     C_3   0.596587 0.819580 0.773666 0.284830
C49   C     C_3   0.567794 0.795416 0.696009 0.001378
C50   C     C_3   0.845160 0.609196 0.769538 0.346872
Cr1   Cr    Cr6+3 0.392930 0.397900 0.502230 1.074701
Cr2   Cr    Cr6+3 0.398240 0.708600 0.501260 1.062921
Cr3   Cr    Cr6+3 0.708800 0.393470 0.496460 1.128706
Cr4   Cr    Cr6+3 0.937620 0.938540 0.007640 1.163979
Cr5   Cr    Cr6+3 0.625150 0.937450 0.994520 1.113262
Cr6   Cr    Cr6+3 0.937990 0.625080 0.001190 1.076078
H1    H     H_    0.740831 0.438676 0.714702 0.225442
H2    H     H_    0.852401 0.181849 0.679937 0.145063
H3    H     H_    0.441436 0.245556 0.696548 0.166823
H4    H     H_    0.233712 0.461922 0.694377 0.185286
H5    H     H_    0.411703 0.291919 0.300700 0.165800
H6    H     H_    0.439257 0.246341 0.175302 0.153009
H7    H     H_    0.853236 0.097118 0.326081 0.192601
H8    H     H_    0.330395 0.738163 0.298862 0.177986
H9    H     H_    0.464521 0.803180 0.693285 0.155896
H10   H     H_    0.075522 0.554830 0.337315 0.148853
O1    O     O_R   0.507430 0.255570 0.581420 -0.518887
O2    O     O_R   0.524460 0.695920 0.424060 -0.517250
O3    O     O_R   0.736530 0.504260 0.414810 -0.445550
O4    O     O_R   0.691460 0.277160 0.422180 -0.469566
O5    O     O_3   0.499990 0.499990 0.499980 -0.274966
O6    O     O_R   0.089490 0.825610 0.930610 -0.420289
O7    O     O_R   0.818370 0.054540 0.929880 -0.486146
O8    O     O_R   0.605870 0.077310 0.915530 -0.429216
O9    O     O_R   0.646440 0.806700 0.917570 -0.489890
O10   O     O_R   0.837200 0.593290 0.915250 -0.473378
O11   O     O_R   0.065330 0.635370 0.931590 -0.527103
O12   O     O_R   0.280190 0.527390 0.578910 -0.482483
O13   O     O_R   0.068300 0.828790 0.091860 -0.405156
O14   O     O_R   0.798730 0.057480 0.079370 -0.461639
O15   O     O_R   0.584680 0.080480 0.076790 -0.506466
O16   O     O_R   0.626790 0.809640 0.067050 -0.481505
O17   O     O_R   0.816010 0.596460 0.076500 -0.484572
O18   O     O_R   0.045680 0.638310 0.081070 -0.504915
O19   O     O_3   0.833590 0.833690 0.001120 -0.323094
O20   O     O_R   0.260310 0.739740 0.584580 -0.460617
O21   O     O_R   0.532250 0.695150 0.573830 -0.506637
O22   O     O_R   0.744930 0.503430 0.576380 -0.445565
O23   O     O_R   0.699250 0.276390 0.571950 -0.486014
O24   O     O_R   0.499020 0.256400 0.419850 -0.526775
O25   O     O_R   0.272400 0.528160 0.429140 -0.508323
O26   O     O_R   0.251910 0.740570 0.423020 -0.508453
Cl1   Cl    Cl    0.679462 0.918923 0.773192 -0.647985
Cl2   Cl    Cl    0.944720 0.429127 0.794779 -0.590033
Cl3   Cl    Cl    0.967014 0.462268 0.644671 -0.575722
N1    N     N_3   0.909836 0.143683 0.818450 -0.511517
H11   H     H_    0.884645 0.212238 0.860522 0.291979
H12   H     H_    0.966770 0.168348 0.783012 0.299291
Cl4   Cl    Cl    0.413395 0.189675 0.827631 -0.601584
N2    N     N_3   0.204137 0.445594 0.830699 -0.499685
H13   H     H_    0.116927 0.470165 0.860118 0.330320
H14   H     H_    0.194556 0.384772 0.791984 0.316527
Cl5   Cl    Cl    0.187008 0.924410 0.833385 -0.569547
N3    N     N_3   0.461573 0.898453 0.809329 -0.525550
H15   H     H_    0.392422 0.977249 0.776359 0.286753
H16   H     H_    0.463994 0.945935 0.855722 0.352839
N4    N     N_3   0.142024 0.910384 0.680759 -0.565483
H17   H     H_    0.220650 0.932806 0.691498 0.264916
H18   H     H_    0.048737 0.991865 0.698046 0.253641
Cl6   Cl    Cl    0.838417 0.360204 0.297556 -0.594035
N5    N     N_3   0.753611 0.433009 0.150063 -0.562523
H19   H     H_    0.860073 0.368849 0.155746 0.307276
H20   H     H_    0.702791 0.378718 0.163556 0.265174
N6    N     N_3   0.513445 0.934022 0.184925 -0.564534
H21   H     H_    0.435392 0.939958 0.152442 0.297878
H22   H     H_    0.460061 0.008925 0.223265 0.256916
N7    N     N_3   0.545837 0.897626 0.334270 -0.595795
H23   H     H_    0.575807 0.869917 0.386481 0.239196
H24   H     H_    0.600110 0.947922 0.319336 0.228271
Cl7   Cl    Cl    0.949779 0.058565 0.190306 -0.514732
Cl8   Cl    Cl    0.328752 0.760710 0.151191 -0.598839
N8    N     N_3   0.010315 0.547143 0.202658 -0.584270
H25   H     H_    0.075938 0.456837 0.175117 0.256096
H26   H     H_    0.969801 0.517397 0.244753 0.256044
N9    N     N_3   0.561548 0.903503 0.648256 -0.562365
H27   H     H_    0.528152 0.897389 0.597921 0.236369
H28   H     H_    0.485043 0.999144 0.667083 0.262632
N10   N     N_3   0.928001 0.671656 0.792189 -0.569594
H29   H     H_    0.937203 0.737820 0.756999 0.263245
H30   H     H_    0.895233 0.728487 0.838506 0.260704
N11   N     N_3   0.839216 0.731111 0.652495 -0.538254
H31   H     H_    0.806912 0.741827 0.600016 0.245270
H32   H     H_    0.942919 0.704251 0.647129 0.239595
N12   N     N_3   0.699282 0.457369 0.845407 -0.565495
H33   H     H_    0.647702 0.402825 0.837555 0.226049
H34   H     H_    0.682552 0.483374 0.898996 0.259358
N13   N     N_3   0.484504 0.655495 0.824825 -0.552547
H35   H     H_    0.450187 0.587555 0.840249 0.257587
H36   H     H_    0.422601 0.709708 0.782816 0.292000
Cl9   Cl    Cl    0.512091 0.517567 0.690501 -0.709182

loop_
_geom_bond_atom_site_label_1
_geom_bond_atom_site_label_2
_ccdc_geom_bond_type
C24   N6    S    
Cr6   O10   S    
C35   C36   A    
C8    N1    S    
C15   N2    S    
C44   O17   A    
Cr3   O3    S    
N10   H29   S    
Cr1   O1    S    
N3    H16   S    
N6    H21   S    
C7    C8    A    
N13   H36   S    
C29   C30   A    
C49   H9    S    
C36   C37   A    
C44   O16   A    
N7    H24   S    
Cr1   O24   S    
C38   C39   A    
C15   C16   A    
C48   N3    S    
C3    C48   S    
C40   O7    A    
C13   C23   S    
C18   C19   A    
C23   O1    A    
C34   O25   A    
C27   H5    S    
C26   C45   S    
C5    Cl3   S    
C18   N4    S    
Cr5   O8    S    
C22   C44   S    
N5    H19   S    
C8    C9    A    
N1    H12   S    
N4    H17   S    
C23   O23   A    
C36   C46   S    
Cr5   O15   S    
C9    C10   A    
C7    H2    S    
Cr2   O2    S    
Cr5   O9    S    
C21   C22   A    
C29   C43   S    
Cr1   O25   S    
C1    O12   A    
N4    H18   S    
C6    H1    S    
C30   Cl7   S    
C2    C6    S    
Cr1   O5    S    
C11   H3    S    
Cr3   O4    S    
N2    H14   S    
N3    H15   S    
C21   N5    S    
C3    C50   S    
Cr6   O18   S    
Cr4   O14   S    
C1    C19   S    
C48   Cl1   S    
C12   O22   A    
C45   O3    A    
C34   C39   S    
C31   H7    S    
C35   Cl8   S    
C24   C25   A    
C4    C6    S    
C16   C17   A    
N12   H34   S    
C43   O14   A    
C9    C40   S    
Cr6   O11   S    
C25   N7    S    
Cr5   O19   S    
C47   O4    A    
C37   C38   A    
C41   O9    A    
Cr4   O7    S    
C31   C32   A    
C7    C13   A    
C30   C31   A    
N1    H11   S    
C45   O2    A    
C42   O6    A    
C17   C18   A    
N5    H20   S    
C33   C39   A    
Cr5   O16   S    
C20   Cl6   S    
C48   C49   S    
C6    Cl9   S    
Cr3   O23   S    
N9    H27   S    
C43   O15   A    
C32   C47   S    
C22   C24   A    
C5    C50   S    
Cr2   O26   S    
C50   N10   S    
N8    H26   S    
N11   H31   S    
Cr3   O5    S    
C16   C42   S    
C14   H4    S    
Cr6   O17   S    
Cr4   O13   S    
C1    O20   A    
C38   H10   S    
C28   C29   A    
C12   O21   A    
C27   C32   A    
C2    N13   S    
C14   C19   A    
Cr2   O21   S    
C50   Cl2   S    
C4    C5    S    
N11   H32   S    
N10   H30   S    
Cr4   O19   S    
N6    H22   S    
C2    N12   S    
N12   H33   S    
C49   N9    S    
N13   H35   S    
C4    C49   S    
Cr2   O20   S    
C2    C3    S    
C25   C26   A    
Cr1   O12   S    
Cr2   O5    S    
N7    H23   S    
C41   O10   A    
C11   C13   A    
Cr6   O19   S    
C46   O13   A    
C20   C26   A    
C33   H8    S    
N2    H13   S    
C33   C35   A    
C40   O8    A    
C46   O18   A    
Cr3   O22   S    
C17   Cl5   S    
C10   Cl4   S    
C34   O26   A    
C47   O24   A    
C3    C41   S    
C10   C11   A    
C37   N8    S    
C5    N11   S    
Cr4   O6    S    
C20   C21   A    
C42   O11   A    
C27   C28   A    
N9    H28   S    
C14   C15   A    
N8    H25   S    
C4    C12   S    
C28   H6    S    
