data_mof_unit_24007.cif
_audit_creation_date              2012-12-11T15:27:44-0500
_audit_creation_method            fapswitch 2.2
_symmetry_space_group_name_H-M    P1
_symmetry_Int_Tables_number       1
_space_group_crystal_system       triclinic
_cell_length_a                    23.160367
_cell_length_b                    7.293948
_cell_length_c                    15.149718
_cell_angle_alpha                 90.843479
_cell_angle_beta                  107.984258
_cell_angle_gamma                 88.896427
_cell_volume                      2433.65311469

loop_
_atom_site_label
_atom_site_type_symbol
_atom_type_description
_atom_site_fract_x
_atom_site_fract_y
_atom_site_fract_z
_atom_type_partial_charge
O1    O     O_R   0.711000 0.648610 0.341170 -0.532376
O2    O     O_R   0.289000 0.351390 0.658830 -0.532376
O3    O     O_R   0.789000 0.148610 0.158830 -0.529792
O4    O     O_R   0.211000 0.851390 0.841170 -0.529791
O5    O     O_R   0.829650 0.322030 0.336650 -0.537135
O6    O     O_R   0.170350 0.677970 0.663350 -0.537135
O7    O     O_R   0.670350 0.822030 0.163350 -0.538056
O8    O     O_R   0.329650 0.177970 0.836650 -0.538055
C1    C     C_R   0.854317 0.485170 0.356734 0.731963
C2    C     C_R   0.145683 0.514830 0.643266 0.731961
C3    C     C_R   0.645698 0.986476 0.143260 0.728151
C4    C     C_R   0.354302 0.013524 0.856740 0.728149
O9    O     O_R   0.713950 0.319280 0.352070 -0.533950
O10   O     O_R   0.286050 0.680720 0.647930 -0.533951
O11   O     O_R   0.786050 0.819280 0.147930 -0.536054
O12   O     O_R   0.213950 0.180720 0.852070 -0.536054
O13   O     O_R   0.672470 0.142870 0.174360 -0.534050
O14   O     O_R   0.327530 0.857130 0.825640 -0.534051
O15   O     O_R   0.827530 0.642870 0.325640 -0.533647
O16   O     O_R   0.172470 0.357130 0.674360 -0.533647
C5    C     C_R   0.701875 0.489644 0.376256 0.680756
C6    C     C_R   0.298124 0.510356 0.623744 0.680757
C7    C     C_R   0.798150 0.985618 0.123718 0.683503
C8    C     C_R   0.201849 0.014382 0.876282 0.683503
O17   O     O_3   0.736530 0.478650 0.191680 -0.379141
O18   O     O_3   0.263470 0.521350 0.808320 -0.379141
O19   O     O_3   0.763470 0.978650 0.308320 -0.379197
O20   O     O_3   0.236530 0.021350 0.691680 -0.379196
V1    V     V_3+5 0.752500 0.206170 0.260820 1.477328
V2    V     V_3+5 0.247500 0.793830 0.739180 1.477330
V3    V     V_3+5 0.747500 0.706170 0.239180 1.474355
V4    V     V_3+5 0.252500 0.293830 0.760820 1.474356
C9    C     C_R   0.827021 0.984816 0.050525 -0.045287
C10   C     C_R   0.172978 0.015183 0.949474 -0.045286
C11   C     C_R   0.672994 0.509035 0.449265 -0.047829
C12   C     C_R   0.327003 0.490966 0.550731 -0.047822
C13   C     C_R   0.827764 0.871326 0.900428 -0.129264
C14   C     C_R   0.172236 0.128667 0.099573 -0.129264
C15   C     C_R   0.667590 0.676534 0.585252 -0.121760
C16   C     C_R   0.332399 0.323490 0.414734 -0.121750
C17   C     C_R   0.796274 0.912276 0.963158 -0.156498
C18   C     C_R   0.203725 0.087717 0.036843 -0.156497
C19   C     C_R   0.700817 0.615228 0.527928 -0.149463
C20   C     C_R   0.299177 0.384778 0.472067 -0.149458
C21   C     C_R   0.888484 0.027097 0.072643 -0.118059
C22   C     C_R   0.111514 0.972909 0.927355 -0.118058
C23   C     C_R   0.613087 0.453076 0.432134 -0.122111
C24   C     C_R   0.386908 0.546936 0.567854 -0.122108
C25   C     C_R   0.920433 0.999153 0.007746 0.105644
C26   C     C_R   0.079566 0.000851 0.992252 0.105645
C27   C     C_R   0.579692 0.503063 0.492866 0.104983
C28   C     C_R   0.420298 0.496962 0.507115 0.104990
C29   C     C_R   0.890171 0.905240 0.924193 0.084609
C30   C     C_R   0.109828 0.094760 0.075806 0.084609
C31   C     C_R   0.606371 0.629835 0.565054 0.089638
C32   C     C_R   0.393617 0.370198 0.434925 0.089643
C33   C     C_R   0.983103 0.041811 0.027712 -0.027131
C34   C     C_R   0.016896 0.958195 0.972285 -0.027131
C35   C     C_R   0.518397 0.449260 0.477429 -0.032566
C36   C     C_R   0.481591 0.550773 0.522545 -0.032573
C37   C     C_R   0.986457 0.835518 0.899406 0.263306
C38   C     C_R   0.013542 0.164487 0.100591 0.263306
C39   C     C_R   0.507760 0.701686 0.581037 0.269320
C40   C     C_R   0.492225 0.298357 0.418930 0.269323
C41   C     C_R   0.923487 0.826072 0.870901 -0.187743
C42   C     C_R   0.076512 0.173929 0.129097 -0.187743
C43   C     C_R   0.570184 0.726350 0.608500 -0.172723
C44   C     C_R   0.429801 0.273698 0.391469 -0.172716
H1    H     H_    0.901040 0.738022 0.812562 0.155650
H2    H     H_    0.098959 0.261978 0.187438 0.155650
H3    H     H_    0.589505 0.837215 0.656367 0.158013
H4    H     H_    0.410478 0.162845 0.343596 0.158013
H5    H     H_    0.087940 0.938006 0.856041 0.150517
H6    H     H_    0.912059 0.062005 0.143957 0.150518
H7    H     H_    0.408871 0.610318 0.634258 0.149191
H8    H     H_    0.591126 0.389697 0.365730 0.149201
H9    H     H_    0.251092 0.123966 0.053972 0.109342
H10   H     H_    0.748908 0.876023 0.946030 0.109341
H11   H     H_    0.253141 0.338010 0.459048 0.111222
H12   H     H_    0.746854 0.661990 0.540951 0.111222
H13   H     H_    0.804162 0.802639 0.835752 0.113670
H14   H     H_    0.195838 0.197350 0.164249 0.113669
H15   H     H_    0.688572 0.770534 0.641637 0.113640
H16   H     H_    0.311415 0.229498 0.358346 0.113638
C45   C     C_1   0.416787 0.005336 0.918658 -0.165660
C46   C     C_1   0.583213 0.994664 0.081342 -0.165654
C47   C     C_1   0.083193 0.508474 0.581287 -0.155650
C48   C     C_1   0.916807 0.491526 0.418713 -0.155651
C49   C     C_1   0.469155 0.001587 0.969923 0.024759
C50   C     C_1   0.530845 0.998413 0.030077 0.024762
C51   C     C_1   0.030841 0.503143 0.530054 0.036231
C52   C     C_1   0.969159 0.496856 0.469946 0.036231
Br1   Br    Br    0.025770 0.641353 0.850160 -0.576788
Br2   Br    Br    0.974229 0.358656 0.149835 -0.576786
Br3   Br    Br    0.462335 0.908180 0.608086 -0.573891
Br4   Br    Br    0.537645 0.091865 0.391865 -0.573894

loop_
_geom_bond_atom_site_label_1
_geom_bond_atom_site_label_2
_ccdc_geom_bond_type
O17   V3    S    
C25   C29   A    
O18   V4    S    
C47   C51   T    
O19   V1    S    
C9    C21   A    
C16   H16   S    
O3    C7    A    
C10   C18   A    
O15   V3    S    
C25   C33   A    
C33   C38   A    
O1    C5    A    
C35   C40   A    
C26   C30   A    
C4    C45   S    
C36   C39   A    
C40   C44   A    
O9    V1    S    
C23   H8    S    
C14   C18   A    
C1    C48   S    
O4    C8    A    
C37   Br1   S    
C3    C46   S    
C39   Br3   S    
O1    V3    S    
O13   V1    S    
O2    V4    S    
O3    V1    S    
C28   C36   A    
C1    O15   A    
C15   C31   A    
C48   C52   T    
C2    O16   A    
C7    C9    S    
O2    C6    A    
C10   C22   A    
C11   C19   A    
C16   C20   A    
C43   H3    S    
C44   H4    S    
C13   C29   A    
C34   C37   A    
O11   C7    A    
C11   C23   A    
C35   C36   A    
O12   C8    A    
C14   H14   S    
C24   H7    S    
C13   H13   S    
O10   V2    S    
O5    V1    S    
C39   C43   A    
C2    C47   S    
O7    V3    S    
C38   C42   A    
O8    V4    S    
C40   Br4   S    
C46   C50   T    
C17   H10   S    
C45   C49   T    
C23   C27   A    
C16   C32   A    
C19   H12   S    
C32   C44   A    
C8    C10   S    
C21   H6    S    
C26   C34   A    
O7    C3    A    
O5    C1    A    
C31   C43   A    
C14   C30   A    
C21   C25   A    
O8    C4    A    
O9    C5    A    
O14   V2    S    
O6    V2    S    
C38   Br2   S    
C12   C20   A    
C27   C35   A    
C51   C52   S    
C29   C41   A    
O16   V4    S    
C3    O13   A    
C20   H11   S    
O6    C2    A    
C15   C19   A    
O11   V3    S    
C30   C42   A    
O12   V4    S    
C6    C12   S    
C22   C26   A    
C9    C17   A    
O10   C6    A    
O20   V2    S    
C5    C11   S    
C15   H15   S    
C33   C34   A    
C42   H2    S    
C41   H1    S    
C12   C24   A    
C27   C31   A    
C13   C17   A    
C37   C41   A    
C24   C28   A    
C18   H9    S    
C4    O14   A    
C49   C50   S    
C22   H5    S    
O4    V2    S    
C28   C32   A    
