data_mof_unit_41008.cif
_audit_creation_date              2012-10-26T19:50:01-0400
_audit_creation_method            fapswitch 2.2
_symmetry_space_group_name_H-M    P1
_symmetry_Int_Tables_number       1
_space_group_crystal_system       triclinic
_cell_length_a                    15.126243
_cell_length_b                    13.940067
_cell_length_c                    10.854486
_cell_angle_alpha                 90.000423
_cell_angle_beta                  92.520657
_cell_angle_gamma                 90.001017
_cell_volume                      2286.57148511

loop_
_atom_site_label
_atom_site_type_symbol
_atom_type_description
_atom_site_fract_x
_atom_site_fract_y
_atom_site_fract_z
_atom_type_partial_charge
C1    C     C_R   0.330020 0.500151 0.503367 0.535897
C2    C     C_R   0.951744 0.496128 0.496918 0.015171
C3    C     C_R   0.541696 0.108489 0.596371 -0.155565
C4    C     C_R   0.458304 0.108484 0.403637 -0.155531
C5    C     C_R   0.546204 0.210037 0.591693 0.389871
C6    C     C_R   0.453800 0.210029 0.408307 0.389851
C7    C     C_R   0.499998 0.055716 0.500007 -0.058175
C8    C     C_R   0.436287 0.894061 0.431913 -0.131796
C9    C     C_R   0.563708 0.894064 0.568098 -0.131791
C10   C     C_R   0.438454 0.792958 0.428070 0.136666
C11   C     C_R   0.561544 0.792960 0.571934 0.136662
C12   C     C_R   0.669980 0.500152 0.496641 0.535905
C13   C     C_R   0.499998 0.946880 0.500007 0.004617
C14   C     C_R   0.506150 0.500716 0.262686 0.537242
C15   C     C_R   0.493851 0.500716 0.737314 0.537244
C16   C     C_R   0.540063 0.680577 0.117199 -0.098184
C17   C     C_R   0.459965 0.680583 0.882811 -0.098191
C18   C     C_R   0.522235 0.768310 0.058273 0.016954
C19   C     C_R   0.477799 0.768313 0.941745 0.016948
C20   C     C_R   0.486642 0.592234 0.937249 0.004220
C21   C     C_R   0.513376 0.592231 0.062755 0.004220
C22   C     C_R   0.511890 0.503780 0.128397 -0.012181
C23   C     C_R   0.233197 0.500197 0.507641 0.028340
C24   C     C_R   0.488111 0.503782 0.871604 -0.012177
C25   C     C_R   0.503937 0.417220 0.063587 -0.155887
C26   C     C_R   0.496043 0.417220 0.936412 -0.155885
C27   C     C_R   0.093824 0.572280 0.560629 -0.100920
C28   C     C_R   0.906181 0.572280 0.439415 -0.100917
C29   C     C_R   0.186343 0.574716 0.565545 -0.008313
C30   C     C_R   0.813663 0.574717 0.434486 -0.008313
C31   C     C_3   0.369984 0.748658 0.340253 -0.341810
C32   C     C_3   0.630015 0.748664 0.659752 -0.341818
C33   C     C_3   0.548550 0.860683 0.122250 -0.404442
C34   C     C_R   0.766803 0.500200 0.492389 0.028338
C35   C     C_3   0.451485 0.860688 0.877781 -0.404449
C36   C     C_3   0.232446 0.654122 0.637696 -0.388048
C37   C     C_3   0.767569 0.654118 0.362315 -0.388049
C38   C     C_3   0.673643 0.222425 0.718336 -0.146128
C39   C     C_3   0.326305 0.222473 0.281818 -0.146035
C40   C     C_R   0.186410 0.423061 0.453044 -0.146012
C41   C     C_R   0.813581 0.423067 0.547003 -0.146009
C42   C     C_R   0.094623 0.420780 0.451257 -0.133177
C43   C     C_R   0.905368 0.420785 0.548801 -0.133182
C44   C     C_R   0.048254 0.496125 0.503137 0.015170
Cu1   Cu    Cu3+1 0.500000 0.596430 0.500000 0.890497
Cu2   Cu    Cu3+1 0.500000 0.403570 0.500000 1.050599
H1    H     H_    0.504497 0.348867 0.111088 0.167833
H2    H     H_    0.779096 0.364939 0.590111 0.125330
H3    H     H_    0.059641 0.361359 0.407062 0.108252
H4    H     H_    0.940346 0.361365 0.593003 0.108253
H5    H     H_    0.569900 0.071558 0.676071 0.093936
H6    H     H_    0.430101 0.071553 0.323933 0.093975
H7    H     H_    0.375772 0.671750 0.324886 0.205743
H8    H     H_    0.302860 0.763250 0.373163 0.090658
H9    H     H_    0.374638 0.782200 0.247910 0.098275
H10   H     H_    0.624232 0.671752 0.675103 0.205751
H11   H     H_    0.697144 0.763266 0.626841 0.090655
H12   H     H_    0.495466 0.348867 0.888909 0.167797
H13   H     H_    0.625356 0.782202 0.752104 0.098288
H14   H     H_    0.582039 0.847584 0.213867 0.129426
H15   H     H_    0.594789 0.901335 0.065200 0.126494
H16   H     H_    0.488915 0.904953 0.136889 0.128952
H17   H     H_    0.417995 0.847595 0.786164 0.129427
H18   H     H_    0.405246 0.901336 0.934836 0.126501
H19   H     H_    0.511120 0.904963 0.863146 0.128940
H20   H     H_    0.280861 0.622949 0.706311 0.133943
H21   H     H_    0.266653 0.702991 0.574904 0.154452
H22   H     H_    0.185052 0.698059 0.688970 0.106973
H23   H     H_    0.383909 0.930779 0.379808 0.088160
H24   H     H_    0.719162 0.622935 0.293695 0.133939
H25   H     H_    0.733357 0.702992 0.425094 0.154449
H26   H     H_    0.814969 0.698053 0.311043 0.106972
H27   H     H_    0.714981 0.278842 0.764217 0.133804
H28   H     H_    0.709704 0.196263 0.637533 0.097305
H29   H     H_    0.666040 0.164316 0.787018 0.102115
H30   H     H_    0.285018 0.278896 0.235857 0.133810
H31   H     H_    0.290256 0.196476 0.362725 0.097305
H32   H     H_    0.333785 0.164253 0.213246 0.102042
H33   H     H_    0.616086 0.930783 0.620206 0.088162
H34   H     H_    0.577591 0.682653 0.203984 0.144043
H35   H     H_    0.422434 0.682664 0.796029 0.144045
H36   H     H_    0.056783 0.629104 0.603014 0.105677
H37   H     H_    0.943227 0.629102 0.397025 0.105677
H38   H     H_    0.220889 0.364932 0.409938 0.125250
N1    N     N_R   0.500000 0.258690 0.500000 -0.198166
N2    N     N_R   0.500000 0.741330 0.500000 -0.207609
O1    O     O_R   0.371460 0.581430 0.500010 -0.526928
O2    O     O_3   0.409397 0.262762 0.316322 -0.533242
O3    O     O_R   0.628540 0.581430 0.499990 -0.526938
O4    O     O_R   0.371470 0.418560 0.500010 -0.478683
O5    O     O_R   0.628530 0.418560 0.499990 -0.478633
O6    O     O_R   0.500000 0.581450 0.319650 -0.538159
O7    O     O_R   0.500000 0.581450 0.680350 -0.538164
O8    O     O_R   0.500010 0.418580 0.319650 -0.447148
O9    O     O_R   0.499990 0.418580 0.680350 -0.447148
O10   O     O_3   0.590628 0.262791 0.683646 -0.533216

loop_
_geom_bond_atom_site_label_1
_geom_bond_atom_site_label_2
_ccdc_geom_bond_type
C1    O1    A    
C23   C29   A    
C16   C21   A    
C27   C29   A    
C40   H38   S    
C12   O5    A    
Cu1   O7    S    
C36   H21   S    
Cu1   Cu2   S    
C29   C36   S    
C8    H23   S    
C1    O4    A    
C6    N1    A    
C4    H6    S    
C32   H11   S    
Cu1   O1    S    
C24   C26   A    
C3    C7    A    
C15   O9    A    
C36   H20   S    
C35   H19   S    
C11   N2    A    
C23   C40   A    
C17   C20   A    
C6    O2    S    
C18   C19   A    
C9    H33   S    
Cu1   O6    S    
C9    C13   A    
C10   C31   S    
Cu2   O9    S    
C20   C24   A    
C2    C44   S    
C33   H16   S    
C22   C25   A    
C35   H18   S    
Cu1   O3    S    
C25   H1    S    
Cu2   N1    S    
C5    N1    A    
C40   C42   A    
C21   C22   A    
C28   H37   S    
C41   C43   A    
C34   C41   A    
C42   C44   A    
C39   O2    S    
C4    C7    A    
C27   C44   A    
C38   H29   S    
C30   C34   A    
C39   H32   S    
C12   O3    A    
C4    C6    A    
C3    H5    S    
Cu2   O5    S    
C25   C26   A    
C30   C37   S    
C16   H34   S    
C26   H12   S    
Cu2   O8    S    
C2    C43   A    
C16   C18   A    
C39   H30   S    
C31   H7    S    
C9    C11   A    
C14   O6    A    
C33   H15   S    
C15   C24   S    
C11   C32   S    
C1    C23   S    
C33   H14   S    
C37   H25   S    
C12   C34   S    
C39   H31   S    
C5    O10   S    
C38   H28   S    
C10   N2    A    
C27   H36   S    
C3    C5    A    
C15   O7    A    
C35   H17   S    
C36   H22   S    
C43   H4    S    
Cu2   O4    S    
C14   C22   S    
C28   C30   A    
Cu1   N2    S    
C19   C35   S    
C17   C19   A    
C41   H2    S    
C14   O8    A    
C17   H35   S    
C31   H8    S    
C18   C33   S    
C42   H3    S    
C8    C13   A    
C7    C13   S    
C20   C21   A    
C8    C10   A    
C37   H26   S    
C38   O10   S    
C2    C28   A    
C32   H13   S    
C31   H9    S    
C37   H24   S    
C32   H10   S    
C38   H27   S    
