data_mof_unit_63419.cif
_audit_creation_date              2013-03-05T16:40:25-0500
_audit_creation_method            fapswitch 2.2
_symmetry_space_group_name_H-M    P1
_symmetry_Int_Tables_number       1
_space_group_crystal_system       triclinic
_cell_length_a                    13.007606
_cell_length_b                    17.75517
_cell_length_c                    16.514795
_cell_angle_alpha                 90.680959
_cell_angle_beta                  96.573619
_cell_angle_gamma                 91.238934
_cell_volume                      3787.7717114

loop_
_atom_site_label
_atom_site_type_symbol
_atom_site_description
_atom_site_fract_x
_atom_site_fract_y
_atom_site_fract_z
_atom_type_partial_charge
O1    O     O_R   0.499990 0.391240 0.567930 -0.590380
O2    O     O_R   0.500010 0.608760 0.432070 -0.590947
O3    O     O_R   0.500000 0.391270 0.432120 -0.549787
O4    O     O_R   0.500000 0.608730 0.567880 -0.550436
C1    C     C_R   0.499543 0.355391 0.499608 0.862855
C2    C     C_R   0.499743 0.644639 0.500303 0.864433
O5    O     O_R   0.348990 0.499980 0.556880 -0.595855
O6    O     O_R   0.651010 0.500020 0.443120 -0.595915
O7    O     O_R   0.349000 0.500000 0.421060 -0.555481
O8    O     O_R   0.651000 0.500000 0.578940 -0.553557
C3    C     C_R   0.300154 0.499910 0.484708 0.832238
C4    C     C_R   0.699846 0.500047 0.515289 0.833817
Cu1   Cu    Cu3+1 0.500000 0.499980 0.580420 1.004963
Cu2   Cu    Cu3+1 0.500000 0.500020 0.419580 1.003740
C5    C     C_R   0.812670 0.499746 0.524179 -0.066286
C6    C     C_R   0.187332 0.500124 0.475810 -0.065728
C7    C     C_R   0.023073 0.504652 0.391115 -0.159498
C8    C     C_R   0.976929 0.495131 0.608865 -0.159432
C9    C     C_R   0.130621 0.503814 0.398481 -0.134012
C10   C     C_R   0.869385 0.495988 0.601501 -0.132638
C11   C     C_R   0.135786 0.497087 0.545797 -0.225626
C12   C     C_R   0.864215 0.502753 0.454188 -0.226180
C13   C     C_R   0.028391 0.497979 0.538967 0.156333
C14   C     C_R   0.971610 0.501826 0.461014 0.156574
H1    H     H_    0.820979 0.505776 0.394179 0.167326
H2    H     H_    0.179022 0.494083 0.605808 0.167273
H3    H     H_    0.830763 0.493433 0.656146 0.194938
H4    H     H_    0.169252 0.506337 0.343836 0.193595
H5    H     H_    0.980261 0.507612 0.330993 0.168295
H6    H     H_    0.019741 0.492147 0.668984 0.168655
C15   C     C_R   0.511553 0.847135 0.575041 0.310489
C16   C     C_R   0.517087 0.153691 0.427800 0.312801
C17   C     C_R   0.509884 0.768276 0.574234 -0.191828
C18   C     C_R   0.515710 0.232500 0.428479 -0.190840
H7    H     H_    0.519745 0.738795 0.631497 0.225145
H8    H     H_    0.531075 0.262636 0.374328 0.212883
C19   C     C_R   0.498814 0.727469 0.500567 -0.163645
C20   C     C_R   0.498396 0.272605 0.498952 -0.157532
C21   C     C_R   0.486734 0.766052 0.426699 -0.222195
C22   C     C_R   0.479922 0.233407 0.569137 -0.219710
H9    H     H_    0.476677 0.734822 0.369480 0.205103
H10   H     H_    0.464848 0.264165 0.623428 0.202362
C23   C     C_R   0.484182 0.844714 0.425460 0.317297
C24   C     C_R   0.477273 0.154650 0.569577 0.317200
C25   C     C_R   0.497745 0.885518 0.500103 -0.136532
C26   C     C_R   0.497116 0.114570 0.498720 -0.135361
C27   C     C_1   0.497529 0.966263 0.499630 0.196098
C28   C     C_1   0.497325 0.033817 0.499062 0.197673
C29   C     C_R   0.565994 0.547018 0.837025 0.148463
C30   C     C_R   0.434527 0.452427 0.163091 0.146452
C31   C     C_R   0.566137 0.546970 0.751139 0.385703
C32   C     C_R   0.434568 0.452444 0.248995 0.385859
N1    N     N_R   0.499970 0.499970 0.701220 -0.234772
N2    N     N_R   0.500030 0.500030 0.298780 -0.237138
C33   C     C_R   0.433473 0.452774 0.735671 -0.031656
C34   C     C_R   0.565656 0.547816 0.264199 -0.033878
H11   H     H_    0.381640 0.415852 0.696683 0.173180
H12   H     H_    0.616967 0.585158 0.303098 0.177442
C35   C     C_R   0.430976 0.451118 0.821049 0.179114
C36   C     C_R   0.567902 0.549548 0.178800 0.179082
C37   C     C_R   0.497959 0.498762 0.873118 -0.082083
C38   C     C_R   0.501614 0.501334 0.126853 -0.082447
C39   C     C_1   0.498442 0.499169 0.962721 0.177182
C40   C     C_1   0.500968 0.500963 0.037236 0.177231
Br1   Br    Br    0.334973 0.383005 0.863445 -0.344616
Br2   Br    Br    0.662592 0.618565 0.136207 -0.342961
N3    N     N_R   0.527720 0.886897 0.652188 0.165674
O9    O     O_R   0.584157 0.948509 0.660473 -0.275625
O10   O     O_R   0.496999 0.856657 0.716955 -0.258261
N4    N     N_R   0.539254 0.114751 0.354973 0.160909
O11   O     O_R   0.596069 0.055188 0.359513 -0.282329
O12   O     O_R   0.513566 0.144032 0.283843 -0.253668
N5    N     N_R   0.467500 0.881848 0.348108 0.160947
O13   O     O_R   0.499660 0.851538 0.283698 -0.264606
O14   O     O_R   0.409245 0.940522 0.339282 -0.277835
N6    N     N_R   0.454113 0.116681 0.642188 0.161614
O15   O     O_R   0.480036 0.147988 0.713474 -0.264547
O16   O     O_R   0.395971 0.055858 0.637251 -0.281243
Br3   Br    Br    0.659200 0.613356 0.905561 -0.281345
Br4   Br    Br    0.342391 0.385235 0.094730 -0.280749
Br5   Br    Br    0.662021 0.614898 0.707041 -0.393609
Br6   Br    Br    0.339963 0.383624 0.293341 -0.378167

loop_
_geom_bond_atom_site_label_1
_geom_bond_atom_site_label_2
_geom_bond_distance
_ccdc_geom_bond_type
C23   N5    1.440972 S    
C11   H2    1.084573 S    
C6    C11   1.402053 A    
C33   C35   1.414730 A    
C7    H5    1.083797 S    
N5    O13   1.301571 A    
C21   H9    1.083342 S    
C15   N3    1.441092 S    
O1    C1    1.288235 A    
N6    O16   1.301284 A    
C36   C38   1.411922 A    
O4    Cu1   1.944395 S    
C37   C39   1.478996 S    
C38   C40   1.478999 S    
C7    C9    1.390685 A    
C5    C12   1.402076 A    
C24   C26   1.414113 A    
C29   C31   1.418593 A    
C12   H1    1.084568 S    
C30   C32   1.418624 A    
C13   C14   1.412111 A    
C15   C17   1.399735 A    
N4    O11   1.301231 A    
C8    H6    1.083800 S    
C31   Br5   1.924660 S    
C8    C10   1.390661 A    
C25   C27   1.433822 S    
C36   Br2   1.914965 S    
Cu1   Cu2   2.656247 S    
N5    O14   1.301218 A    
O2    C2    1.288248 A    
C32   N2    1.380938 A    
Cu1   N1    1.995034 S    
N1    C33   1.366288 A    
C5    C10   1.402775 A    
N2    C34   1.366204 A    
C35   C37   1.411911 A    
C7    C14   1.400033 A    
C29   C37   1.404532 A    
N3    O9    1.301174 A    
N6    O15   1.301580 A    
O4    C2    1.291568 A    
C21   C23   1.398108 A    
C17   C19   1.400082 A    
C29   Br3   1.931494 S    
C31   N1    1.380911 A    
C16   C18   1.399702 A    
O5    C3    1.284804 A    
O7    Cu2   1.967089 S    
O7    C3    1.288991 A    
C3    C6    1.458145 S    
C27   C28   1.199629 T    
C4    C5    1.458208 S    
O5    Cu1   1.958235 S    
O6    C4    1.284792 A    
C2    C19   1.470925 S    
C32   Br6   1.925195 S    
C9    H4    1.082929 S    
C23   C25   1.413874 A    
C8    C13   1.400008 A    
O3    Cu2   1.944393 S    
O8    C4    1.289027 A    
Cu2   N2    1.995034 S    
C33   H11   1.081835 S    
C30   C38   1.404585 A    
C12   C14   1.389041 A    
O1    Cu1   1.939241 S    
N3    O10   1.301652 A    
O6    Cu2   1.958233 S    
C18   C20   1.399827 A    
C16   C26   1.415239 A    
O3    C1    1.290853 A    
O8    Cu1   1.967088 S    
C30   Br4   1.931454 S    
C16   N4    1.440819 S    
C10   H3    1.082887 S    
C11   C13   1.389016 A    
C19   C21   1.401001 A    
C35   Br1   1.914989 S    
C20   C22   1.400466 A    
C6    C9    1.402774 A    
C22   H10   1.083432 S    
C17   H7    1.082435 S    
C34   H12   1.081814 S    
C18   H8    1.083367 S    
O2    Cu2   1.939241 S    
C39   C40   1.227287 T    
C26   C28   1.433922 S    
C34   C36   1.414681 A    
C22   C24   1.398158 A    
C15   C25   1.415178 A    
N4    O12   1.301543 A    
C24   N6    1.440954 S    
C1    C20   1.469540 S    
