data_mof_unit_7626.cif
_audit_creation_date              2012-12-10T17:48:44-0500
_audit_creation_method            fapswitch 2.2
_symmetry_space_group_name_H-M    P1
_symmetry_Int_Tables_number       1
_space_group_crystal_system       triclinic
_cell_length_a                    15.792537
_cell_length_b                    10.771996
_cell_length_c                    9.942811
_cell_angle_alpha                 87.884175
_cell_angle_beta                  91.045573
_cell_angle_gamma                 89.301019
_cell_volume                      1689.86774889

loop_
_atom_site_label
_atom_site_type_symbol
_atom_type_description
_atom_site_fract_x
_atom_site_fract_y
_atom_site_fract_z
_atom_type_partial_charge
C1    C     C_R   0.508041 0.260225 0.503962 0.848644
C2    C     C_R   0.662517 0.014204 0.805252 -0.187075
C3    C     C_R   0.672480 0.891625 0.773770 -0.179064
C4    C     C_R   0.338703 0.494484 0.498912 0.899738
C5    C     C_R   0.629804 0.847737 0.663651 -0.154335
C6    C     C_R   0.571056 0.923873 0.588338 0.101156
C7    C     C_R   0.567235 0.053784 0.607473 0.035319
C8    C     C_R   0.514989 0.126216 0.511892 -0.114892
C9    C     C_R   0.466291 0.068758 0.413200 -0.198432
C10   C     C_R   0.465578 0.942463 0.405934 -0.217752
C11   C     C_R   0.515779 0.870669 0.494350 -0.090954
C12   C     C_3   0.956588 0.445138 0.635121 -0.169988
C13   C     C_R   0.389660 0.344892 0.142524 -0.173328
C14   C     C_R   0.334921 0.269329 0.074755 -0.277651
C15   C     C_R   0.333872 0.267621 0.935598 0.036220
C16   C     C_R   0.503070 0.739332 0.497748 0.862124
C17   C     C_R   0.391119 0.340738 0.863746 -0.200480
C18   C     C_R   0.446462 0.421632 0.929391 0.150486
C19   C     C_R   0.446008 0.422792 0.073598 0.155217
C20   C     C_R   0.551277 0.575461 0.069366 0.009095
C21   C     C_R   0.551064 0.575223 0.926427 -0.123856
C22   C     C_R   0.661522 0.499370 0.500908 0.885551
C23   C     C_3   0.917247 0.481037 0.492419 0.161718
C24   C     C_3   0.053587 0.430588 0.623063 -0.447979
C25   C     C_3   0.044767 0.379378 0.377502 -0.198079
C26   C     C_3   0.945507 0.387323 0.383109 -0.197451
C27   C     C_1   0.750297 0.493496 0.502070 -0.157372
C28   C     C_3   0.083606 0.471678 0.479869 0.179443
C29   C     C_R   0.921261 0.336349 0.719635 0.140039
C30   C     C_R   0.948256 0.323666 0.855626 -0.136997
C31   C     C_R   0.924336 0.221687 0.936503 -0.130318
C32   C     C_R   0.875572 0.128438 0.881839 -0.131405
C33   C     C_R   0.847488 0.140236 0.748154 -0.145491
C34   C     C_3   0.951251 0.612596 0.449224 -0.228897
C35   C     C_R   0.866644 0.245676 0.669456 -0.147412
C36   C     C_1   0.625168 0.223179 0.761105 0.195543
C37   C     C_1   0.606786 0.658921 0.136708 0.247268
C38   C     C_R   0.271765 0.188777 0.867802 0.130807
C39   C     C_R   0.187864 0.185263 0.913063 -0.157105
C40   C     C_R   0.131121 0.100796 0.861376 -0.168900
C41   C     C_R   0.156813 0.020771 0.763138 -0.108805
C42   C     C_R   0.239223 0.025444 0.714321 -0.090238
C43   C     C_R   0.296744 0.109715 0.766054 -0.170976
C44   C     C_R   0.082225 0.246840 0.391952 0.146444
C45   C     C_3   0.051829 0.610542 0.443018 -0.006249
C46   C     C_R   0.042916 0.149240 0.464831 -0.148424
C47   C     C_R   0.075301 0.028456 0.464586 -0.155165
C48   C     C_R   0.151256 0.003710 0.401398 -0.095484
C49   C     C_R   0.193871 0.099594 0.335512 -0.140079
C50   C     C_R   0.158952 0.219884 0.328152 -0.170481
C51   C     C_1   0.908593 0.421531 0.248412 0.130385
C52   C     C_1   0.090359 0.690688 0.545677 0.152151
C53   C     C_R   0.079123 0.667916 0.304263 0.083002
C54   C     C_R   0.043009 0.783618 0.259463 -0.163987
C55   C     C_R   0.065203 0.841069 0.137074 -0.117468
C56   C     C_1   0.825377 0.487305 0.498988 -0.064371
C57   C     C_R   0.124726 0.785468 0.056333 -0.103500
C58   C     C_R   0.162518 0.672897 0.098150 -0.133325
C59   C     C_R   0.140704 0.614936 0.220498 -0.158496
C60   C     C_1   0.916068 0.713067 0.531785 0.135087
C61   C     C_1   0.175840 0.468044 0.487055 -0.075242
C62   C     C_1   0.250674 0.477888 0.494689 -0.183948
C63   C     C_R   0.616190 0.097782 0.720156 -0.020114
H1    H     H_    0.085032 0.485689 0.701921 0.176611
H2    H     H_    0.384956 0.339470 0.248689 0.210209
H3    H     H_    0.293242 0.210370 0.131410 0.144071
H4    H     H_    0.389593 0.333263 0.757616 0.205318
H5    H     H_    0.592726 0.636359 0.870615 0.147666
H6    H     H_    0.062131 0.411713 0.274838 0.133325
H7    H     H_    0.918201 0.295991 0.404460 0.128499
H8    H     H_    0.989301 0.392238 0.898658 0.130186
H9    H     H_    0.946344 0.212723 0.040209 0.134371
H10   H     H_    0.859814 0.046963 0.942822 0.127964
H11   H     H_    0.811332 0.067108 0.704155 0.159751
H12   H     H_    0.945346 0.526792 0.698265 0.163394
H13   H     H_    0.840126 0.251574 0.569179 0.120010
H14   H     H_    0.166809 0.246022 0.990558 0.125221
H15   H     H_    0.067786 0.094905 0.899611 0.146381
H16   H     H_    0.112274 0.954630 0.726969 0.153947
H17   H     H_    0.259054 0.962203 0.638568 0.141926
H18   H     H_    0.361208 0.109792 0.730628 0.134731
H19   H     H_    0.987592 0.163878 0.523269 0.137193
H20   H     H_    0.041940 0.954518 0.516402 0.148881
H21   H     H_    0.177799 0.910544 0.404919 0.146626
H22   H     H_    0.253816 0.079215 0.290260 0.118922
H23   H     H_    0.924284 0.634951 0.347081 0.156258
H24   H     H_    0.191985 0.292699 0.273689 0.112124
H25   H     H_    0.997118 0.830502 0.319665 0.133908
H26   H     H_    0.036364 0.929278 0.105278 0.128371
H27   H     H_    0.141950 0.829641 0.961595 0.145717
H28   H     H_    0.209254 0.630196 0.035597 0.140471
H29   H     H_    0.173340 0.528963 0.245565 0.128244
H30   H     H_    0.425376 0.121985 0.343191 0.154876
H31   H     H_    0.696177 0.045815 0.893508 0.150403
H32   H     H_    0.713704 0.830399 0.834815 0.152707
H33   H     H_    0.642253 0.752257 0.639677 0.151989
H34   H     H_    0.423464 0.900426 0.333746 0.158339
H35   H     H_    0.074187 0.332807 0.646174 0.205764
N1    N     N_R   0.499210 0.498800 0.142780 -0.142591
N2    N     N_R   0.499180 0.498720 0.857170 -0.116550
N3    N     N_1   0.635601 0.321064 0.801601 -0.147992
N4    N     N_1   0.651593 0.726364 0.190297 -0.212736
N5    N     N_1   0.879536 0.448848 0.143638 -0.198243
N6    N     N_1   0.121816 0.749626 0.626980 -0.268355
N7    N     N_1   0.888622 0.791104 0.595769 -0.225250
O1    O     O_R   0.500000 0.316780 0.614690 -0.645380
O2    O     O_R   0.499990 0.316750 0.385360 -0.632404
O3    O     O_R   0.377150 0.500020 0.614720 -0.623853
O4    O     O_R   0.377140 0.499990 0.385380 -0.640801
O5    O     O_R   0.500010 0.683250 0.614640 -0.619018
O6    O     O_R   0.500000 0.683220 0.385310 -0.610152
O7    O     O_R   0.622860 0.500010 0.614620 -0.613407
O8    O     O_R   0.622850 0.499980 0.385280 -0.602578
Zn1   Zn    Zn3+2 0.500010 0.500020 0.653130 0.948009
Zn2   Zn    Zn3+2 0.499990 0.499980 0.346870 0.953053

loop_
_geom_bond_atom_site_label_1
_geom_bond_atom_site_label_2
_ccdc_geom_bond_type
C4    O4    A    
C42   H17   S    
C12   C29   S    
C1    C8    S    
C41   C42   A    
O7    Zn1   S    
C30   H8    S    
C53   C59   A    
C16   O5    A    
C7    C8    A    
C13   H2    S    
C53   C54   A    
C25   C28   S    
C4    O3    A    
C12   C23   S    
O1    Zn1   S    
C24   H35   S    
C39   H14   S    
N1    Zn2   S    
C30   C31   A    
O3    Zn1   S    
C4    C62   S    
C18   C19   A    
C34   H23   S    
C23   C26   S    
C23   C56   S    
C46   H19   S    
C22   O8    A    
C52   N6    T    
C47   C48   A    
C8    C9    A    
C31   H9    S    
C47   H20   S    
C36   C63   S    
C58   H28   S    
O5    Zn1   S    
C1    O1    A    
C28   C61   S    
C45   C53   S    
C24   H1    S    
C13   C14   A    
C34   C60   S    
C18   N2    A    
C25   C44   S    
C44   C46   A    
C38   C39   A    
C35   H13   S    
C28   C45   S    
C17   H4    S    
C57   H27   S    
C13   C19   A    
C49   H22   S    
C2    H31   S    
N2    Zn1   S    
C6    C11   A    
C21   N2    A    
C19   N1    A    
C27   C56   T    
C45   C52   S    
C25   C26   S    
C37   N4    T    
C48   H21   S    
C36   N3    T    
C10   H34   S    
C15   C38   S    
C29   C30   A    
C11   C16   S    
C31   C32   A    
C23   C34   S    
O2    Zn2   S    
C17   C18   A    
C14   H3    S    
C34   C45   S    
C46   C47   A    
C7    C63   A    
C50   H24   S    
C1    O2    A    
C48   C49   A    
C22   O7    A    
C22   C27   S    
C55   C57   A    
C21   H5    S    
C26   H7    S    
C40   H15   S    
C25   H6    S    
C42   C43   A    
C9    H30   S    
C32   H10   S    
C5    H33   S    
C2    C63   A    
C9    C10   A    
C44   C50   A    
C15   C17   A    
C12   C24   S    
C54   C55   A    
C40   C41   A    
C24   C28   S    
C3    C5    A    
C41   H16   S    
C3    H32   S    
C6    C7    A    
C29   C35   A    
C32   C33   A    
C2    C3    A    
C58   C59   A    
C38   C43   A    
C55   H26   S    
C26   C51   S    
C54   H25   S    
C20   C37   S    
C57   C58   A    
C5    C6    A    
C20   N1    A    
C43   H18   S    
C33   C35   A    
C59   H29   S    
C61   C62   T    
C10   C11   A    
O4    Zn2   S    
C39   C40   A    
C33   H11   S    
C20   C21   A    
C49   C50   A    
C12   H12   S    
C14   C15   A    
O6    Zn2   S    
C51   N5    T    
C60   N7    T    
C16   O6    A    
O8    Zn2   S    
