data_mof_unit_6258.cif
_audit_creation_date              2012-12-10T18:46:12-0500
_audit_creation_method            fapswitch 2.2
_symmetry_space_group_name_H-M    P1
_symmetry_Int_Tables_number       1
_space_group_crystal_system       triclinic
_cell_length_a                    9.849109
_cell_length_b                    10.66236
_cell_length_c                    13.103539
_cell_angle_alpha                 89.65307
_cell_angle_beta                  69.948101
_cell_angle_gamma                 89.944066
_cell_volume                      1292.62653029

loop_
_atom_site_label
_atom_site_type_symbol
_atom_type_description
_atom_site_fract_x
_atom_site_fract_y
_atom_site_fract_z
_atom_type_partial_charge
C1    C     C_R   0.501851 0.739976 0.495466 0.958010
C2    C     C_R   0.428910 0.466197 0.985630 0.109694
C3    C     C_R   0.457830 0.434642 0.876366 0.097330
C4    C     C_R   0.539676 0.448059 0.030156 0.020886
C5    C     C_R   0.666309 0.378369 0.973393 0.025650
C6    C     C_R   0.679395 0.329011 0.871614 -0.147182
C7    C     C_R   0.577457 0.357423 0.823586 -0.211764
C8    C     C_R   0.528852 0.502212 0.128530 -0.243999
C9    C     C_R   0.752267 0.406537 0.125302 -0.301854
C10   C     C_R   0.367189 0.483035 0.822403 -0.105351
C11   C     C_R   0.563139 0.934047 0.560411 -0.228419
C12   C     C_R   0.419840 0.493588 0.704289 0.843477
C13   C     C_R   0.563052 0.062551 0.563078 -0.154046
C14   C     C_R   0.500230 0.128259 0.498838 -0.079042
C15   C     C_R   0.440746 0.068554 0.429897 -0.250072
C16   C     C_R   0.444189 0.939569 0.423519 0.453453
C17   C     C_R   0.503079 0.872815 0.491907 -0.163090
C18   C     C_R   0.962139 0.431841 0.425368 -0.064262
C19   C     C_R   0.105939 0.431813 0.425417 -0.035201
C20   C     C_R   0.037839 0.568104 0.574678 0.000241
C21   C     C_R   0.894049 0.568145 0.574619 -0.045539
C22   C     C_R   0.499513 0.260218 0.501062 0.882080
C23   C     C_R   0.580083 0.497329 0.295565 0.982994
C24   C     C_R   0.774694 0.359603 0.021052 0.472038
C25   C     C_R   0.627672 0.475144 0.179297 -0.121897
C26   C     C_R   0.233449 0.536226 0.882059 -0.099651
C27   C     C_R   0.193412 0.547844 0.993928 -0.069292
C28   C     C_R   0.290926 0.515976 0.045517 -0.163155
H1    H     H_    0.828168 0.385296 0.166302 0.196604
H2    H     H_    0.609046 0.110550 0.616324 0.152705
H3    H     H_    0.396564 0.123351 0.378735 0.189854
H4    H     H_    0.934955 0.377376 0.365659 0.141784
H5    H     H_    0.187510 0.377134 0.365763 0.137908
H6    H     H_    0.065053 0.622594 0.634351 0.122074
H7    H     H_    0.812500 0.622852 0.634245 0.134219
H8    H     H_    0.769476 0.270680 0.826594 0.219192
H9    H     H_    0.440269 0.563710 0.169744 0.197297
H10   H     H_    0.161399 0.571418 0.841938 0.160833
H11   H     H_    0.254364 0.528341 0.132441 0.144612
H12   H     H_    0.088815 0.586419 0.040277 0.154168
H13   H     H_    0.592634 0.316990 0.744909 0.166149
H14   H     H_    0.608445 0.882288 0.612622 0.168879
N1    N     N_R   0.142790 0.500030 0.500030 -0.075746
N2    N     N_R   0.857180 0.499940 0.500010 -0.087253
O1    O     O_R   0.385370 0.683250 0.500010 -0.568105
O2    O     O_R   0.614700 0.683220 0.500010 -0.615614
O3    O     O_R   0.328400 0.499990 0.653620 -0.603132
O4    O     O_R   0.557730 0.499960 0.653620 -0.630177
O5    O     O_R   0.385300 0.316780 0.499990 -0.617268
O6    O     O_R   0.614630 0.316750 0.499990 -0.627757
O7    O     O_R   0.442270 0.500040 0.346380 -0.598681
O8    O     O_R   0.671600 0.500010 0.346380 -0.620883
Zn1   Zn    Zn3+2 0.346870 0.500020 0.500000 1.017615
Zn2   Zn    Zn3+2 0.653130 0.499980 0.500000 0.962688
S1    S     S_3+6 0.389873 0.867764 0.321884 0.023514
O9    O     O_2   0.253168 0.793940 0.372950 -0.270626
O10   O     O_2   0.363516 0.965604 0.247585 -0.308082
O11   O     O_3   0.522363 0.771152 0.249398 -0.598236
H15   H     H_    0.534598 0.787867 0.172315 0.380667
S2    S     S_3+6 0.935079 0.273725 0.955658 -0.007609
O12   O     O_2   0.014073 0.332206 0.846730 -0.345024
O13   O     O_2   0.031985 0.273069 0.022793 -0.293296
O14   O     O_3   0.890621 0.125258 0.937881 -0.552303
H16   H     H_    0.983071 0.084848 0.895085 0.386994

loop_
_geom_bond_atom_site_label_1
_geom_bond_atom_site_label_2
_ccdc_geom_bond_type
C2    C4    A    
S1    O9    D    
C6    H8    S    
C9    C24   A    
C15   H3    S    
C6    C7    A    
C21   H7    S    
C26   H10   S    
C18   N2    A    
C21   N2    A    
C4    C8    A    
C13   H2    S    
C1    C17   S    
O2    Zn2   S    
C9    H1    S    
C27   H12   S    
C12   O4    A    
C20   H6    S    
C10   C26   A    
C23   C25   S    
C2    C3    A    
C23   O8    A    
C16   S1    S    
O1    Zn1   S    
C3    C10   A    
C13   C14   A    
O4    Zn2   S    
C8    C25   A    
C11   C13   A    
C1    O1    A    
C26   C27   A    
O6    Zn2   S    
C5    C24   A    
C10   C12   S    
C12   O3    A    
O5    Zn1   S    
O3    Zn1   S    
C19   N1    A    
C3    C7    A    
C7    H13   S    
C14   C22   S    
S2    O14   S    
C1    O2    A    
C18   H4    S    
C8    H9    S    
C9    C25   A    
C15   C16   A    
N2    Zn2   S    
C22   O6    A    
C4    C5    A    
C20   N1    A    
C20   C21   A    
C11   H14   S    
S2    O13   D    
C18   C19   A    
C19   H5    S    
S1    O11   S    
C22   O5    A    
C27   C28   A    
C5    C6    A    
C14   C15   A    
S2    O12   D    
C2    C28   A    
C24   S2    S    
C28   H11   S    
O11   H15   S    
S1    O10   D    
C23   O7    A    
N1    Zn1   S    
C11   C17   A    
O14   H16   S    
O8    Zn2   S    
C16   C17   A    
O7    Zn1   S    
