data_mof_unit_11990.cif
_audit_creation_date              2013-03-05T15:44:22-0500
_audit_creation_method            fapswitch 2.2
_symmetry_space_group_name_H-M    P1
_symmetry_Int_Tables_number       1
_space_group_crystal_system       triclinic
_cell_length_a                    10.671782
_cell_length_b                    10.755742
_cell_length_c                    10.011586
_cell_angle_alpha                 90.567316
_cell_angle_beta                  89.980097
_cell_angle_gamma                 89.541495
_cell_volume                      1149.06598433

loop_
_atom_site_label
_atom_site_type_symbol
_atom_site_description
_atom_site_fract_x
_atom_site_fract_y
_atom_site_fract_z
_atom_type_partial_charge
O1    O     O_R   0.499980 0.319060 0.613040 -0.623140
O2    O     O_R   0.500020 0.319100 0.386900 -0.533900
C1    C     C_R   0.500860 0.262362 0.498699 0.999209
O3    O     O_R   0.314770 0.499960 0.613070 -0.586166
O4    O     O_R   0.314820 0.500000 0.386930 -0.614203
C2    C     C_R   0.258090 0.507735 0.500306 0.975804
Zn1   Zn    Zn3+2 0.499970 0.499970 0.650990 1.018418
Zn2   Zn    Zn3+2 0.500030 0.500030 0.349010 1.046467
O5    O     O_R   0.499980 0.680900 0.613100 -0.603762
O6    O     O_R   0.500020 0.680940 0.386960 -0.613750
O7    O     O_R   0.685180 0.500000 0.613070 -0.645961
O8    O     O_R   0.685230 0.500040 0.386930 -0.592005
C3    C     C_R   0.503977 0.737211 0.500571 1.025240
C4    C     C_R   0.742193 0.501003 0.500201 0.878930
C5    C     C_3   0.069629 0.540287 0.645340 0.163476
H1    H     H_    0.104907 0.467814 0.714367 0.186781
C6    C     C_3   0.926512 0.530589 0.644923 -0.493939
H2    H     H_    0.898484 0.453955 0.712587 0.199926
H3    H     H_    0.881755 0.616550 0.686136 0.230309
H4    H     H_    0.888157 0.699931 0.455545 0.222288
C7    C     C_3   0.068012 0.608978 0.398005 0.137502
C8    C     C_3   0.076242 0.380077 0.451724 -0.027341
C9    C     C_3   0.121564 0.511717 0.500925 -0.264227
H5    H     H_    0.107978 0.368441 0.346163 0.182145
C10   C     C_3   0.878456 0.503991 0.500506 -0.103223
C11   C     C_3   0.923406 0.611588 0.410340 -0.414703
C12   C     C_3   0.931559 0.375055 0.454349 0.090979
H6    H     H_    0.901299 0.305981 0.529876 0.160196
H7    H     H_    0.090390 0.574512 0.295361 0.146037
H8    H     H_    0.881515 0.606654 0.308849 0.209721
C13   C     C_2   0.500751 0.930613 0.388215 -0.229816
C14   C     C_2   0.520879 0.867985 0.500542 -0.351160
H9    H     H_    0.469154 0.883957 0.297747 0.206901
H10   H     H_    0.556126 0.911202 0.591346 0.147569
C15   C     C_2   0.521557 0.063917 0.383295 0.564668
C16   C     C_2   0.494046 0.130096 0.494534 -0.322744
H11   H     H_    0.459849 0.087295 0.585125 0.146102
C17   C     C_2   0.585928 0.553708 0.925465 -0.096940
N1    N     N_2   0.501360 0.501330 0.852150 -0.178827
H12   H     H_    0.664268 0.597736 0.876248 0.160497
H13   H     H_    0.423268 0.466139 0.897520 0.191461
C18   C     C_2   0.581357 0.560365 0.075653 -0.068604
N2    N     N_2   0.501390 0.501360 0.147810 -0.177463
H14   H     H_    0.651219 0.616614 0.125956 0.154988
H15   H     H_    0.439899 0.442159 0.101482 0.183804
N3    N     N_R   0.111529 0.660742 0.699979 0.235832
O9    O     O_R   0.194373 0.662486 0.795339 -0.356936
O10   O     O_R   0.052739 0.763683 0.672008 -0.314418
N4    N     N_R   0.882034 0.333897 0.324340 0.228625
O11   O     O_R   0.816568 0.232619 0.316829 -0.359335
O12   O     O_R   0.907754 0.393187 0.215108 -0.401308
O13   O     O_3   0.556069 0.123580 0.265391 -0.561539
C19   C     C_3   0.626498 0.045799 0.178554 -0.147920
H16   H     H_    0.564068 0.981670 0.122486 0.136528
H17   H     H_    0.701117 0.993404 0.232438 0.170428
H18   H     H_    0.673685 0.105011 0.103993 0.218605
N5    N     N_R   0.123190 0.734248 0.408465 0.259398
O14   O     O_R   0.052731 0.833643 0.406005 -0.299401
O15   O     O_R   0.242131 0.748022 0.386314 -0.382275
N6    N     N_R   0.131816 0.276173 0.526676 0.212160
O16   O     O_R   0.204069 0.196436 0.464807 -0.345045
O17   O     O_R   0.099732 0.254274 0.649590 -0.380944

loop_
_geom_bond_atom_site_label_1
_geom_bond_atom_site_label_2
_geom_bond_distance
_ccdc_geom_bond_type
O4    Zn2   2.012524 S    
Zn1   O7    2.012525 S    
C7    C11   1.548093 S    
C13   H9    1.086180 S    
C7    N5    1.477529 S    
C10   C12   1.559632 S    
C3    C14   1.419524 S    
C13   C14   1.333194 D    
Zn2   N2    2.014572 S    
Zn2   O8    2.012676 S    
C6    C10   1.558851 S    
N4    O12   1.301671 A    
C5    C9    1.574786 S    
C6    H2    1.114738 S    
N1    H13   1.025812 S    
O1    Zn1   1.978871 S    
C19   H16   1.111164 S    
O13   C19   1.412688 S    
N6    O17   1.301442 A    
C17   H12   1.084739 S    
N2    H15   1.025785 S    
N5    O14   1.302521 A    
O4    C2    1.287897 A    
C18   H14   1.084872 S    
C1    C16   1.425249 S    
O3    Zn1   2.012676 S    
C2    C9    1.457270 S    
C13   C15   1.453938 S    
O3    C2    1.284105 A    
C16   H11   1.085544 S    
C6    H3    1.112857 S    
O8    C4    1.286856 A    
C17   C18   1.505370 S    
O2    C1    1.280132 A    
C8    C12   1.545619 S    
C19   H17   1.114390 S    
C7    C9    1.579507 S    
C8    N6    1.473122 S    
C17   N1    1.292683 D    
O7    C4    1.283387 A    
C8    H5    1.115220 S    
N5    O15   1.298365 A    
C18   N2    1.292375 D    
C5    H1    1.110440 S    
N3    O10   1.301195 A    
C12   H6    1.114811 S    
C4    C10   1.454783 S    
Zn2   O6    1.978871 S    
N4    O11   1.300369 A    
C19   H18   1.109365 S    
C15   O13   1.399751 S    
Zn1   O5    1.986349 S    
Zn1   N1    2.013899 S    
N3    O9    1.301509 A    
O5    C3    1.285202 A    
C15   C16   1.346813 D    
C5    N3    1.474148 S    
O1    C1    1.291697 A    
C10   C11   1.553565 S    
C5    C6    1.531698 S    
C7    H7    1.114159 S    
O6    C3    1.283999 A    
C8    C9    1.574361 S    
O2    Zn2   1.986347 S    
C12   N4    1.470468 S    
N6    O16   1.300885 A    
H4    C11   1.111235 S    
C11   H8    1.111191 S    
C14   H10   1.085662 S    
