data_mof_unit_24443.cif
_audit_creation_date              2012-12-10T17:00:41-0500
_audit_creation_method            fapswitch 2.2
_symmetry_space_group_name_H-M    P1
_symmetry_Int_Tables_number       1
_space_group_crystal_system       triclinic
_cell_length_a                    27.821815
_cell_length_b                    10.894005
_cell_length_c                    9.66752
_cell_angle_alpha                 90.106569
_cell_angle_beta                  90.310482
_cell_angle_gamma                 90.186971
_cell_volume                      2930.0744364

loop_
_atom_site_label
_atom_site_type_symbol
_atom_type_description
_atom_site_fract_x
_atom_site_fract_y
_atom_site_fract_z
_atom_type_partial_charge
C1    C     C_R   0.501779 0.265365 0.500034 0.824149
C2    C     C_R   0.276940 0.466093 0.389669 0.367732
C3    C     C_R   0.253742 0.512135 0.507937 0.215708
C4    C     C_R   0.102037 0.509137 0.521054 -0.048933
C5    C     C_R   0.127774 0.398484 0.511077 -0.041271
C6    C     C_R   0.102795 0.287389 0.500902 -0.148673
C7    C     C_R   0.127454 0.620762 0.531455 -0.023457
C8    C     C_R   0.354595 0.501950 0.500397 -0.177404
C9    C     C_R   0.645580 0.498598 0.502008 -0.287207
C10   C     C_R   0.975103 0.396031 0.488817 0.041023
C11   C     C_R   0.974481 0.617397 0.543892 0.040762
C12   C     C_R   0.407489 0.499489 0.499754 0.826492
C13   C     C_R   0.949554 0.506243 0.514761 0.076462
C14   C     C_R   0.948734 0.290175 0.449592 -0.199360
C15   C     C_R   0.898863 0.291355 0.442168 -0.119500
C16   C     C_R   0.873317 0.397638 0.474593 -0.039424
C17   C     C_R   0.898498 0.505260 0.511429 -0.042679
C18   C     C_R   0.872526 0.611921 0.544686 -0.036014
C19   C     C_R   0.822069 0.608164 0.543640 0.588392
C20   C     C_R   0.822899 0.398996 0.470465 0.629768
C21   C     C_R   0.721368 0.431401 0.605363 0.404165
C22   C     C_R   0.670904 0.428280 0.601586 0.260754
C23   C     C_R   0.497775 0.735005 0.500394 0.758000
C24   C     C_R   0.671636 0.569458 0.405538 0.329610
C25   C     C_R   0.721698 0.568773 0.408098 -0.167238
C26   C     C_R   0.746718 0.500628 0.507130 0.127912
C27   C     C_R   0.025973 0.395493 0.500939 0.043836
C28   C     C_R   0.050976 0.508141 0.520140 0.071975
C29   C     C_R   0.025499 0.619794 0.537765 0.043089
C30   C     C_R   0.052903 0.285691 0.495476 -0.201576
C31   C     C_R   0.102075 0.730668 0.543443 -0.146427
C32   C     C_R   0.947293 0.722410 0.578883 -0.200241
C33   C     C_R   0.897346 0.719352 0.579654 -0.125278
C34   C     C_R   0.592536 0.499498 0.500435 0.928001
C35   C     C_R   0.052135 0.730428 0.547059 -0.205058
C36   C     C_2   0.511602 0.932408 0.397448 -0.211006
C37   C     C_2   0.491265 0.867876 0.500339 0.282184
C38   C     C_2   0.506849 0.065698 0.387908 -0.140010
C39   C     C_2   0.507541 0.133930 0.502801 -0.214394
C40   C     C_2   0.474611 0.422195 0.920648 0.523369
C41   C     C_2   0.479529 0.414794 0.077026 -0.146518
C42   C     C_R   0.178173 0.401462 0.511599 0.597802
C43   C     C_R   0.177895 0.619971 0.527047 0.511767
C44   C     C_R   0.281050 0.555591 0.619574 -0.184083
C45   C     C_R   0.330958 0.552312 0.615080 -0.311740
C46   C     C_R   0.327331 0.453153 0.389623 0.335802
Cu1   Cu    Cu3+1 0.500010 0.500020 0.638630 1.015777
Cu2   Cu    Cu3+1 0.499990 0.499980 0.361370 1.004872
H1    H     H_    0.263501 0.591663 0.710392 0.175957
H2    H     H_    0.120743 0.817945 0.549947 0.185801
H3    H     H_    0.963566 0.808085 0.609818 0.141543
H4    H     H_    0.878224 0.802190 0.607544 0.196085
H5    H     H_    0.741496 0.622808 0.333506 0.210135
H6    H     H_    0.035413 0.819298 0.553154 0.137543
H7    H     H_    0.533020 0.887132 0.318815 0.169715
H8    H     H_    0.504619 0.107440 0.286134 0.167108
H9    H     H_    0.514036 0.092535 0.603056 0.177025
H10   H     H_    0.523698 0.555583 0.895686 0.168051
H11   H     H_    0.464907 0.334742 0.127937 0.156272
H12   H     H_    0.510438 0.578431 0.106372 0.198824
H13   H     H_    0.121745 0.200785 0.495733 0.185361
H14   H     H_    0.880369 0.207878 0.411504 0.194252
H15   H     H_    0.965678 0.205363 0.420057 0.140559
H16   H     H_    0.036411 0.196166 0.490287 0.137544
H17   H     H_    0.351104 0.588499 0.702281 0.176694
N1    N     N_R   0.202175 0.511319 0.516181 -0.444123
N2    N     N_R   0.798355 0.502576 0.507329 -0.437301
N3    N     N_2   0.499480 0.498660 0.846910 -0.295627
N4    N     N_2   0.499460 0.498630 0.153040 -0.280541
O1    O     O_R   0.500010 0.321960 0.617040 -0.513786
O2    O     O_2   0.798526 0.297621 0.430146 -0.481801
O3    O     O_2   0.202451 0.726955 0.531662 -0.548905
O4    O     O_2   0.796881 0.708934 0.579339 -0.496662
O5    O     O_R   0.499990 0.321920 0.382900 -0.595209
O6    O     O_R   0.430270 0.500040 0.617060 -0.583252
O7    O     O_R   0.430260 0.500000 0.382910 -0.534430
O8    O     O_R   0.500010 0.678080 0.617100 -0.599976
O9    O     O_R   0.499990 0.678040 0.382960 -0.584538
O10   O     O_R   0.569740 0.500000 0.617090 -0.537340
O11   O     O_R   0.569730 0.499960 0.382940 -0.521704
O12   O     O_2   0.203058 0.295345 0.507597 -0.538710
O13   O     O_3   0.350057 0.396110 0.279782 -0.604722
C47   C     C_3   0.339478 0.268563 0.279115 0.083954
H18   H     H_    0.332266 0.240836 0.170538 0.159007
H19   H     H_    0.306914 0.242033 0.339276 0.180910
C48   C     C_3   0.382539 0.195915 0.333333 -0.380803
H20   H     H_    0.414677 0.217745 0.270590 0.223089
H21   H     H_    0.390050 0.222146 0.442452 0.209266
C49   C     C_3   0.372969 0.058027 0.325661 -0.864321
H22   H     H_    0.341724 0.033151 0.391062 0.267982
H23   H     H_    0.404884 0.007385 0.363579 0.295937
H24   H     H_    0.365703 0.029674 0.217072 0.243645
Cl1   Cl    Cl    0.643367 0.665724 0.283447 -0.544610
O14   O     O_3   0.455722 0.922032 0.581409 -0.625868
C50   C     C_3   0.463749 0.905249 0.724960 0.069334
H25   H     H_    0.462056 0.996990 0.775133 0.163209
H26   H     H_    0.499930 0.868091 0.751591 0.154601
C51   C     C_3   0.423528 0.826040 0.785939 -0.328244
H27   H     H_    0.388567 0.873727 0.772115 0.217948
H28   H     H_    0.421283 0.736968 0.730528 0.236478
C52   C     C_3   0.431843 0.801832 0.939646 -0.910102
H29   H     H_    0.466297 0.752520 0.955667 0.250987
H30   H     H_    0.402178 0.744036 0.980329 0.251158
H31   H     H_    0.432752 0.889709 0.998130 0.257488
O15   O     O_3   0.250277 0.424750 0.277735 -0.595143
C53   C     C_3   0.241174 0.524986 0.189290 0.060630
H32   H     H_    0.275542 0.566790 0.153225 0.149939
H33   H     H_    0.219442 0.596048 0.243262 0.159248
C54   C     C_3   0.212975 0.479461 0.063105 -0.322495
H34   H     H_    0.235153 0.412334 0.005110 0.225292
H35   H     H_    0.179628 0.432363 0.097609 0.236148
C55   C     C_3   0.199421 0.585268 0.967437 -0.906521
H36   H     H_    0.174299 0.648601 0.020548 0.266027
H37   H     H_    0.181493 0.548631 0.872997 0.260471
H38   H     H_    0.232023 0.637168 0.936422 0.250974
O16   O     O_3   0.447217 0.334779 0.851571 -0.575294
C56   C     C_3   0.398815 0.341299 0.893996 0.044560
H39   H     H_    0.385515 0.437807 0.891105 0.145543
H40   H     H_    0.394781 0.303918 0.000189 0.139568
C57   C     C_3   0.368197 0.263459 0.795231 -0.308633
H41   H     H_    0.373522 0.295817 0.687593 0.224681
H42   H     H_    0.379925 0.166108 0.800837 0.216529
C58   C     C_3   0.314849 0.270991 0.829937 -0.890159
H43   H     H_    0.307958 0.230180 0.932999 0.246346
H44   H     H_    0.293674 0.219328 0.751309 0.276376
H45   H     H_    0.302673 0.367911 0.829834 0.260147
Cl2   Cl    Cl    0.640299 0.331060 0.718580 -0.478199
Cl3   Cl    Cl    0.753117 0.350973 0.735256 -0.448828

loop_
_geom_bond_atom_site_label_1
_geom_bond_atom_site_label_2
_ccdc_geom_bond_type
C44   H1    S    
C10   C27   A    
C21   C26   A    
C52   H29   S    
C30   H16   S    
Cu2   O7    S    
C20   N2    A    
C50   H25   S    
Cu1   O10   S    
Cu2   N4    S    
C5    C42   A    
C55   H37   S    
C50   C51   S    
C58   H43   S    
C32   H3    S    
C40   O16   S    
C2    C46   A    
C33   H4    S    
C43   O3    S    
C26   N2    S    
C6    H13   S    
C28   C29   A    
C25   H5    S    
C56   H40   S    
C5    C6    A    
C48   H21   S    
C9    C22   A    
C58   H44   S    
C53   H32   S    
C15   C16   A    
C39   H9    S    
O16   C56   S    
C18   C19   A    
Cu2   O9    S    
C8    C45   A    
C34   O11   A    
C46   O13   S    
C47   H18   S    
C16   C17   A    
C20   O2    S    
C19   N2    A    
C7    C43   A    
C49   H23   S    
C24   Cl1   S    
C57   C58   S    
C16   C20   A    
C52   H30   S    
C21   C22   A    
C35   H6    S    
C42   O12   S    
C4    C7    A    
C55   H36   S    
C4    C28   A    
C57   H42   S    
C3    C44   A    
C7    C31   A    
Cu2   O5    S    
C19   O4    S    
C24   C25   A    
C41   H11   S    
C10   C14   A    
C56   C57   S    
C48   H20   S    
C58   H45   S    
C25   C26   A    
C23   C37   S    
C48   C49   S    
C49   H24   S    
Cu1   O1    S    
C34   O10   A    
Cu1   Cu2   S    
C8    C12   S    
C17   C18   A    
C23   O8    A    
C21   Cl3   S    
H10   N3    S    
C40   C41   S    
C47   H19   S    
C11   C32   A    
C51   H27   S    
C52   H31   S    
C51   H28   S    
C12   O7    A    
C45   H17   S    
C9    C34   S    
C31   C35   A    
C54   C55   S    
C3    N1    S    
C1    O5    A    
C31   H2    S    
Cu1   N3    S    
C57   H41   S    
C41   N4    D    
C36   C37   D    
C6    C30   A    
C44   C45   A    
C4    C5    A    
C10   C13   A    
C50   H26   S    
C9    C24   A    
C51   C52   S    
O15   C53   S    
C29   C35   A    
C2    O15   S    
C1    O1    A    
C13   C17   A    
C32   C33   A    
Cu2   O11   S    
C54   H35   S    
C2    C3    A    
Cu1   O6    S    
C36   H7    S    
C56   H39   S    
C11   C13   A    
C22   Cl2   S    
C38   C39   D    
C53   H33   S    
H12   N4    S    
C43   N1    A    
C14   H15   S    
C36   C38   S    
C15   H14   S    
C37   O14   S    
C23   O9    A    
O14   C50   S    
C18   C33   A    
C8    C46   A    
C1    C39   S    
C47   C48   S    
C38   H8    S    
C11   C29   A    
O13   C47   S    
C40   N3    D    
C12   O6    A    
C27   C28   A    
C42   N1    A    
Cu1   O8    S    
C14   C15   A    
C49   H22   S    
C54   H34   S    
C55   H38   S    
C27   C30   A    
C53   C54   S    
