data_mof_unit_5295.cif
_audit_creation_date              2012-12-11T20:10:35-0500
_audit_creation_method            fapswitch 2.2
_symmetry_space_group_name_H-M    P1
_symmetry_Int_Tables_number       1
_space_group_crystal_system       triclinic
_cell_length_a                    8.191523
_cell_length_b                    16.101715
_cell_length_c                    18.784532
_cell_angle_alpha                 112.000183
_cell_angle_beta                  91.144503
_cell_angle_gamma                 84.303647
_cell_volume                      2285.47779142

loop_
_atom_site_label
_atom_site_type_symbol
_atom_type_description
_atom_site_fract_x
_atom_site_fract_y
_atom_site_fract_z
_atom_type_partial_charge
Ba1   Ba    Ba6+2 0.333520 0.539550 0.472180 1.643578
Ba2   Ba    Ba6+2 0.856270 0.460520 0.527840 1.638549
C1    C     C_3   0.028641 0.858051 0.345969 -0.358781
C2    C     C_R   0.420772 0.420791 0.080062 0.020480
C3    C     C_R   0.270366 0.386754 0.051055 -0.070494
C4    C     C_3   0.528538 0.719234 0.305861 0.339267
C5    C     C_R   0.206174 0.393807 0.984231 -0.077685
C6    C     C_R   0.291674 0.433304 0.943601 0.031020
C7    C     C_R   0.438198 0.471288 0.973137 0.026247
C8    C     C_R   0.234419 0.432649 0.872824 -0.101392
C9    C     C_R   0.324165 0.466566 0.828484 -0.043812
C10   C     C_R   0.467321 0.509035 0.859261 -0.005524
C11   C     C_R   0.523709 0.511214 0.931984 0.006465
C12   C     C_3   0.037858 0.767436 0.354542 0.354726
C13   C     C_R   0.277409 0.457220 0.753399 -0.005809
C14   C     C_R   0.372291 0.489109 0.710000 -0.308194
C15   C     C_R   0.506216 0.537152 0.740854 0.041046
C16   C     C_3   0.504929 0.743856 0.235449 -0.340830
C17   C     C_R   0.555228 0.548050 0.817078 -0.046940
C18   C     C_R   0.647602 0.504450 0.072568 -0.001202
C19   C     C_R   0.708795 0.500934 0.143028 -0.005740
C20   C     C_R   0.627345 0.454813 0.181885 -0.057997
C21   C     C_R   0.494686 0.405713 0.143306 -0.023422
C22   C     C_R   0.691211 0.594161 0.851970 -0.033906
C23   C     C_3   0.061363 0.309568 0.278345 0.295834
C24   C     C_R   0.752266 0.591785 0.921863 0.027540
C25   C     C_R   0.669015 0.549937 0.962088 0.013309
C26   C     C_R   0.731578 0.546533 0.032189 0.016075
C27   C     C_R   0.898644 0.628733 0.950958 -0.098066
C28   C     C_3   0.625128 0.736967 0.662059 0.296734
C29   C     C_R   0.963566 0.624341 0.019182 -0.039664
C30   C     C_R   0.879461 0.583867 0.060992 0.004256
C31   C     C_R   0.854062 0.541740 0.173278 -0.042495
C32   C     C_R   0.939181 0.580327 0.130798 -0.111463
C33   C     C_R   0.909341 0.543670 0.245701 -0.002967
C34   C     C_3   0.983292 0.272999 0.199011 -0.303992
C35   C     C_R   0.819083 0.507352 0.287210 -0.289765
C36   C     C_R   0.682176 0.461523 0.257151 0.035334
C37   C     C_2   0.404118 0.236940 0.483177 -0.263869
C38   C     C_R   0.807798 0.750756 0.512564 -0.293994
C39   C     C_2   0.211535 0.122134 0.431443 -0.117871
C40   C     C_3   0.615960 0.839159 0.698449 -0.368138
C41   C     C_2   0.253639 0.204262 0.442089 0.030314
C42   C     C_2   0.500461 0.188703 0.515268 0.026850
C43   C     C_3   0.433463 0.108227 0.524128 -0.091986
C44   C     C_3   0.314681 0.059761 0.460939 0.033504
C45   C     C_3   0.654217 0.295115 0.703877 0.360721
C46   C     C_2   0.551848 0.045027 0.546561 -0.031357
C47   C     C_2   0.615968 0.965623 0.494113 -0.072305
C48   C     C_R   0.868492 0.930209 0.555749 0.005359
C49   C     C_R   0.727133 0.900603 0.514540 -0.055062
C50   C     C_R   0.975106 0.871712 0.577773 -0.130700
C51   C     C_R   0.943752 0.782001 0.556779 0.067529
C52   C     C_3   0.599841 0.253808 0.333292 0.285918
C53   C     C_R   0.694922 0.810170 0.493994 -0.004559
C54   C     C_3   0.694191 0.160958 0.294045 -0.276619
C55   C     C_3   0.146635 0.671600 0.713573 0.312669
C56   C     C_3   0.702740 0.292168 0.781796 -0.318733
C57   C     C_3   0.150002 0.703833 0.800711 -0.387028
C58   C     C_1   0.680858 0.101105 0.335510 0.231527
C59   C     C_1   0.081408 0.194722 0.144240 0.368606
C60   C     C_1   0.204397 0.151942 0.743506 0.319267
C61   C     C_1   0.454453 0.325801 0.153933 0.292944
C62   C     C_1   0.117856 0.661412 0.044264 0.257313
C63   C     C_1   0.573049 0.065134 0.627710 0.278996
C64   C     C_3   0.146343 0.233565 0.656367 0.361262
C65   C     C_3   0.135041 0.145974 0.669256 -0.248162
C66   C     C_R   0.500819 0.467092 0.042818 0.010368
H1    H     H_    0.108761 0.772154 0.406704 0.093768
H2    H     H_    0.153890 0.875178 0.339128 0.147961
H3    H     H_    0.227663 0.760493 0.823967 0.134498
H4    H     H_    0.200666 0.648555 0.818793 0.059626
H5    H     H_    0.023514 0.726957 0.824829 0.120816
H6    H     H_    0.911044 0.752849 0.361620 -0.063882
H7    H     H_    0.968879 0.911367 0.397721 0.086441
H8    H     H_    0.965073 0.355569 0.318950 -0.000306
H9    H     H_    0.162716 0.349004 0.275634 0.063724
H10   H     H_    0.860930 0.252202 0.204277 0.098703
H11   H     H_    0.955708 0.855643 0.294868 0.120532
H12   H     H_    0.712025 0.859903 0.742457 0.132633
H13   H     H_    0.569472 0.690789 0.185054 0.082654
H14   H     H_    0.670357 0.363440 0.705567 0.060945
H15   H     H_    0.523581 0.282703 0.694841 -0.060305
H16   H     H_    0.811557 0.329443 0.803592 0.134217
H17   H     H_    0.600324 0.324020 0.823909 0.066518
H18   H     H_    0.731703 0.221826 0.777800 0.151295
H19   H     H_    0.277006 0.245331 0.655405 -0.094115
H20   H     H_    0.202515 0.088880 0.622840 0.034305
H21   H     H_    0.477946 0.653947 0.293958 0.092509
H22   H     H_    0.005032 0.131843 0.668367 0.128468
H23   H     H_    0.634945 0.867557 0.654241 0.068717
H24   H     H_    0.201248 0.354278 0.079983 0.067332
H25   H     H_    0.091607 0.365890 0.963136 0.077161
H26   H     H_    0.336139 0.480426 0.652135 0.073149
H27   H     H_    0.121790 0.402835 0.852045 0.106181
H28   H     H_    0.755263 0.629493 0.824120 0.101748
H29   H     H_    0.964504 0.659848 0.919674 0.066534
H30   H     H_    0.052853 0.608259 0.151993 0.117916
H31   H     H_    0.662164 0.711735 0.315928 -0.065644
H32   H     H_    0.859621 0.512504 0.343745 0.071679
H33   H     H_    0.103970 0.097893 0.398447 0.094395
H34   H     H_    0.493346 0.866821 0.725968 0.135418
H35   H     H_    0.080448 0.896715 0.611884 0.097105
H36   H     H_    0.440263 0.299997 0.483349 0.048971
H37   H     H_    0.783917 0.681350 0.497322 0.072922
H38   H     H_    0.582534 0.946085 0.434310 0.118099
H39   H     H_    0.372372 0.750402 0.222787 0.164317
H40   H     H_    0.555805 0.808713 0.245724 0.117022
H41   H     H_    0.749416 0.710047 0.637831 0.006134
H42   H     H_    0.534040 0.718176 0.615680 0.075490
H43   H     H_    0.471322 0.245741 0.344124 -0.015332
H44   H     H_    0.967024 0.326818 0.175229 0.014336
H45   H     H_    0.658758 0.290748 0.388090 0.075139
H46   H     H_    0.092414 0.226346 0.599896 0.080893
H47   H     H_    0.646123 0.127885 0.235457 0.117288
H48   H     H_    0.825883 0.168465 0.288399 0.108127
H49   H     H_    0.273882 0.653353 0.690621 0.007433
H50   H     H_    0.076429 0.611764 0.691506 0.067330
N1    N     N_1   0.672225 0.052080 0.366834 -0.305692
N2    N     N_1   0.157546 0.132591 0.100868 -0.264918
N3    N     N_1   0.258806 0.156929 0.802136 -0.275220
N4    N     N_1   0.419975 0.260094 0.158619 -0.264276
N5    N     N_1   0.241538 0.690910 0.064189 -0.299377
N6    N     N_1   0.589836 0.079933 0.692456 -0.299306
O1    O     O_2   0.402610 0.439360 0.314250 -0.460001
O2    O     O_2   0.842389 0.187578 0.501937 -0.480435
O3    O     O_3   0.752599 0.228995 0.645435 -0.593180
O4    O     O_3   0.648560 0.446300 0.404730 -0.494573
O5    O     O_3   0.025080 0.609480 0.556050 -0.488872
O6    O     O_2   0.948320 0.280590 0.426090 -0.467447
O7    O     O_3   0.124095 0.238491 0.300711 -0.639816
O8    O     O_2   0.938966 0.469250 0.750124 -0.491973
O9    O     O_3   0.058683 0.304394 0.715314 -0.601904
O10   O     O_3   0.108870 0.604000 0.387500 -0.483578
O11   O     O_2   0.251846 0.536794 0.249791 -0.493531
O12   O     O_3   0.072259 0.741601 0.693525 -0.631090
O13   O     O_3   0.599035 0.296122 0.280508 -0.634117
O14   O     O_3   0.116343 0.701088 0.289243 -0.602956
O15   O     O_2   0.241370 0.719440 0.573960 -0.466002
O16   O     O_3   0.507090 0.652150 0.432150 -0.485880
O17   O     O_2   0.355907 0.814760 0.509390 -0.489561
O18   O     O_3   0.445478 0.787114 0.368920 -0.600608
O19   O     O_2   0.787080 0.560670 0.685800 -0.462812
O20   O     O_3   0.541120 0.553770 0.595290 -0.497862
O21   O     O_3   0.080800 0.396070 0.612520 -0.475805
O22   O     O_3   0.591977 0.704013 0.718745 -0.636749
O23   O     O_3   0.164600 0.390590 0.443970 -0.470960
O24   O     O_3   0.682580 0.347920 0.567870 -0.481947
P1    P     P_3+3 0.582960 0.413890 0.320860 0.984087
P2    P     P_3+3 0.071690 0.707860 0.593450 0.984027
P3    P     P_3+3 0.500264 0.767516 0.452162 0.943208
P4    P     P_3+3 0.606720 0.586180 0.679160 0.973881
P5    P     P_3+3 0.694724 0.235107 0.557107 0.961125
P6    P     P_3+3 0.096203 0.595076 0.292081 0.938254
P7    P     P_3+3 0.130921 0.276638 0.401152 0.949429
P8    P     P_3+3 0.090526 0.406774 0.708213 0.942493

loop_
_geom_bond_atom_site_label_1
_geom_bond_atom_site_label_2
_ccdc_geom_bond_type
C50   H35   S    
C40   H12   S    
O9    P8    S    
Ba2   O20   S    
Ba1   O4    S    
C1    H11   S    
O3    P5    S    
C37   H36   S    
C43   C44   S    
C42   C43   S    
Ba2   O21   S    
C65   H20   S    
O11   P6    D    
C60   C65   S    
C28   H42   S    
C23   H9    S    
C42   P5    S    
C12   H6    S    
C55   H49   S    
C33   C35   A    
Ba1   O1    S    
Ba1   Ba2   S    
Ba1   O5    S    
C22   H28   S    
C41   P7    S    
C55   C57   S    
C52   O13   S    
C19   C31   A    
Ba2   O24   S    
C13   C14   A    
C20   C36   A    
C52   H45   S    
C56   H18   S    
C16   H13   S    
C58   N1    T    
C40   H23   S    
C45   H14   S    
C7    C11   A    
C16   H39   S    
C32   H30   S    
O21   P8    S    
C9    C13   A    
C12   O14   S    
C6    C7    A    
C47   C49   S    
C34   H44   S    
C48   C50   A    
C39   C44   S    
C33   P6    S    
C55   O12   S    
Ba1   P1    S    
O6    P7    D    
C45   H15   S    
C46   C63   S    
C4    O18   S    
C1    H7    S    
C57   H5    S    
C36   P1    S    
Ba1   O15   S    
C57   H4    S    
O14   P6    S    
C21   C61   S    
C64   C65   S    
C19   C20   A    
C59   N2    T    
Ba2   O19   S    
C39   C41   D    
O13   P1    S    
C4    C16   S    
C40   H34   S    
C28   O22   S    
Ba2   P4    S    
C5    H25   S    
C52   C54   S    
C28   H41   S    
C26   C30   A    
C1    H2    S    
C64   H19   S    
C2    C66   A    
C2    C21   A    
C14   C15   A    
C37   C41   S    
C18   C26   A    
C48   C49   A    
Ba2   O23   S    
C65   H22   S    
C54   C58   S    
C30   C32   A    
O18   P3    S    
C35   C36   A    
C56   H16   S    
C64   O9    S    
C29   C30   A    
C27   C29   A    
C38   C53   A    
C31   C32   A    
C54   H48   S    
Ba1   P2    S    
C10   C11   A    
C53   P3    S    
Ba1   O16   S    
O16   P3    S    
C13   P8    S    
C37   C42   D    
C1    C12   S    
O1    P1    D    
O22   P4    S    
O19   P4    D    
C24   C25   A    
C51   P2    S    
C12   H1    S    
Ba1   O23   S    
C15   P4    S    
O24   P5    S    
C15   C17   A    
C34   C59   S    
C23   O7    S    
C56   H17   S    
Ba2   O6    S    
C61   N4    T    
O23   P7    S    
C50   C51   A    
O17   P3    D    
C3    C5    A    
C43   C46   S    
C46   C47   D    
C64   H46   S    
C29   C62   S    
C18   C66   A    
C28   C40   S    
C22   C24   A    
C2    C3    A    
O12   P2    S    
C9    C10   A    
C45   O3    S    
C47   H38   S    
C4    H21   S    
O15   P2    D    
C14   H26   S    
C27   H29   S    
C23   H8    S    
C4    H31   S    
O7    P7    S    
C17   C22   A    
C7    C66   A    
O5    P2    S    
O20   P4    S    
Ba1   O20   S    
C34   H10   S    
C45   C56   S    
O10   P6    S    
C62   N5    T    
C8    H27   S    
C10   C17   A    
C31   C33   A    
C54   H47   S    
C39   H33   S    
C52   H43   S    
C49   C53   A    
C35   H32   S    
O8    P8    D    
C16   H40   S    
C3    H24   S    
C5    C6    A    
C8    C9    A    
C23   C34   S    
C63   N6    T    
O2    P5    D    
O4    P1    S    
C18   C19   A    
C55   H50   S    
C24   C27   A    
C6    C8    A    
C38   C51   A    
Ba2   O5    S    
C20   C21   A    
C11   C25   A    
C60   N3    T    
Ba1   O10   S    
C57   H3    S    
C38   H37   S    
C25   C26   A    
Ba2   O4    S    
