data_mof_unit_55488.cif
_audit_creation_date              2012-10-26T20:03:21-0400
_audit_creation_method            fapswitch 2.2
_symmetry_space_group_name_H-M    P1
_symmetry_Int_Tables_number       1
_space_group_crystal_system       triclinic
_cell_length_a                    10.605506
_cell_length_b                    12.328952
_cell_length_c                    13.209423
_cell_angle_alpha                 116.622725
_cell_angle_beta                  77.638435
_cell_angle_gamma                 100.99718
_cell_volume                      1499.35497588

loop_
_atom_site_label
_atom_site_type_symbol
_atom_type_description
_atom_site_fract_x
_atom_site_fract_y
_atom_site_fract_z
_atom_type_partial_charge
C1    C     C_R   0.514299 0.854706 0.286555 0.532082
C2    C     C_R   0.543253 0.560106 0.018709 -0.003455
C3    C     C_R   0.484741 0.647394 0.123917 0.002488
C4    C     C_R   0.740247 0.998924 0.499319 0.552927
C5    C     C_R   0.488047 0.435911 0.981936 0.032032
C6    C     C_R   0.395411 0.398485 0.058208 0.052889
C7    C     C_R   0.340685 0.485705 0.160970 -0.132916
C8    C     C_R   0.377721 0.608446 0.188851 -0.111839
C9    C     C_R   0.511927 0.350124 0.868320 -0.120417
C10   C     C_R   0.386873 0.188817 0.915606 -0.130929
C11   C     C_R   0.537275 0.771359 0.164388 -0.026852
C12   C     C_3   0.018223 0.013681 0.601806 -0.120688
C13   C     C_R   0.710622 0.346198 0.330671 -0.134857
C14   C     C_R   0.323242 0.758884 0.644122 0.059831
C15   C     C_R   0.284728 0.661775 0.674527 -0.147919
C16   C     C_R   0.481609 0.145038 0.713264 0.548527
C17   C     C_R   0.351665 0.558672 0.619880 -0.127540
C18   C     C_R   0.458887 0.551352 0.533543 -0.013568
C19   C     C_R   0.494394 0.653031 0.505256 0.148784
C20   C     C_R   0.531872 0.447637 0.474696 -0.037005
C21   C     C_R   0.639807 0.448242 0.389642 0.051017
C22   C     C_R   0.675000 0.549420 0.363255 0.102780
C23   C     C_3   0.933546 0.905794 0.521083 -0.122769
C24   C     C_R   0.601181 0.648345 0.420131 -0.077316
C25   C     C_R   0.502700 0.342335 0.496745 0.046052
C26   C     C_R   0.676557 0.246257 0.356489 0.040269
C27   C     C_R   0.259818 0.000295 0.499586 0.550235
C28   C     C_3   0.982739 0.984169 0.396731 -0.010667
C29   C     C_3   0.041121 0.892136 0.417490 -0.135698
C30   C     C_3   0.123276 0.000304 0.498371 0.032421
C31   C     C_3   0.067232 0.092102 0.475749 -0.114936
C32   C     C_3   0.959724 0.105227 0.579239 -0.129356
C33   C     C_1   0.748526 0.517775 0.875166 0.184410
C34   C     C_3   0.876990 0.997475 0.498696 0.027593
C35   C     C_1   0.802588 0.771178 0.928358 0.225931
C36   C     C_3   0.800327 0.627225 0.221796 -0.296677
C37   C     C_1   0.960589 0.967441 0.284469 0.176448
C38   C     C_R   0.350535 0.274645 0.026452 -0.125531
C39   C     C_R   0.462845 0.227599 0.834865 -0.002557
C40   C     C_R   0.633381 0.810503 0.093651 -0.142537
C41   C     C_R   0.694075 0.726361 0.991967 -0.022526
C42   C     C_R   0.657049 0.600626 0.958411 -0.032628
Cu1   Cu    Cu3+1 0.529830 0.098270 0.475420 0.945582
Cu2   Cu    Cu3+1 0.470170 0.901730 0.524580 0.918457
H1    H     H_    0.077429 0.805468 0.350894 0.107661
H2    H     H_    0.202737 0.666427 0.740708 0.130841
H3    H     H_    0.631499 0.721847 0.396989 0.191542
H4    H     H_    0.124257 0.167850 0.456567 0.126293
H5    H     H_    0.923288 0.191936 0.645519 0.147390
H6    H     H_    0.036280 0.025982 0.686248 0.126431
H7    H     H_    0.876301 0.829659 0.539508 0.138829
H8    H     H_    0.347566 0.094193 0.890968 0.132167
H9    H     H_    0.263346 0.459278 0.216674 0.107990
H10   H     H_    0.282904 0.245099 0.085648 0.117541
H11   H     H_    0.874069 0.548924 0.305880 0.246477
H12   H     H_    0.560241 0.379358 0.802791 0.147479
H13   H     H_    0.880071 0.599614 0.148521 0.161118
H14   H     H_    0.823844 0.724740 0.279128 0.136733
H15   H     H_    0.709180 0.614487 0.187664 0.175426
H16   H     H_    0.671034 0.906150 0.123197 0.150844
H17   H     H_    0.321839 0.672353 0.262944 0.144147
H18   H     H_    0.731268 0.168103 0.311347 0.138665
H19   H     H_    0.791857 0.342278 0.264099 0.126839
H20   H     H_    0.423263 0.334322 0.559994 0.119702
H21   H     H_    0.270875 0.838608 0.686978 0.133488
H22   H     H_    0.317446 0.486577 0.647236 0.104452
N1    N     N_R   0.575030 0.246270 0.438190 -0.235058
N2    N     N_R   0.425760 0.754330 0.561190 -0.237881
N3    N     N_1   0.822073 0.452187 0.809066 -0.313351
N4    N     N_1   0.889393 0.807016 0.877498 -0.301866
N5    N     N_2   0.788564 0.552085 0.282479 -0.534915
N6    N     N_1   0.942935 0.954166 0.195984 -0.319420
O1    O     O_R   0.537510 0.972500 0.318130 -0.498518
O2    O     O_R   0.487140 0.806530 0.359650 -0.532007
O3    O     O_R   0.708330 0.082950 0.479220 -0.492079
O4    O     O_R   0.657960 0.916980 0.520740 -0.526579
O5    O     O_R   0.512860 0.193470 0.640350 -0.507546
O6    O     O_R   0.462490 0.027500 0.681870 -0.503021
O7    O     O_R   0.342040 0.083020 0.479260 -0.507942
O8    O     O_R   0.291670 0.917050 0.520780 -0.511446

loop_
_geom_bond_atom_site_label_1
_geom_bond_atom_site_label_2
_ccdc_geom_bond_type
Cu1   O1    S    
C40   H16   S    
C41   C42   A    
C25   N1    A    
C36   H15   S    
C10   H8    S    
C7    C8    A    
C12   C23   S    
C17   H22   S    
C26   N1    A    
C23   C29   S    
C28   C29   S    
C18   C19   A    
C27   O7    A    
C5    C6    A    
C7    H9    S    
C20   C25   A    
Cu1   O7    S    
C9    C39   A    
C16   O5    A    
Cu2   O4    S    
C4    O3    A    
C35   N4    T    
C38   H10   S    
C6    C38   A    
C16   O6    A    
C36   N5    S    
C33   N3    T    
C8    H17   S    
C28   C34   S    
C21   C22   A    
C12   C32   S    
C27   C30   S    
Cu1   O3    S    
C4    C34   S    
Cu2   O8    S    
C36   H13   S    
C29   H1    S    
C10   C39   A    
C25   H20   S    
C32   C34   S    
Cu1   Cu2   S    
C5    C9    A    
C29   C30   S    
C23   H7    S    
C31   C32   S    
C13   H19   S    
C23   C34   S    
C17   C18   A    
C13   C21   A    
C19   N2    A    
C9    H12   S    
Cu2   O2    S    
C40   C41   A    
C3    C8    A    
C31   H4    S    
C22   C24   A    
C13   C26   A    
Cu2   N2    S    
C2    C5    A    
C1    O2    A    
C22   N5    S    
C15   C17   A    
C33   C42   S    
C12   C30   S    
C24   H3    S    
C28   C31   S    
C12   H6    S    
C6    C7    A    
Cu1   O5    S    
C36   H14   S    
C10   C38   A    
C1    O1    A    
Cu2   O6    S    
C2    C3    A    
C26   H18   S    
C30   C31   S    
C28   C37   S    
C2    C42   A    
C14   H21   S    
C19   C24   A    
C18   C20   A    
C11   C40   A    
C35   C41   S    
C32   H5    S    
C4    O4    A    
C3    C11   A    
C16   C39   S    
C20   C21   A    
C27   O8    A    
Cu1   N1    S    
C37   N6    T    
C14   N2    A    
C14   C15   A    
C1    C11   S    
C15   H2    S    
H11   N5    S    
