data_mof_unit_55996.cif
_audit_creation_date              2012-12-10T19:15:19-0500
_audit_creation_method            fapswitch 2.2
_symmetry_space_group_name_H-M    P1
_symmetry_Int_Tables_number       1
_space_group_crystal_system       triclinic
_cell_length_a                    10.83109
_cell_length_b                    10.08534
_cell_length_c                    23.386098
_cell_angle_alpha                 91.236498
_cell_angle_beta                  88.671274
_cell_angle_gamma                 92.267331
_cell_volume                      2551.35344169

loop_
_atom_site_label
_atom_site_type_symbol
_atom_type_description
_atom_site_fract_x
_atom_site_fract_y
_atom_site_fract_z
_atom_type_partial_charge
C1    C     C_R   0.259608 0.497429 0.502805 0.835275
C2    C     C_R   0.338921 0.653501 0.969862 -0.175596
C3    C     C_R   0.329993 0.652696 0.029633 0.151169
C4    C     C_R   0.420343 0.585390 0.060590 -0.028105
C5    C     C_R   0.514881 0.517563 0.029964 -0.045551
C6    C     C_R   0.603323 0.445766 0.059241 -0.097247
C7    C     C_R   0.702936 0.388092 0.028109 -0.037791
C8    C     C_R   0.704367 0.389233 0.968506 -0.191471
C9    C     C_R   0.421545 0.582292 0.120826 0.524291
C10   C     C_R   0.585218 0.430092 0.118290 0.592876
C11   C     C_R   0.592019 0.551041 0.238507 -0.108054
C12   C     C_R   0.496576 0.498150 0.390018 0.929270
C13   C     C_R   0.590443 0.549826 0.297299 -0.150276
C14   C     C_R   0.490502 0.492959 0.327651 -0.054241
C15   C     C_R   0.390477 0.429240 0.298092 0.028228
C16   C     C_R   0.391189 0.433126 0.237361 0.032226
C17   C     C_R   0.493427 0.494296 0.208415 0.200528
C18   C     C_R   0.565857 0.622761 0.759474 -0.081963
C19   C     C_R   0.559206 0.618847 0.700274 -0.148647
C20   C     C_R   0.511438 0.504407 0.672081 -0.047186
C21   C     C_R   0.474763 0.392219 0.703607 -0.179032
C22   C     C_R   0.481838 0.396253 0.762818 -0.104944
C23   C     C_R   0.743022 0.501825 0.497145 0.900604
C24   C     C_R   0.526190 0.511912 0.790660 0.296348
C25   C     C_3   0.075019 0.611409 0.536143 -0.323345
C26   C     C_3   0.065264 0.365999 0.527182 -0.374855
C27   C     C_3   0.934435 0.606872 0.538288 -0.370269
C28   C     C_3   0.925143 0.367954 0.518762 -0.356849
C29   C     C_3   0.087600 0.492571 0.437920 -0.483605
C30   C     C_3   0.124447 0.492347 0.501219 0.094197
C31   C     C_3   0.883306 0.502761 0.494926 -0.061397
C32   C     C_3   0.947943 0.521232 0.432324 -0.100583
C33   C     C_3   0.422057 0.072833 0.452844 -0.261433
C34   C     C_3   0.405881 0.914767 0.459738 -0.217585
C35   C     C_3   0.630518 0.086241 0.490994 -0.150169
C36   C     C_3   0.624058 0.923070 0.479904 -0.252121
C37   C     C_3   0.442287 0.081873 0.552767 -0.160462
C38   C     C_3   0.468044 0.927703 0.556559 -0.224277
C39   C     C_R   0.502469 0.501292 0.609997 0.891536
C40   C     C_R   0.615012 0.453298 0.879370 0.520871
C41   C     C_R   0.437178 0.585685 0.880102 0.527060
C42   C     C_R   0.432138 0.587850 0.939930 -0.051062
C43   C     C_R   0.520506 0.520031 0.969773 -0.012750
C44   C     C_R   0.613695 0.453118 0.939169 -0.028431
H1    H     H_    0.270076 0.703475 0.946287 0.194324
H2    H     H_    0.592082 0.704849 0.676688 0.188944
H3    H     H_    0.439156 0.302354 0.682697 0.204060
H4    H     H_    0.451292 0.310501 0.787214 0.155260
H5    H     H_    0.108524 0.705721 0.516644 0.283550
H6    H     H_    0.101416 0.276342 0.505295 0.223652
H7    H     H_    0.108630 0.608401 0.580640 0.168871
H8    H     H_    0.086139 0.361135 0.573461 0.210375
H9    H     H_    0.899836 0.584266 0.582401 0.180411
H10   H     H_    0.878889 0.348562 0.560730 0.208928
H11   H     H_    0.905073 0.705171 0.529338 0.286301
H12   H     H_    0.900010 0.288005 0.487976 0.246541
H13   H     H_    0.149467 0.562828 0.413175 0.167109
H14   H     H_    0.107998 0.393139 0.419884 0.208712
H15   H     H_    0.458992 0.096019 0.409950 0.224746
H16   H     H_    0.407672 0.862985 0.417452 0.184626
H17   H     H_    0.330757 0.118302 0.451603 0.190365
H18   H     H_    0.311223 0.888479 0.475691 0.249788
H19   H     H_    0.485340 0.128075 0.590568 0.182663
H20   H     H_    0.550106 0.932085 0.583347 0.117177
H21   H     H_    0.779349 0.343248 0.944954 0.215870
H22   H     H_    0.670735 0.596343 0.215899 0.173887
H23   H     H_    0.670252 0.589259 0.318980 0.208143
H24   H     H_    0.601076 0.711806 0.781217 0.152316
N1    N     N_R   0.526955 0.518077 0.851445 -0.358543
N2    N     N_R   0.498795 0.501019 0.147440 -0.338803
N3    N     N_3   0.499750 0.138610 0.498760 -0.129522
N4    N     N_3   0.499750 0.861390 0.498760 -0.168379
O1    O     O_R   0.314910 0.616040 0.499990 -0.609213
O2    O     O_R   0.314910 0.383960 0.499990 -0.635566
O3    O     O_R   0.500080 0.616070 0.416130 -0.616477
O4    O     O_R   0.500080 0.383930 0.416130 -0.551536
O5    O     O_R   0.685320 0.616040 0.499970 -0.623141
O6    O     O_R   0.685320 0.383960 0.499970 -0.603099
O7    O     O_R   0.500150 0.616010 0.583820 -0.653583
O8    O     O_R   0.500150 0.383990 0.583820 -0.561304
O9    O     O_2   0.703148 0.389305 0.849221 -0.542336
O10   O     O_2   0.352224 0.648904 0.850619 -0.535734
O11   O     O_2   0.347887 0.659415 0.153287 -0.560960
O12   O     O_2   0.650082 0.341983 0.146670 -0.494233
Zn1   Zn    Zn3+2 0.500150 0.654960 0.499970 0.963502
Zn2   Zn    Zn3+2 0.500150 0.345040 0.499970 1.007347
C45   C     C_2   0.949267 0.659266 0.406372 0.980050
O13   O     O_2   0.991720 0.755581 0.432682 -0.567907
O14   O     O_R   0.927570 0.671664 0.347875 -0.797032
H25   H     H_    0.945717 0.765066 0.333868 0.355099
C46   C     C_2   0.887761 0.427181 0.388027 0.914898
O15   O     O_2   0.777056 0.431606 0.380379 -0.608352
O16   O     O_R   0.958909 0.347632 0.351403 -0.803373
H26   H     H_    0.908274 0.300323 0.320661 0.372708
C47   C     C_3   0.218013 0.717923 0.056756 -0.387540
C48   C     C_3   0.121004 0.614358 0.077394 -0.657803
H27   H     H_    0.086112 0.554025 0.040433 0.240372
H28   H     H_    0.159435 0.546745 0.108599 0.292800
H29   H     H_    0.042076 0.665030 0.098178 0.259113
H30   H     H_    0.244620 0.789703 0.091230 0.264191
H31   H     H_    0.172388 0.779695 0.025228 0.190394
C49   C     C_2   0.701444 0.145458 0.439293 0.937299
O17   O     O_2   0.650619 0.210022 0.404170 -0.534649
O18   O     O_R   0.823193 0.109366 0.427954 -0.768531
H32   H     H_    0.854774 0.135310 0.388591 0.362260
C50   C     C_2   0.645283 0.880980 0.415856 0.965149
O19   O     O_2   0.602407 0.942177 0.376795 -0.651331
O20   O     O_R   0.713502 0.771219 0.401497 -0.764722
H33   H     H_    0.730455 0.768065 0.358899 0.346758
C51   C     C_2   0.307693 0.120124 0.564025 0.939652
O21   O     O_2   0.284474 0.201381 0.601988 -0.648277
O22   O     O_R   0.210033 0.059648 0.533811 -0.786876
H34   H     H_    0.126019 0.081528 0.550639 0.376196
C52   C     C_2   0.373286 0.854127 0.593899 0.998214
O23   O     O_2   0.399486 0.827128 0.642794 -0.641491
O24   O     O_R   0.253216 0.829294 0.575957 -0.786182
H35   H     H_    0.195497 0.803221 0.608899 0.338765
C53   C     C_2   0.712618 0.132883 0.543305 0.850082
O25   O     O_2   0.820688 0.102955 0.545453 -0.579973
O26   O     O_R   0.670752 0.217913 0.586692 -0.793177
H36   H     H_    0.731975 0.234627 0.618459 0.337920
C54   C     C_2   0.735508 0.870410 0.510626 0.998251
O27   O     O_2   0.836787 0.890204 0.487925 -0.469212
O28   O     O_R   0.734602 0.824692 0.566750 -0.811155
H37   H     H_    0.658731 0.771930 0.578702 0.333769
C55   C     C_2   0.812758 0.335109 0.055223 0.985096
O29   O     O_2   0.863324 0.397200 0.094245 -0.589210
O30   O     O_R   0.862532 0.217708 0.033844 -0.792606
H38   H     H_    0.938655 0.192965 0.055030 0.349661
C56   C     C_3   0.286606 0.355614 0.330601 -0.419706
C57   C     C_3   0.288781 0.205586 0.320061 -0.728091
H39   H     H_    0.383917 0.170630 0.324331 0.271614
H40   H     H_    0.226904 0.154378 0.351821 0.248002
H41   H     H_    0.255752 0.177597 0.276795 0.269312
H42   H     H_    0.293066 0.373368 0.377137 0.190664
H43   H     H_    0.195914 0.393111 0.319111 0.281534
C58   C     C_2   0.287985 0.373973 0.203216 0.916873
O31   O     O_2   0.181060 0.399481 0.215449 -0.589876
O32   O     O_R   0.313777 0.291695 0.155908 -0.797788
H44   H     H_    0.236388 0.259342 0.135465 0.347942

loop_
_geom_bond_atom_site_label_1
_geom_bond_atom_site_label_2
_ccdc_geom_bond_type
C22   H4    S    
C45   O13   D    
O16   H26   S    
O4    Zn2   S    
C41   C42   A    
C47   C48   S    
C57   H41   S    
O30   H38   S    
C53   O26   S    
C52   O23   D    
C28   H12   S    
C19   H2    S    
C7    C8    A    
O24   H35   S    
C58   O32   S    
C55   O29   D    
C18   C24   A    
C1    O2    A    
C37   C38   S    
C29   C32   S    
C26   H6    S    
C5    C6    A    
C38   C52   S    
C27   H11   S    
C32   C46   S    
C50   O19   D    
C18   H24   S    
C15   C16   A    
C48   H29   S    
C34   H18   S    
O20   H33   S    
C18   C19   A    
C51   O21   D    
O22   H34   S    
O8    Zn2   S    
C53   O25   D    
O3    Zn1   S    
C16   C58   S    
C16   C17   A    
C25   H5    S    
C48   H28   S    
C47   H31   S    
C11   H22   S    
O6    Zn2   S    
C5    C43   A    
C35   C49   S    
C35   N3    S    
C17   N2    S    
C33   H15   S    
C21   C22   A    
C34   H16   S    
C49   O17   D    
O18   H32   S    
C37   H19   S    
C24   N1    S    
N4    Zn1   S    
C38   H20   S    
C2    H1    S    
C38   N4    S    
C40   N1    A    
C36   C50   S    
C9    N2    A    
C46   O15   D    
C20   C39   S    
C28   H10   S    
C47   H30   S    
C32   C45   S    
C27   C31   S    
O2    Zn2   S    
C35   C36   S    
C23   C31   S    
C36   C54   S    
C43   C44   A    
C25   H7    S    
C29   C30   S    
C26   H8    S    
C46   O16   S    
N3    Zn2   S    
C8    H21   S    
C31   C32   S    
C48   H27   S    
C20   C21   A    
C33   C34   S    
C23   O5    A    
C49   O18   S    
O1    Zn1   S    
C37   C51   S    
C9    O11   S    
C10   N2    A    
C56   H42   S    
C12   C14   S    
C26   C30   S    
C37   N3    S    
C22   C24   A    
C42   C43   A    
C54   O28   S    
C3    C4    A    
C34   N4    S    
O7    Zn1   S    
O26   H36   S    
C41   N1    A    
C13   H23   S    
C25   C30   S    
C11   C17   A    
C55   O30   S    
C40   O9    S    
C28   C31   S    
C56   H43   S    
C8    C44   A    
C29   H13   S    
C4    C5    A    
C57   H40   S    
C6    C10   A    
C52   O24   S    
O32   H44   S    
C27   H9    S    
C6    C7    A    
C25   C27   S    
C58   O31   D    
C26   C28   S    
C1    O1    A    
C39   O8    A    
C19   C20   A    
C12   O4    A    
C56   C57   S    
O14   H25   S    
C11   C13   A    
C15   C56   S    
C50   O20   S    
C2    C42   A    
C41   O10   S    
C10   O12   S    
C1    C30   S    
C2    C3    A    
C23   O6    A    
C7    C55   S    
C51   O22   S    
C33   N3    S    
O5    Zn1   S    
C36   N4    S    
C40   C44   A    
C29   H14   S    
C33   H17   S    
C12   O3    A    
C54   O27   D    
C45   O14   S    
C14   C15   A    
C35   C53   S    
C3    C47   S    
C4    C9    A    
C13   C14   A    
C57   H39   S    
C39   O7    A    
O28   H37   S    
C21   H3    S    
