data_mof_unit_25643.cif
_audit_creation_date              2012-12-10T17:58:18-0500
_audit_creation_method            fapswitch 2.2
_symmetry_space_group_name_H-M    P1
_symmetry_Int_Tables_number       1
_space_group_crystal_system       triclinic
_cell_length_a                    9.598721
_cell_length_b                    10.82295
_cell_length_c                    15.457283
_cell_angle_alpha                 89.620745
_cell_angle_beta                  73.538322
_cell_angle_gamma                 90.009399
_cell_volume                      1539.94277912

loop_
_atom_site_label
_atom_site_type_symbol
_atom_type_description
_atom_site_fract_x
_atom_site_fract_y
_atom_site_fract_z
_atom_type_partial_charge
C1    C     C_R   0.999926 0.262331 0.500075 0.768016
C2    C     C_R   0.000111 0.737687 0.499860 0.791398
C3    C     C_R   0.570583 0.552409 0.094447 -0.280227
C4    C     C_R   0.435877 0.468680 0.904558 -0.200994
C5    C     C_R   0.705741 0.600355 0.046155 0.222843
C6    C     C_R   0.290204 0.497032 0.944850 0.222450
C7    C     C_R   0.871076 0.063849 0.505866 -0.167556
C8    C     C_R   0.129217 0.936234 0.493560 -0.164074
C9    C     C_R   0.871155 0.936038 0.505727 -0.160244
C10   C     C_R   0.129174 0.064059 0.493589 -0.164005
C11   C     C_R   0.000176 0.871688 0.499702 -0.034858
C12   C     C_R   0.000057 0.128377 0.499857 -0.034988
C13   C     C_R   0.548189 0.423284 0.556206 0.495679
C14   C     C_R   0.451877 0.576135 0.443287 0.504181
C15   C     C_R   0.399952 0.423652 0.556433 0.496377
C16   C     C_R   0.600080 0.576138 0.443346 0.487072
C17   C     C_R   0.917634 0.499160 0.672060 0.773059
C18   C     C_R   0.082844 0.495008 0.327812 0.815730
C19   C     C_R   0.872288 0.510728 0.770362 -0.101412
C20   C     C_R   0.131773 0.484557 0.228803 -0.087831
C21   C     C_R   0.893264 0.622503 0.901514 -0.170779
C22   C     C_R   0.087315 0.510629 0.082863 -0.172790
C23   C     C_R   0.943029 0.597504 0.809577 -0.230972
C24   C     C_R   0.037244 0.511913 0.176875 -0.249408
C25   C     C_R   0.749535 0.447908 0.824205 0.193266
C26   C     C_R   0.276852 0.450846 0.185425 0.229075
C27   C     C_R   0.684058 0.491737 0.912438 0.025241
C28   C     C_R   0.332698 0.473426 0.091987 -0.016845
C29   C     C_R   0.763304 0.570213 0.954237 0.067539
C30   C     C_R   0.235267 0.492210 0.039490 0.092196
C31   C     C_R   0.535506 0.472980 0.955795 0.027815
C32   C     C_R   0.482302 0.490556 0.049670 -0.003433
Cu1   Cu    Cu3+1 0.140660 0.500020 0.500000 1.057232
Cu2   Cu    Cu3+1 0.859340 0.499980 0.500000 1.039553
H1    H     H_    0.924328 0.532787 0.209153 0.192853
H2    H     H_    0.035653 0.647543 0.767954 0.159986
H3    H     H_    0.951628 0.688643 0.930062 0.196806
H4    H     H_    0.011140 0.526774 0.044247 0.193772
H5    H     H_    0.526763 0.579848 0.164193 0.195903
H6    H     H_    0.473718 0.472817 0.831606 0.196457
H7    H     H_    0.770062 0.111811 0.510920 0.188569
H8    H     H_    0.230216 0.888272 0.488545 0.186747
H9    H     H_    0.770211 0.887926 0.510623 0.180069
H10   H     H_    0.230155 0.112203 0.488536 0.179657
N1    N     N_R   0.352080 0.500030 0.499980 -0.320612
N2    N     N_R   0.647920 0.499970 0.500020 -0.318732
O1    O     O_R   0.118740 0.319660 0.500000 -0.543542
O2    O     O_R   0.881260 0.680340 0.500000 -0.544500
O3    O     O_R   0.881170 0.319630 0.500010 -0.554335
O4    O     O_R   0.118830 0.680370 0.499990 -0.553304
O5    O     O_R   0.055570 0.500030 0.629830 -0.534629
O6    O     O_R   0.944430 0.499970 0.370170 -0.550464
O7    O     O_R   0.818000 0.500000 0.629840 -0.551250
O8    O     O_R   0.182000 0.500000 0.370160 -0.500035
N3    N     N_2   0.779214 0.683009 0.089682 -0.448562
H11   H     H_    0.766158 0.660642 0.156462 0.280971
C33   C     C_3   0.746821 0.811922 0.079393 -0.653518
H12   H     H_    0.814964 0.870286 0.110144 0.235930
H13   H     H_    0.630512 0.830776 0.113831 0.238675
H14   H     H_    0.770677 0.837606 0.006965 0.221949
N4    N     N_2   0.212016 0.556963 0.891391 -0.434066
H15   H     H_    0.223308 0.513815 0.830469 0.282511
C34   C     C_3   0.248431 0.687469 0.879380 -0.709410
H16   H     H_    0.366664 0.700331 0.846641 0.229788
H17   H     H_    0.217827 0.734848 0.945672 0.246945
H18   H     H_    0.189877 0.732424 0.835566 0.217171
N5    N     N_2   0.359256 0.381752 0.233391 -0.405992
H19   H     H_    0.469739 0.378787 0.204559 0.254645
C35   C     C_3   0.304176 0.258465 0.260354 -0.650623
H20   H     H_    0.368720 0.214904 0.301644 0.224787
H21   H     H_    0.313367 0.200856 0.199737 0.217699
H22   H     H_    0.189022 0.260672 0.301706 0.211815
N6    N     N_2   0.695737 0.338697 0.792358 -0.403972
H23   H     H_    0.737615 0.320300 0.724799 0.308674
C36   C     C_3   0.695835 0.228236 0.845804 -0.655092
H24   H     H_    0.650775 0.149677 0.816361 0.237560
H25   H     H_    0.627313 0.240130 0.916224 0.234814
H26   H     H_    0.808623 0.205155 0.845894 0.221759
F1    F     F_    0.590987 0.344691 0.612160 -0.627466
F2    F     F_    0.409233 0.653074 0.386126 -0.615282
F3    F     F_    0.304930 0.346598 0.613362 -0.608757
F4    F     F_    0.695198 0.652854 0.386154 -0.620672

loop_
_geom_bond_atom_site_label_1
_geom_bond_atom_site_label_2
_ccdc_geom_bond_type
N3    H11   S    
C13   F1    S    
C27   C29   A    
Cu1   N1    S    
N6    H23   S    
C10   H10   S    
C17   O5    A    
C34   H17   S    
C18   O6    A    
C15   F3    S    
C26   N5    S    
C6    N4    S    
C8    H8    S    
C35   H20   S    
C13   N2    A    
C33   H13   S    
C22   H4    S    
C35   H21   S    
N4    C34   S    
C2    O4    A    
C4    H6    S    
Cu2   N2    S    
C14   C16   A    
C14   F2    S    
C18   C20   S    
C34   H18   S    
C3    H5    S    
N6    C36   S    
N4    H15   S    
C1    C12   S    
C2    C11   S    
C14   N1    A    
C5    C29   A    
C21   C23   A    
C7    C12   A    
C9    H9    S    
C24   H1    S    
C27   C31   A    
N5    H19   S    
C20   C24   A    
C28   C32   A    
C4    C6    A    
C16   N2    A    
C1    O1    A    
C33   H14   S    
C2    O2    A    
Cu1   O4    S    
C21   C29   A    
N5    C35   S    
C35   H22   S    
C19   C23   A    
C36   H24   S    
C36   H25   S    
C31   C32   A    
C16   F4    S    
Cu1   Cu2   S    
N3    C33   S    
C9    C11   A    
C10   C12   A    
C6    C30   A    
C13   C15   A    
C25   C27   A    
Cu1   O1    S    
C22   C24   A    
Cu2   O2    S    
C15   N1    A    
C17   O7    A    
Cu1   O8    S    
C7    C9    A    
Cu2   O3    S    
C22   C30   A    
Cu2   O6    S    
C5    N3    S    
C3    C5    A    
Cu1   O5    S    
C26   C28   A    
C28   C30   A    
C33   H12   S    
C20   C26   A    
C8    C11   A    
C17   C19   S    
C25   N6    S    
C7    H7    S    
C3    C32   A    
C19   C25   A    
C36   H26   S    
C4    C31   A    
C18   O8    A    
C34   H16   S    
C21   H3    S    
Cu2   O7    S    
C8    C10   A    
C23   H2    S    
C1    O3    A    
