data_mof_unit_8036.cif
_audit_creation_date              2012-12-11T15:48:12-0500
_audit_creation_method            fapswitch 2.2
_symmetry_space_group_name_H-M    P1
_symmetry_Int_Tables_number       1
_space_group_crystal_system       triclinic
_cell_length_a                    6.927067
_cell_length_b                    17.60914
_cell_length_c                    19.462971
_cell_angle_alpha                 108.532616
_cell_angle_beta                  89.657733
_cell_angle_gamma                 90.469913
_cell_volume                      2250.88398083

loop_
_atom_site_label
_atom_site_type_symbol
_atom_type_description
_atom_site_fract_x
_atom_site_fract_y
_atom_site_fract_z
_atom_type_partial_charge
O1    O     O_R   0.494330 0.415710 0.413720 -0.544088
O2    O     O_R   0.819360 0.430070 0.560210 -0.513995
O3    O     O_R   0.994320 0.584290 0.586280 -0.536814
C1    C     C_R   0.650997 0.416743 0.583333 0.762490
O4    O     O_R   0.823740 0.406290 0.412670 -0.545929
O5    O     O_R   0.998730 0.560340 0.437690 -0.541849
C2    C     C_R   0.654725 0.383225 0.384699 0.696731
O6    O     O_R   0.489920 0.439660 0.562310 -0.544726
O7    O     O_3   0.662330 0.550570 0.508380 -0.376831
V1    V     V_3+5 0.935370 0.490620 0.498440 1.443901
O8    O     O_R   0.328720 0.569930 0.439790 -0.545286
C3    C     C_R   0.160642 0.585019 0.418098 0.699832
O9    O     O_R   0.324340 0.593710 0.587330 -0.545237
C4    C     C_R   0.155119 0.616794 0.615255 0.730191
V2    V     V_3+5 0.435940 0.509380 0.501560 1.410541
O10   O     O_3   0.159110 0.449430 0.491620 -0.367267
C5    C     C_R   0.305562 0.734867 0.708679 -0.248471
C6    C     C_R   0.297076 0.800439 0.773184 0.367465
C7    C     C_R   0.123824 0.816009 0.814550 -0.076189
C8    C     C_R   0.962507 0.766298 0.788789 -0.241165
H1    H     H_    0.828390 0.776412 0.819102 0.158474
C9    C     C_R   0.972109 0.702266 0.724114 -0.142825
H2    H     H_    0.844799 0.665239 0.706360 0.137505
C10   C     C_R   0.144102 0.685455 0.683544 -0.078180
C11   C     C_R   0.306315 0.631201 0.319763 -0.202388
C12   C     C_R   0.154088 0.634435 0.368787 -0.072390
C13   C     C_R   0.996071 0.684287 0.370147 -0.227283
C14   C     C_R   0.989739 0.731067 0.323720 0.130826
C15   C     C_R   0.142929 0.727654 0.274433 0.025041
C16   C     C_R   0.304526 0.677937 0.272498 -0.014376
C17   C     C_R   0.831251 0.780853 0.325437 -0.177128
C18   C     C_R   0.821297 0.825679 0.277792 -0.175592
C19   C     C_R   0.970401 0.822174 0.227854 0.118936
C20   C     C_R   0.132607 0.773520 0.226503 0.055639
C21   C     C_R   0.283546 0.770420 0.176904 0.008056
C22   C     C_R   0.441908 0.720804 0.174605 -0.181655
C23   C     C_R   0.455894 0.675308 0.221781 0.354785
C24   C     C_R   0.960228 0.866720 0.179445 -0.220520
C25   C     C_R   0.112506 0.865191 0.130833 -0.075600
C26   C     C_R   0.274062 0.817019 0.130208 -0.192484
H3    H     H_    0.421900 0.589857 0.318052 0.122848
H4    H     H_    0.878174 0.687007 0.407743 0.119757
H5    H     H_    0.712996 0.784136 0.362961 0.118263
H6    H     H_    0.696027 0.862776 0.279724 0.122301
H7    H     H_    0.835504 0.903943 0.180658 0.118615
H8    H     H_    0.391569 0.815000 0.092621 0.125429
H9    H     H_    0.558315 0.718064 0.136410 0.154935
C27   C     C_R   0.781672 0.192908 0.876497 0.287599
C28   C     C_R   0.624035 0.139769 0.873697 -0.177764
C29   C     C_R   0.471378 0.136404 0.825382 -0.226898
C30   C     C_R   0.475094 0.182629 0.778627 0.084378
C31   C     C_R   0.634879 0.232905 0.779146 0.005061
C32   C     C_R   0.788320 0.237853 0.827972 0.062355
C33   C     C_R   0.321248 0.179167 0.731132 -0.160725
C34   C     C_R   0.324764 0.225492 0.684658 -0.179720
C35   C     C_R   0.482932 0.275645 0.684334 0.097463
C36   C     C_R   0.639749 0.279181 0.731383 0.036223
C37   C     C_R   0.799917 0.329533 0.731454 0.007635
C38   C     C_R   0.948504 0.335527 0.782102 -0.203704
C39   C     C_R   0.943246 0.290103 0.829107 -0.132754
C40   C     C_R   0.486070 0.322211 0.637749 -0.311742
C41   C     C_R   0.645974 0.370938 0.635712 -0.114969
C42   C     C_R   0.804882 0.374126 0.682176 0.298747
H10   H     H_    0.349598 0.096681 0.823487 0.154780
H11   H     H_    0.197133 0.141017 0.730311 0.130580
H12   H     H_    0.365545 0.319063 0.601626 0.144847
H13   H     H_    0.069889 0.375831 0.786871 0.149862
H14   H     H_    0.061879 0.296393 0.866565 0.181045
C43   C     C_R   0.806473 0.294049 0.270389 -0.238593
H15   H     H_    0.940179 0.327253 0.286111 0.115127
C44   C     C_R   0.797554 0.231131 0.203899 0.363844
C45   C     C_R   0.623295 0.187186 0.183054 -0.068708
C46   C     C_R   0.460985 0.209307 0.228631 -0.238320
H16   H     H_    0.326351 0.176534 0.214453 0.153115
C47   C     C_R   0.470641 0.272899 0.293679 -0.162665
C48   C     C_R   0.643986 0.315497 0.315679 -0.071068
O11   O     O_R   0.774940 0.060470 0.937800 -0.533323
O12   O     O_R   0.440880 0.093730 0.087350 -0.546691
O13   O     O_R   0.266130 0.939630 0.062280 -0.547791
C49   C     C_R   0.610373 0.117774 0.114857 0.704422
O14   O     O_R   0.445480 0.069960 0.939820 -0.533277
O15   O     O_R   0.270770 0.915690 0.913690 -0.508031
C50   C     C_R   0.614960 0.087035 0.919978 0.730197
O16   O     O_R   0.770300 0.084410 0.086380 -0.513894
O17   O     O_3   0.602600 0.949510 0.991670 -0.371435
V3    V     V_3+5 0.329470 0.009370 0.001550 1.503004
O18   O     O_R   0.940760 0.906160 0.912560 -0.548365
C51   C     C_R   0.110378 0.883695 0.884054 0.718068
O19   O     O_R   0.936150 0.929930 0.060100 -0.547419
C52   C     C_R   0.104365 0.914715 0.081675 0.691335
V4    V     V_3+5 0.828930 0.990450 0.998310 1.482464
O20   O     O_3   0.105670 0.050490 0.008320 -0.351309
H17   H     H_    0.438501 0.723141 0.677591 0.116177
O21   O     O_3   0.618909 0.628932 0.215170 -0.632464
H18   H     H_    0.650565 0.623525 0.262763 0.286850
O22   O     O_3   0.927815 0.203818 0.926813 -0.642964
H19   H     H_    0.872328 0.198477 0.972070 0.303289
H20   H     H_    0.203216 0.222194 0.648995 0.125101
O23   O     O_3   0.959531 0.423328 0.680041 -0.640767
H21   H     H_    0.079720 0.394577 0.683087 0.279900
O24   O     O_3   0.455282 0.850377 0.795620 -0.646419
H22   H     H_    0.561293 0.832425 0.759784 0.273569
O25   O     O_3   0.956013 0.213081 0.158257 -0.641864
H23   H     H_    0.061987 0.251426 0.179392 0.281284
H24   H     H_    0.342516 0.287965 0.327320 0.131027

loop_
_geom_bond_atom_site_label_1
_geom_bond_atom_site_label_2
_ccdc_geom_bond_type
O18   C51   A    
O24   H22   S    
O18   V4    S    
C29   H10   S    
C46   H16   S    
C21   C22   A    
C49   O16   A    
O17   V4    S    
C33   H11   S    
O17   V3    S    
C26   H8    S    
C12   C13   A    
C15   C16   A    
C17   H5    S    
C43   C48   A    
C14   C15   A    
C6    C7    A    
O5    C3    A    
C24   C25   A    
O12   C49   A    
O11   C50   A    
V2    O10   S    
C1    C41   S    
C37   C42   A    
C35   C36   A    
C22   H9    S    
C20   C21   A    
C4    C10   S    
C43   C44   A    
O13   C52   A    
C42   O23   S    
O25   H23   S    
C38   H13   S    
O8    V2    S    
C40   H12   S    
C17   C18   A    
C24   H7    S    
O1    V2    S    
O16   V4    S    
O19   V4    S    
O7    V1    S    
C25   C52   S    
O14   V3    S    
C1    O6    A    
O12   V3    S    
C38   C39   A    
O9    C4    A    
C46   C47   A    
C40   C41   A    
O14   C50   A    
C32   C39   A    
C29   C30   A    
C9    H2    S    
C27   C32   A    
C5    C10   A    
C30   C31   A    
C7    C51   S    
C11   H3    S    
V4    O20   S    
O4    C2    A    
C37   C38   A    
O15   V3    S    
C15   C20   A    
C16   C23   A    
C3    C12   S    
C6    O24   S    
O2    C1    A    
C47   C48   A    
C41   C42   A    
O23   H21   S    
O22   H19   S    
C34   C35   A    
C5    C6    A    
C18   H6    S    
O21   H18   S    
O3    C4    A    
C27   C28   A    
C8    C9    A    
C47   H24   S    
O6    V2    S    
O9    V2    S    
C9    C10   A    
C5    H17   S    
O2    V1    S    
C25   C26   A    
C31   C32   A    
C11   C16   A    
C44   O25   S    
C33   C34   A    
O11   V4    S    
C27   O22   S    
O1    C2    A    
C14   C17   A    
C45   C46   A    
O5    V1    S    
O8    C3    A    
C2    C48   S    
C19   C24   A    
C30   C33   A    
C18   C19   A    
C28   C50   S    
C7    C8    A    
C21   C26   A    
C11   C12   A    
C44   C45   A    
C45   C49   S    
O3    V1    S    
V3    O20   S    
C13   H4    S    
C36   C37   A    
O15   C51   A    
C34   H20   S    
C19   C20   A    
C23   O21   S    
O7    V2    S    
C43   H15   S    
C31   C36   A    
O4    V1    S    
C8    H1    S    
C39   H14   S    
C22   C23   A    
C28   C29   A    
C13   C14   A    
C35   C40   A    
V1    O10   S    
O19   C52   A    
O13   V3    S    
