data_mof_unit_19037.cif
_audit_creation_date              2012-12-10T17:36:38-0500
_audit_creation_method            fapswitch 2.2
_symmetry_space_group_name_H-M    P1
_symmetry_Int_Tables_number       1
_space_group_crystal_system       triclinic
_cell_length_a                    12.173501
_cell_length_b                    12.756156
_cell_length_c                    15.683632
_cell_angle_alpha                 92.284769
_cell_angle_beta                  88.105698
_cell_angle_gamma                 95.936263
_cell_volume                      2419.45370383

loop_
_atom_site_label
_atom_site_type_symbol
_atom_type_description
_atom_site_fract_x
_atom_site_fract_y
_atom_site_fract_z
_atom_type_partial_charge
C1    C     C_R   0.524013 0.699920 0.494604 0.891692
C2    C     C_R   0.531031 0.025631 0.466523 -0.005186
C3    C     C_R   0.940495 0.390013 0.425762 0.359515
C4    C     C_R   0.059505 0.609987 0.574238 0.359515
C5    C     C_R   0.828513 0.405828 0.431345 -0.111525
C6    C     C_R   0.171487 0.594172 0.568655 -0.111524
C7    C     C_R   0.863320 0.544994 0.535713 0.153035
C8    C     C_R   0.136680 0.455006 0.464286 0.153036
C9    C     C_R   0.980417 0.539729 0.528015 -0.070674
C10   C     C_R   0.019583 0.460270 0.471985 -0.070674
C11   C     C_R   0.501759 0.500835 0.661563 0.891213
C12   C     C_R   0.475987 0.300079 0.505396 0.891691
C13   C     C_R   0.498241 0.499165 0.338436 0.891214
C14   C     C_3   0.451913 0.585338 0.031493 -0.296917
C15   C     C_3   0.548087 0.414662 0.968507 -0.296917
C16   C     C_3   0.560110 0.589932 0.975390 -0.313272
C17   C     C_3   0.439889 0.410068 0.024610 -0.313272
C18   C     C_1   0.505490 0.501824 0.750436 -0.187998
C19   C     C_1   0.494510 0.498176 0.249564 -0.187997
C20   C     C_3   0.399513 0.496827 0.971827 0.522535
C21   C     C_3   0.600487 0.503173 0.028172 0.522535
C22   C     C_3   0.505194 0.501340 0.916739 0.110328
C23   C     C_R   0.602935 0.970709 0.412521 0.430679
C24   C     C_3   0.494806 0.498660 0.083261 0.110328
C25   C     C_1   0.506744 0.502123 0.825804 0.005356
C26   C     C_1   0.493256 0.497876 0.174196 0.005356
C27   C     C_R   0.458041 0.187592 0.512248 -0.151266
C28   C     C_R   0.541959 0.812408 0.487752 -0.151266
C29   C     C_3   0.330382 0.197999 0.646757 -0.367155
C30   C     C_3   0.394342 0.217130 0.729483 -0.361060
C31   C     C_3   0.325995 0.269663 0.799054 -0.796875
C32   C     C_3   0.669619 0.802001 0.353243 -0.367155
C33   C     C_3   0.605658 0.782870 0.270517 -0.361058
C34   C     C_R   0.397065 0.029291 0.587479 0.430679
C35   C     C_3   0.674005 0.730337 0.200946 -0.796875
C36   C     C_3   0.184792 0.383261 0.396515 -0.287672
C37   C     C_3   0.175475 0.423781 0.306036 -0.311130
C38   C     C_3   0.217645 0.347248 0.238302 -0.860094
C39   C     C_3   0.815208 0.616739 0.603485 -0.287672
C40   C     C_3   0.824525 0.576219 0.693964 -0.311130
C41   C     C_3   0.782355 0.652752 0.761698 -0.860094
C42   C     C_R   0.604395 0.861793 0.420069 0.039025
C43   C     C_R   0.395605 0.138207 0.579931 0.039025
C44   C     C_R   0.480791 0.869488 0.545748 -0.285745
C45   C     C_R   0.519209 0.130512 0.454252 -0.285745
C46   C     C_R   0.468969 0.974369 0.533477 -0.005186
H1    H     H_    0.611150 0.661765 0.953880 0.162865
H2    H     H_    0.242409 0.488928 0.988882 0.326308
H3    H     H_    0.304069 0.346817 0.778118 0.284671
H4    H     H_    0.249064 0.218269 0.814142 0.262407
H5    H     H_    0.374549 0.282962 0.857855 0.257401
H6    H     H_    0.416235 0.141131 0.752985 0.263647
H7    H     H_    0.472181 0.268459 0.716877 0.208066
H8    H     H_    0.309107 0.274300 0.624892 0.217444
H9    H     H_    0.249410 0.151941 0.660013 0.237657
H10   H     H_    0.750936 0.781731 0.185858 0.262407
H11   H     H_    0.695931 0.653183 0.221882 0.284670
H12   H     H_    0.388850 0.338235 0.046120 0.162865
H13   H     H_    0.625451 0.717038 0.142145 0.257401
H14   H     H_    0.527819 0.731541 0.283123 0.208066
H15   H     H_    0.583765 0.858869 0.247014 0.263646
H16   H     H_    0.750590 0.848059 0.339987 0.237657
H17   H     H_    0.690893 0.725700 0.375108 0.217444
H18   H     H_    0.704275 0.087952 0.375651 0.326551
H19   H     H_    0.295725 0.912048 0.624349 0.326551
H20   H     H_    0.304420 0.333781 0.250153 0.253169
H21   H     H_    0.165264 0.270624 0.239060 0.281350
H22   H     H_    0.214447 0.380574 0.174185 0.243922
H23   H     H_    0.410609 0.653298 0.058654 0.161703
H24   H     H_    0.088976 0.435635 0.292184 0.251291
H25   H     H_    0.224733 0.501689 0.300748 0.222888
H26   H     H_    0.271015 0.377039 0.406074 0.239906
H27   H     H_    0.150865 0.300023 0.403005 0.231492
H28   H     H_    0.834736 0.729376 0.760940 0.281350
H29   H     H_    0.695580 0.666219 0.749847 0.253169
H30   H     H_    0.785553 0.619426 0.825815 0.243922
H31   H     H_    0.775267 0.498311 0.699252 0.222888
H32   H     H_    0.911024 0.564365 0.707816 0.251291
H33   H     H_    0.849135 0.699977 0.596995 0.231492
H34   H     H_    0.589391 0.346702 0.941346 0.161703
H35   H     H_    0.728985 0.622961 0.593926 0.239906
H36   H     H_    0.905782 0.265093 0.350487 0.335546
H37   H     H_    0.094218 0.734907 0.649513 0.335546
H38   H     H_    0.561026 0.170973 0.401012 0.173996
H39   H     H_    0.438974 0.829027 0.598988 0.173996
H40   H     H_    0.231613 0.644587 0.604791 0.145894
H41   H     H_    0.768387 0.355413 0.395209 0.145894
H42   H     H_    0.757591 0.511072 0.011118 0.326308
N1    N     N_R   0.207800 0.519340 0.515560 -0.142412
N2    N     N_R   0.792200 0.480660 0.484440 -0.142412
O1    O     O_R   0.421700 0.658830 0.504150 -0.608311
O2    O     O_3   0.294011 0.493624 0.938638 -0.764707
O3    O     O_3   0.669978 0.020492 0.350388 -0.788836
O4    O     O_3   0.330022 0.979508 0.649612 -0.788836
O5    O     O_3   0.971148 0.304564 0.377169 -0.798538
O6    O     O_3   0.028852 0.695435 0.622831 -0.798538
O7    O     O_R   0.578300 0.341170 0.495850 -0.608310
O8    O     O_R   0.609310 0.646410 0.494170 -0.659849
O9    O     O_R   0.390690 0.353590 0.505830 -0.659849
O10   O     O_R   0.406210 0.506220 0.628210 -0.603292
O11   O     O_R   0.593790 0.493780 0.371790 -0.603292
O12   O     O_R   0.593830 0.493800 0.618230 -0.636753
O13   O     O_R   0.406170 0.506200 0.381770 -0.636754
O14   O     O_3   0.705989 0.506376 0.061362 -0.764707
Zn1   Zn    Zn3+2 0.374730 0.508290 0.506660 0.917716
Zn2   Zn    Zn3+2 0.625270 0.491710 0.493340 0.917716

loop_
_geom_bond_atom_site_label_1
_geom_bond_atom_site_label_2
_ccdc_geom_bond_type
C11   C18   S    
C16   C21   S    
O1    Zn1   S    
C2    C46   A    
C20   O2    S    
O10   Zn1   S    
C37   C38   S    
C23   C42   A    
C7    C39   S    
C36   C37   S    
C24   C26   S    
H18   O3    S    
C30   C31   S    
C29   H8    S    
C17   C20   S    
C35   H13   S    
C8    C36   S    
C14   C24   S    
C19   C26   T    
C12   O9    A    
C41   H28   S    
C4    O6    S    
C21   O14   S    
C15   C22   S    
C38   H20   S    
C22   C25   S    
C1    C28   S    
C34   C46   A    
C13   O13   A    
C9    C10   A    
C5    N2    A    
C17   H12   S    
C27   C45   A    
C1    O1    A    
C37   H24   S    
C29   C43   S    
C18   C25   T    
C31   H3    S    
C16   H1    S    
H42   O14   S    
C44   C46   A    
C2    C45   A    
O9    Zn1   S    
C30   H7    S    
C17   C24   S    
C13   C19   S    
C12   C27   S    
C14   C20   S    
C39   H35   S    
C4    C6    A    
C31   H5    S    
C39   C40   S    
C29   H9    S    
C7    N2    A    
C28   C44   A    
C23   O3    S    
C11   O10   A    
C39   H33   S    
C29   C30   S    
C27   C43   A    
C41   H29   S    
C15   H34   S    
O13   Zn1   S    
N2    Zn2   S    
C12   O7    A    
O7    Zn2   S    
C8    C10   A    
C40   C41   S    
C20   C22   S    
C33   H14   S    
C37   H25   S    
C14   H23   S    
C40   H32   S    
C45   H38   S    
C31   H4    S    
C13   O11   A    
C44   H39   S    
O11   Zn2   S    
C15   C17   S    
C30   H6    S    
H19   O4    S    
C16   C22   S    
H36   O5    S    
C35   H10   S    
C34   C43   A    
C34   O4    S    
C32   H17   S    
C38   H22   S    
C3    C5    A    
O8    Zn2   S    
C1    O8    A    
C6    N1    A    
C6    H40   S    
C35   H11   S    
C32   C33   S    
C32   H16   S    
C3    C10   A    
C41   H30   S    
H37   O6    S    
C28   C42   A    
C33   C35   S    
O12   Zn2   S    
C11   O12   A    
C14   C16   S    
C36   H27   S    
C5    H41   S    
C7    C9    A    
C15   C21   S    
C38   H21   S    
C33   H15   S    
H2    O2    S    
C21   C24   S    
N1    Zn1   S    
C2    C23   A    
C32   C42   S    
C40   H31   S    
C3    O5    S    
C8    N1    A    
C4    C9    A    
C36   H26   S    
