data_mof_unit_14818.cif
_audit_creation_date              2012-12-10T17:10:22-0500
_audit_creation_method            fapswitch 2.2
_symmetry_space_group_name_H-M    P1
_symmetry_Int_Tables_number       1
_space_group_crystal_system       triclinic
_cell_length_a                    10.838834
_cell_length_b                    12.97723
_cell_length_c                    11.772184
_cell_angle_alpha                 99.644575
_cell_angle_beta                  91.423384
_cell_angle_gamma                 92.453808
_cell_volume                      1630.09000217

loop_
_atom_site_label
_atom_site_type_symbol
_atom_type_description
_atom_site_fract_x
_atom_site_fract_y
_atom_site_fract_z
_atom_type_partial_charge
C1    C     C_R   0.496686 0.299325 0.478887 0.851496
C2    C     C_R   0.502155 0.700623 0.521171 0.859618
C3    C     C_R   0.499334 0.813957 0.533377 -0.006705
C4    C     C_R   0.496403 0.185796 0.466798 -0.041406
C5    C     C_R   0.497108 0.015431 0.346136 -0.126507
C6    C     C_R   0.495571 0.984100 0.654038 -0.123633
C7    C     C_R   0.496321 0.123579 0.357069 -0.119408
C8    C     C_R   0.496508 0.875906 0.643049 -0.053204
C9    C     C_R   0.497124 0.139113 0.565697 -0.169447
C10   C     C_R   0.498174 0.860653 0.434530 -0.203281
C11   C     C_R   0.496740 0.030958 0.555433 0.189899
C12   C     C_R   0.497108 0.968703 0.444796 0.184724
C13   C     C_R   0.396131 0.390284 0.026000 -0.347427
C14   C     C_R   0.603830 0.609742 0.974006 -0.349705
C15   C     C_R   0.402965 0.402262 0.147553 0.549832
C16   C     C_R   0.597015 0.597751 0.852451 0.549233
C17   C     C_R   0.542730 0.550315 0.153864 0.508628
C18   C     C_R   0.457237 0.449709 0.846141 0.501948
C19   C     C_R   0.536383 0.540693 0.032306 -0.057420
C20   C     C_R   0.463581 0.459332 0.967699 -0.056984
C21   C     C_R   0.263264 0.504117 0.503059 0.862939
C22   C     C_R   0.736872 0.496866 0.497083 0.884475
C23   C     C_R   0.130945 0.696783 0.577393 0.309054
C24   C     C_R   0.869394 0.305124 0.416981 0.329926
C25   C     C_R   0.067774 0.789053 0.591433 -0.229424
C26   C     C_R   0.934087 0.212596 0.400286 -0.261063
C27   C     C_R   0.940726 0.786610 0.573062 0.364530
C28   C     C_R   0.060382 0.214868 0.422196 0.482183
C29   C     C_R   0.875763 0.690617 0.541322 -0.213308
C30   C     C_R   0.124670 0.310508 0.457789 -0.229128
C31   C     C_R   0.937559 0.595221 0.523414 -0.062030
C32   C     C_R   0.062690 0.405714 0.476340 -0.071055
C33   C     C_R   0.067665 0.597956 0.537208 -0.001475
C34   C     C_R   0.932620 0.403002 0.461726 0.043851
C35   C     C_R   0.870962 0.498078 0.490739 -0.092339
C36   C     C_R   0.129259 0.502825 0.509490 -0.098461
Cu1   Cu    Cu3+1 0.509250 0.507730 0.615930 1.004566
Cu2   Cu    Cu3+1 0.490750 0.492270 0.384070 1.025891
H1    H     H_    0.337580 0.327397 0.977838 0.206172
H2    H     H_    0.662370 0.672637 0.022169 0.203316
H3    H     H_    0.118512 0.862846 0.620744 0.213803
H4    H     H_    0.885335 0.138367 0.368608 0.205280
H5    H     H_    0.776605 0.691885 0.529218 0.157804
H6    H     H_    0.223528 0.309143 0.472044 0.158474
H7    H     H_    0.499397 0.813281 0.349477 0.182147
H8    H     H_    0.496966 0.186582 0.650754 0.181946
H9    H     H_    0.496042 0.840945 0.720379 0.173025
H10   H     H_    0.495791 0.158383 0.279631 0.178489
H11   H     H_    0.497343 0.968492 0.260840 0.144741
H12   H     H_    0.494493 0.030975 0.739316 0.143832
N1    N     N_R   0.523180 0.519350 0.790130 -0.244320
N2    N     N_R   0.476820 0.480650 0.209870 -0.240054
O1    O     O_R   0.506570 0.354460 0.582000 -0.598572
O2    O     O_R   0.493430 0.645540 0.418000 -0.605665
O3    O     O_R   0.490940 0.341410 0.386200 -0.518921
O4    O     O_R   0.509060 0.658590 0.613800 -0.533415
O5    O     O_R   0.327470 0.506520 0.597900 -0.630997
O6    O     O_R   0.672530 0.493480 0.402100 -0.587451
O7    O     O_R   0.311840 0.493460 0.402100 -0.531377
O8    O     O_R   0.688160 0.506540 0.597900 -0.540569
S1    S     S_3+6 0.139254 0.097804 0.400567 0.015069
O9    O     O_2   0.221576 0.097863 0.299836 -0.305694
O10   O     O_2   0.216317 0.091967 0.506920 -0.303310
O11   O     O_3   0.039032 0.993400 0.373269 -0.484930
H13   H     H_    0.089756 0.932232 0.376825 0.377348
S2    S     S_3+6 0.861260 0.903476 0.596083 0.017976
O12   O     O_2   0.949790 0.997520 0.619473 -0.238024
O13   O     O_2   0.782329 0.909390 0.490931 -0.262393
O14   O     O_3   0.770251 0.902971 0.709455 -0.530768
H14   H     H_    0.826703 0.892872 0.773717 0.341870
O15   O     O_3   0.252913 0.705905 0.611367 -0.750660
H15   H     H_    0.256366 0.679597 0.685731 0.335178
O16   O     O_3   0.746278 0.300758 0.384103 -0.732759
H16   H     H_    0.721480 0.229389 0.343579 0.318626
O17   O     O_3   0.384746 0.367582 0.786737 -0.743057
H17   H     H_    0.352099 0.388251 0.716116 0.366449
O18   O     O_3   0.615178 0.632465 0.213280 -0.745234
H18   H     H_    0.647898 0.611771 0.283864 0.365418
O19   O     O_3   0.664821 0.663762 0.794730 -0.688001
H19   H     H_    0.713302 0.716065 0.851473 0.303208
O20   O     O_3   0.335156 0.336260 0.205281 -0.681729
H20   H     H_    0.286706 0.283924 0.148548 0.318344

loop_
_geom_bond_atom_site_label_1
_geom_bond_atom_site_label_2
_ccdc_geom_bond_type
S2    O13   D    
C18   O17   S    
C27   C29   A    
O16   H16   S    
C19   C20   A    
C16   N1    A    
C5    H11   S    
O20   H20   S    
C15   O20   S    
C21   C36   S    
O18   H18   S    
C22   C35   S    
C32   C36   A    
C24   C26   A    
C21   O7    A    
C22   O8    A    
Cu1   N1    S    
C24   O16   S    
S2    O14   S    
Cu2   N2    S    
C33   C36   A    
C34   C35   A    
S1    O10   D    
C1    O1    A    
Cu2   O6    S    
Cu1   O4    S    
Cu2   O3    S    
C23   C33   A    
C31   C33   A    
Cu1   O1    S    
C28   S1    S    
S2    O12   D    
C9    H8    S    
C29   H5    S    
C30   H6    S    
O14   H14   S    
C4    C7    A    
C17   N2    A    
C18   N1    A    
C23   O15   S    
C5    C12   A    
C3    C8    A    
C2    O2    A    
C25   H3    S    
C6    C11   A    
C5    C7    A    
C6    C8    A    
C24   C34   A    
O19   H19   S    
C32   C34   A    
S1    O11   S    
O17   H17   S    
C21   O5    A    
Cu1   Cu2   S    
Cu2   O2    S    
C10   H7    S    
C17   O18   S    
C15   N2    A    
C6    H12   S    
C9    C11   A    
C10   C12   A    
C13   C15   A    
C14   C16   A    
C26   H4    S    
C13   C20   A    
C14   C19   A    
C22   O6    A    
C11   C12   A    
C25   C27   A    
C26   C28   A    
C1    C4    S    
C7    H10   S    
C16   O19   S    
C28   C30   A    
C2    C3    S    
C1    O3    A    
C8    H9    S    
O15   H15   S    
C29   C31   A    
C27   S2    S    
C2    O4    A    
O11   H13   S    
C30   C32   A    
C31   C35   A    
C17   C19   A    
C18   C20   A    
C23   C25   A    
S1    O9    D    
C13   H1    S    
Cu1   O8    S    
C14   H2    S    
Cu2   O7    S    
C3    C10   A    
C4    C9    A    
Cu1   O5    S    
