data_mof_unit_33719.cif
_audit_creation_date              2012-12-10T17:53:22-0500
_audit_creation_method            fapswitch 2.2
_symmetry_space_group_name_H-M    P1
_symmetry_Int_Tables_number       1
_space_group_crystal_system       triclinic
_cell_length_a                    23.373472
_cell_length_b                    10.596062
_cell_length_c                    9.936659
_cell_angle_alpha                 90.88302
_cell_angle_beta                  91.724938
_cell_angle_gamma                 92.6081
_cell_volume                      2456.9698418

loop_
_atom_site_label
_atom_site_type_symbol
_atom_type_description
_atom_site_fract_x
_atom_site_fract_y
_atom_site_fract_z
_atom_type_partial_charge
C1    C     C_R   0.508908 0.262515 0.499511 0.930763
C2    C     C_R   0.122376 0.602066 0.549474 0.557623
C3    C     C_R   0.238054 0.555780 0.382999 -0.008343
C4    C     C_R   0.389527 0.501325 0.498497 0.906122
C5    C     C_R   0.297963 0.556329 0.387636 -0.176956
C6    C     C_R   0.327345 0.502380 0.495731 -0.081680
C7    C     C_R   0.297204 0.449497 0.602025 -0.203906
C8    C     C_R   0.238033 0.448996 0.599617 -0.100737
C9    C     C_R   0.208364 0.501227 0.491414 0.236828
C10   C     C_R   0.758959 0.435717 0.625266 0.160014
C11   C     C_R   0.699558 0.440582 0.616577 -0.316582
C12   C     C_R   0.964603 0.277360 0.424985 -0.150440
C13   C     C_R   0.672879 0.499473 0.507381 -0.055827
C14   C     C_R   0.706045 0.555502 0.405953 0.092366
C15   C     C_R   0.765567 0.549733 0.415449 -0.195769
C16   C     C_R   0.506700 0.740153 0.501190 0.888408
C17   C     C_R   0.791656 0.490441 0.524161 0.310555
C18   C     C_R   0.572946 0.142137 0.725994 -0.209656
C19   C     C_R   0.595671 0.079499 0.836928 0.157197
C20   C     C_R   0.596887 0.948306 0.833867 -0.130394
C21   C     C_R   0.574559 0.879839 0.721898 -0.217828
C22   C     C_R   0.547287 0.940648 0.614007 0.111001
C23   C     C_R   0.024005 0.280240 0.416968 -0.148396
C24   C     C_R   0.547839 0.073662 0.613906 0.043212
C25   C     C_R   0.526875 0.133063 0.496574 -0.149149
C26   C     C_R   0.522703 0.064285 0.373843 0.136351
C27   C     C_R   0.516199 0.935062 0.378572 -0.240180
C28   C     C_R   0.610572 0.501106 0.501875 0.841892
C29   C     C_R   0.522413 0.873761 0.500891 -0.153458
C30   C     C_R   0.439350 0.297565 0.124833 0.030566
C31   C     C_R   0.427531 0.187273 0.047335 -0.234452
C32   C     C_R   0.424440 0.194951 0.908838 -0.218905
C33   C     C_R   0.439727 0.308061 0.849142 -0.129026
C34   C     C_R   0.057056 0.387776 0.460917 -0.018227
C35   C     C_R   0.470260 0.404667 0.922752 0.162744
C36   C     C_R   0.469984 0.402868 0.067023 0.068325
C37   C     C_R   0.528764 0.591037 0.075378 -0.086068
C38   C     C_R   0.528917 0.590505 0.932796 -0.107614
C39   C     C_R   0.883477 0.591625 0.578744 0.521171
C40   C     C_R   0.877698 0.382981 0.482165 0.532043
C41   C     C_R   0.937312 0.381998 0.477015 -0.023581
C42   C     C_R   0.970174 0.489828 0.522915 -0.018768
C43   C     C_R   0.943196 0.595273 0.575600 -0.021241
C44   C     C_2   0.393205 0.313105 0.218848 0.996537
C45   C     C_R   0.030108 0.492764 0.514757 -0.014055
C46   C     C_2   0.208350 0.611825 0.264750 0.957620
C47   C     C_R   0.062925 0.600977 0.559734 -0.014233
C48   C     C_R   0.035696 0.704916 0.613523 -0.145785
C49   C     C_R   0.976299 0.702096 0.621374 -0.150160
C50   C     C_R   0.116632 0.393538 0.452472 0.560587
H1    H     H_    0.940174 0.193465 0.389400 0.194862
H2    H     H_    0.408094 0.103611 0.092090 0.186572
H3    H     H_    0.405213 0.117142 0.848806 0.178887
H4    H     H_    0.425997 0.318049 0.746703 0.206428
H5    H     H_    0.553051 0.664025 0.883616 0.130352
H6    H     H_    0.060117 0.788870 0.648973 0.195992
H7    H     H_    0.956433 0.784064 0.662392 0.194710
H8    H     H_    0.322060 0.599059 0.307354 0.222793
H9    H     H_    0.319350 0.407432 0.686280 0.165840
H10   H     H_    0.214847 0.407882 0.682215 0.152653
H11   H     H_    0.662328 0.701707 0.335743 0.179628
H12   H     H_    0.674308 0.397011 0.694544 0.158218
H13   H     H_    0.709936 0.650013 0.227159 0.183984
H14   H     H_    0.521805 0.058524 0.166452 0.180365
H15   H     H_    0.565590 0.169792 0.239950 0.191250
H16   H     H_    0.653233 0.209420 0.916560 0.181811
H17   H     H_    0.588682 0.205768 0.988427 0.187096
H18   H     H_    0.351489 0.246189 0.379695 0.335385
H19   H     H_    0.215718 0.707454 0.091363 0.361353
H20   H     H_    0.770444 0.281787 0.738140 0.201368
H21   H     H_    0.774459 0.420380 0.825004 0.190130
H22   H     H_    0.792047 0.592110 0.339090 0.143525
H23   H     H_    0.578701 0.243768 0.726803 0.165703
H24   H     H_    0.617059 0.899389 0.916242 0.141487
H25   H     H_    0.582389 0.780577 0.716560 0.158198
H26   H     H_    0.505401 0.883100 0.285801 0.171625
H27   H     H_    0.552505 0.665404 0.131758 0.139383
H28   H     H_    0.043865 0.198376 0.375695 0.196797
N1    N     N_R   0.852393 0.487239 0.531014 -0.344066
N2    N     N_R   0.147584 0.499736 0.495756 -0.343525
N3    N     N_R   0.499460 0.498800 0.142780 -0.123290
N4    N     N_R   0.499440 0.498720 0.857170 -0.120238
N5    N     N_3   0.679425 0.620084 0.296069 -0.431826
N6    N     N_3   0.524973 0.124943 0.245611 -0.414460
N7    N     N_3   0.620212 0.149242 0.950509 -0.468675
N8    N     N_3   0.786338 0.375575 0.736299 -0.434675
O1    O     O_R   0.500000 0.316780 0.614690 -0.660143
O2    O     O_R   0.583850 0.500050 0.614640 -0.646147
O3    O     O_R   0.583840 0.500030 0.385310 -0.601606
O4    O     O_2   0.856461 0.691691 0.627603 -0.553049
O5    O     O_2   0.355859 0.386516 0.191408 -0.629817
O6    O     O_R   0.387219 0.231499 0.327381 -0.805135
O7    O     O_2   0.156149 0.603633 0.251254 -0.616097
O8    O     O_R   0.240495 0.673798 0.166992 -0.791303
O9    O     O_2   0.845100 0.281739 0.437114 -0.551848
O10   O     O_2   0.143613 0.294362 0.401469 -0.538644
O11   O     O_2   0.154918 0.704081 0.592623 -0.545647
O12   O     O_R   0.500000 0.316750 0.385360 -0.591595
O13   O     O_R   0.416160 0.499970 0.614690 -0.627716
O14   O     O_R   0.416150 0.499950 0.385360 -0.597047
O15   O     O_R   0.500000 0.683250 0.614640 -0.614198
O16   O     O_R   0.500000 0.683220 0.385310 -0.626390
Zn1   Zn    Zn3+2 0.500000 0.500020 0.653130 0.928630
Zn2   Zn    Zn3+2 0.500000 0.499980 0.346870 0.971602

loop_
_geom_bond_atom_site_label_1
_geom_bond_atom_site_label_2
_ccdc_geom_bond_type
C1    O1    A    
O13   Zn1   S    
C22   C29   A    
C27   C29   A    
C41   C42   A    
C35   C36   A    
C17   N1    S    
C31   H2    S    
C11   H12   S    
C30   C44   S    
C12   H1    S    
H16   N7    S    
C7    C8    A    
C15   H22   S    
C12   C23   A    
C26   C27   A    
C37   C38   A    
C5    H8    S    
C18   C24   A    
C30   C31   A    
O12   Zn2   S    
C10   C17   A    
O14   Zn2   S    
C49   H7    S    
C48   H6    S    
C18   C19   A    
H14   N6    S    
H18   O6    S    
C38   H5    S    
C19   C20   A    
C2    O11   S    
C8    C9    A    
C28   O2    A    
N4    Zn1   S    
C13   C28   S    
C28   O3    A    
C39   O4    S    
C44   O6    S    
O15   Zn1   S    
C13   C14   A    
C38   N4    A    
C1    C25   S    
C37   N3    A    
C14   N5    S    
C7    H9    S    
C35   N4    A    
C45   C47   A    
C34   C50   A    
H17   N7    S    
C24   C25   A    
C4    C6    S    
H19   O8    S    
H11   N5    S    
C43   C49   A    
H15   N6    S    
C39   C43   A    
C19   N7    S    
C16   C29   S    
C37   H27   S    
H13   N5    S    
C42   C45   A    
C39   N1    A    
C12   C41   A    
C3    C9    A    
H21   N8    S    
C47   C48   A    
C46   O8    S    
C36   N3    A    
C23   C34   A    
C40   N1    A    
C20   H24   S    
C34   C45   A    
O16   Zn2   S    
C44   O5    D    
O1    Zn1   S    
C16   O16   A    
C40   C41   A    
C18   H23   S    
C4    O14   A    
O3    Zn2   S    
C22   C24   A    
C42   C43   A    
C40   O9    S    
C27   H26   S    
H20   N8    S    
C32   H3    S    
O2    Zn1   S    
C33   H4    S    
C15   C17   A    
C10   N8    S    
C26   N6    S    
C31   C32   A    
C3    C5    A    
C50   N2    A    
C1    O12   A    
C6    C7    A    
C2    C47   A    
C21   H25   S    
C3    C46   S    
C30   C36   A    
C32   C33   A    
C25   C26   A    
C8    H10   S    
C11   C13   A    
C50   O10   S    
C5    C6    A    
C46   O7    D    
C48   C49   A    
C33   C35   A    
C23   H28   S    
C2    N2    A    
C10   C11   A    
C16   O15   A    
C20   C21   A    
C4    O13   A    
C14   C15   A    
C21   C22   A    
C9    N2    S    
N3    Zn2   S    
