data_mof_unit_57582.cif
_audit_creation_date              2012-12-10T20:35:50-0500
_audit_creation_method            fapswitch 2.2
_symmetry_space_group_name_H-M    P1
_symmetry_Int_Tables_number       1
_space_group_crystal_system       triclinic
_cell_length_a                    15.707614
_cell_length_b                    10.680092
_cell_length_c                    9.892243
_cell_angle_alpha                 90.077917
_cell_angle_beta                  89.079781
_cell_angle_gamma                 90.622462
_cell_volume                      1659.19732773

loop_
_atom_site_label
_atom_site_type_symbol
_atom_type_description
_atom_site_fract_x
_atom_site_fract_y
_atom_site_fract_z
_atom_type_partial_charge
C1    C     C_R   0.501919 0.260164 0.499918 0.883390
C2    C     C_3   0.949511 0.413829 0.621935 0.598612
C3    C     C_3   0.917654 0.494477 0.500291 0.161577
C4    C     C_3   0.949245 0.634044 0.517212 -0.364834
C5    C     C_3   0.047316 0.643177 0.546161 0.313088
C6    C     C_1   0.825894 0.495571 0.497223 -0.056310
C7    C     C_1   0.174453 0.506265 0.501603 -0.095903
C8    C     C_1   0.249690 0.503664 0.502655 -0.186635
C9    C     C_R   0.506316 0.064596 0.622506 0.088384
C10   C     C_R   0.513385 0.128844 0.500678 -0.094931
C11   C     C_R   0.534892 0.065020 0.381300 -0.221129
C12   C     C_R   0.338420 0.500532 0.500992 0.919202
C13   C     C_R   0.534784 0.935604 0.381768 -0.222392
C14   C     C_R   0.513449 0.871817 0.501733 -0.111209
C15   C     C_R   0.507138 0.936857 0.623897 0.058677
C16   C     C_3   0.440182 0.930175 0.734100 -0.036543
C17   C     C_3   0.439306 0.072673 0.730937 -0.473457
C18   C     C_R   0.441906 0.429169 0.072748 0.109328
C19   C     C_R   0.562055 0.562271 0.068044 0.205579
C20   C     C_R   0.562050 0.559470 0.924668 -0.166531
C21   C     C_R   0.442073 0.429040 0.930215 0.121126
C22   C     C_3   0.347340 0.441418 0.927835 0.249986
C23   C     C_R   0.501899 0.739994 0.500240 0.860516
C24   C     C_3   0.347316 0.441001 0.081743 -0.571583
C25   C     C_R   0.661655 0.499809 0.498954 0.899961
C26   C     C_3   0.048401 0.407650 0.604382 -0.497068
C27   C     C_3   0.051058 0.462111 0.349227 0.342029
C28   C     C_3   0.952603 0.439996 0.363611 -0.550106
C29   C     C_1   0.750545 0.497619 0.496907 -0.189011
C30   C     C_3   0.083002 0.507411 0.498059 0.105002
H1    H     H_    0.081737 0.409294 0.701985 0.162020
H2    H     H_    0.934095 0.686708 0.424063 0.136254
H3    H     H_    0.546495 0.113999 0.286822 0.170430
H4    H     H_    0.546187 0.886446 0.287439 0.158560
H5    H     H_    0.379883 0.885627 0.699637 0.157557
H6    H     H_    0.378523 0.111007 0.693442 0.195701
H7    H     H_    0.463764 0.119320 0.823332 0.205790
H8    H     H_    0.064873 0.313239 0.575377 0.201572
H9    H     H_    0.610084 0.610822 0.867100 0.161583
H10   H     H_    0.325997 0.531038 0.883188 0.144478
H11   H     H_    0.327087 0.531783 0.126296 0.195811
H12   H     H_    0.316420 0.357117 0.128422 0.209394
H13   H     H_    0.936801 0.339128 0.354669 0.174201
H14   H     H_    0.917701 0.483048 0.278624 0.195579
H15   H     H_    0.910445 0.680449 0.596601 0.213085
N1    N     N_R   0.499430 0.499140 0.142800 -0.116489
N2    N     N_R   0.499430 0.499180 0.857150 -0.141381
O1    O     O_R   0.500010 0.316790 0.614690 -0.601048
O2    O     O_R   0.500000 0.316760 0.385350 -0.619717
O3    O     O_R   0.377150 0.500020 0.614720 -0.594747
O4    O     O_R   0.377140 0.499990 0.385380 -0.616504
O5    O     O_R   0.500000 0.683240 0.614650 -0.634940
O6    O     O_R   0.499990 0.683210 0.385310 -0.645605
O7    O     O_R   0.622860 0.500010 0.614620 -0.609808
O8    O     O_R   0.622850 0.499980 0.385280 -0.623839
Zn1   Zn    Zn3+2 0.500010 0.500020 0.653130 0.950502
Zn2   Zn    Zn3+2 0.499990 0.499980 0.346870 0.931337
C31   C     C_3   0.908220 0.279161 0.626487 -0.393576
C32   C     C_3   0.934753 0.200046 0.747731 -0.909448
H16   H     H_    0.005036 0.194343 0.754379 0.256524
H17   H     H_    0.908281 0.238966 0.843439 0.268771
H18   H     H_    0.909026 0.103387 0.736302 0.252371
H19   H     H_    0.837746 0.286053 0.631406 0.223476
H20   H     H_    0.924286 0.225208 0.534256 0.171728
O9    O     O_3   0.926512 0.476076 0.742793 -0.779161
H21   H     H_    0.958975 0.440194 0.818366 0.337249
C33   C     C_3   0.473965 0.875846 0.866583 -0.353375
C34   C     C_3   0.407114 0.881226 0.980011 -0.899421
H22   H     H_    0.389602 0.979754 0.001838 0.265174
H23   H     H_    0.349225 0.827355 0.951340 0.253624
H24   H     H_    0.433188 0.839305 0.073131 0.250986
H25   H     H_    0.490638 0.776662 0.849972 0.229089
H26   H     H_    0.532552 0.926529 0.898577 0.203382
C35   C     C_3   0.630003 0.643176 0.131166 -0.384921
C36   C     C_3   0.717358 0.581776 0.120700 -0.849498
H27   H     H_    0.715166 0.486176 0.164644 0.275504
H28   H     H_    0.738688 0.575279 0.013351 0.255876
H29   H     H_    0.764706 0.638932 0.176557 0.241006
H30   H     H_    0.633107 0.734878 0.078050 0.164185
H31   H     H_    0.615479 0.666728 0.236581 0.258065
O10   O     O_3   0.306234 0.336294 0.871447 -0.750102
H32   H     H_    0.330645 0.259344 0.910895 0.331020
C37   C     C_3   0.065717 0.565236 0.236418 -0.449278
C38   C     C_3   0.057251 0.525470 0.087402 -0.948842
H33   H     H_    0.112804 0.469974 0.052493 0.268794
H34   H     H_    0.997335 0.471844 0.071265 0.263365
H35   H     H_    0.055923 0.610407 0.023163 0.266620
H36   H     H_    0.016005 0.637134 0.246178 0.213366
H37   H     H_    0.130500 0.606813 0.246116 0.208160
C39   C     C_3   0.098155 0.342370 0.288305 -0.298529
C40   C     C_3   0.108227 0.220113 0.365708 -0.987022
H38   H     H_    0.157077 0.229761 0.445044 0.275142
H39   H     H_    0.046206 0.184676 0.405397 0.260969
H40   H     H_    0.132756 0.147778 0.294690 0.253134
H41   H     H_    0.063902 0.312173 0.196269 0.223421
H42   H     H_    0.163586 0.370813 0.255096 0.214489
C41   C     C_3   0.067233 0.670513 0.702195 -0.236613
C42   C     C_3   0.004617 0.752214 0.784651 -0.899797
H43   H     H_    0.976769 0.829424 0.726775 0.260892
H44   H     H_    0.951295 0.694547 0.826284 0.288581
H45   H     H_    0.038226 0.794218 0.871908 0.232950
H46   H     H_    0.075143 0.587818 0.765259 0.192475
H47   H     H_    0.131515 0.714619 0.709078 0.177825
C43   C     C_3   0.091188 0.758066 0.468012 -0.437507
C44   C     C_3   0.067449 0.890125 0.515304 -0.883136
H48   H     H_    0.997405 0.902694 0.514331 0.257912
H49   H     H_    0.093821 0.912095 0.615983 0.274832
H50   H     H_    0.096187 0.959560 0.444279 0.250996
H51   H     H_    0.161528 0.750966 0.473950 0.200599
H52   H     H_    0.077289 0.763313 0.361125 0.199080

loop_
_geom_bond_atom_site_label_1
_geom_bond_atom_site_label_2
_ccdc_geom_bond_type
C18   C21   A    
C24   H12   S    
C19   C20   A    
C38   H35   S    
C3    C6    S    
C41   C42   S    
C39   C40   S    
C19   N1    A    
C7    C8    T    
C44   H49   S    
C18   C24   S    
C3    C28   S    
C38   H34   S    
C16   H5    S    
C43   H51   S    
C15   C16   S    
O2    Zn2   S    
C27   C39   S    
C33   H25   S    
C34   H22   S    
C33   H26   S    
C17   H6    S    
C9    C10   A    
C41   H46   S    
C2    O9    S    
C37   H36   S    
C5    C43   S    
C32   H16   S    
C7    C30   S    
C35   H31   S    
C21   C22   S    
C27   C30   S    
C25   C29   S    
C24   H11   S    
C18   N1    A    
C43   C44   S    
C23   O6    A    
C4    H15   S    
C31   H20   S    
C37   H37   S    
C44   H50   S    
O7    Zn1   S    
C32   H17   S    
C35   C36   S    
C33   C34   S    
C22   O10   S    
C11   H3    S    
C25   O7    A    
C40   H38   S    
C20   H9    S    
O6    Zn2   S    
C26   H8    S    
C17   H7    S    
C31   C32   S    
C28   H14   S    
O10   H32   S    
C14   C23   S    
C36   H27   S    
C40   H39   S    
C37   C38   S    
C8    C12   S    
C22   H10   S    
C2    C26   S    
C16   C33   S    
C4    H2    S    
C38   H33   S    
C36   H28   S    
C41   H47   S    
O4    Zn2   S    
C9    C17   S    
C5    C41   S    
C26   C30   S    
C42   H44   S    
C35   H30   S    
O8    Zn2   S    
N1    Zn2   S    
C22   C24   S    
C3    C4    S    
C12   O4    A    
C5    C30   S    
C31   H19   S    
O1    Zn1   S    
C32   H18   S    
C19   C35   S    
C1    C10   S    
C25   O8    A    
C4    C5    S    
C39   H41   S    
C12   O3    A    
C2    C31   S    
C1    O1    A    
C39   H42   S    
C42   H45   S    
C44   H48   S    
C28   H13   S    
C27   C37   S    
C2    C3    S    
C9    C15   A    
C13   H4    S    
C40   H40   S    
C43   H52   S    
C11   C13   A    
C23   O5    A    
C16   C17   S    
C34   H24   S    
O9    H21   S    
C36   H29   S    
O3    Zn1   S    
C20   N2    A    
C10   C11   A    
C26   H1    S    
C6    C29   T    
C34   H23   S    
C42   H43   S    
C27   C28   S    
C14   C15   A    
C13   C14   A    
C1    O2    A    
O5    Zn1   S    
N2    Zn1   S    
C21   N2    A    
