data_mof_unit_63852.cif
_audit_creation_date              2012-12-10T17:34:09-0500
_audit_creation_method            fapswitch 2.2
_symmetry_space_group_name_H-M    P1
_symmetry_Int_Tables_number       1
_space_group_crystal_system       triclinic
_cell_length_a                    30.196844
_cell_length_b                    30.196846
_cell_length_c                    29.103925
_cell_angle_alpha                 89.999955
_cell_angle_beta                  89.999939
_cell_angle_gamma                 89.999932
_cell_volume                      26538.3979445

loop_
_atom_site_label
_atom_site_type_symbol
_atom_type_description
_atom_site_fract_x
_atom_site_fract_y
_atom_site_fract_z
_atom_type_partial_charge
C1    C     C_R   0.500065 0.913377 0.000044 0.980884
C2    C     C_R   0.086623 0.500065 0.000044 0.980883
C3    C     C_R   0.499935 0.086623 0.000044 0.980884
C4    C     C_R   0.913377 0.499935 0.000044 0.980883
C5    C     C_R   0.000065 0.413377 0.500044 0.980885
C6    C     C_R   0.586623 0.000065 0.500044 0.980883
C7    C     C_R   0.999935 0.586623 0.500044 0.980883
C8    C     C_R   0.413377 0.999935 0.500044 0.980885
C9    C     C_R   0.573639 0.729334 0.042599 0.392695
C10   C     C_R   0.270665 0.573639 0.042600 0.392695
C11   C     C_R   0.426361 0.270665 0.042601 0.392694
C12   C     C_R   0.729335 0.426360 0.042599 0.392695
C13   C     C_R   0.544134 0.272893 0.928836 0.393124
C14   C     C_R   0.272893 0.455865 0.928837 0.393124
C15   C     C_R   0.455865 0.727107 0.928836 0.393124
C16   C     C_R   0.727107 0.544137 0.928838 0.393124
C17   C     C_R   0.073639 0.229335 0.542601 0.392695
C18   C     C_R   0.770665 0.073639 0.542600 0.392695
C19   C     C_R   0.926361 0.770665 0.542600 0.392695
C20   C     C_R   0.229335 0.926361 0.542600 0.392695
C21   C     C_R   0.044135 0.772893 0.428837 0.393125
C22   C     C_R   0.772893 0.955865 0.428837 0.393124
C23   C     C_R   0.955865 0.227107 0.428837 0.393124
C24   C     C_R   0.227107 0.044135 0.428837 0.393124
C25   C     C_R   0.569053 0.774842 0.046338 -0.144883
C26   C     C_R   0.225157 0.569053 0.046339 -0.144884
C27   C     C_R   0.430947 0.225157 0.046340 -0.144883
C28   C     C_R   0.774843 0.430947 0.046338 -0.144884
C29   C     C_R   0.545357 0.227024 0.929997 -0.145254
C30   C     C_R   0.227024 0.454642 0.929998 -0.145254
C31   C     C_R   0.454642 0.772976 0.929998 -0.145254
C32   C     C_R   0.772976 0.545359 0.929999 -0.145254
C33   C     C_R   0.069052 0.274843 0.546340 -0.144883
C34   C     C_R   0.725157 0.069053 0.546340 -0.144884
C35   C     C_R   0.930947 0.725157 0.546339 -0.144883
C36   C     C_R   0.274843 0.930948 0.546340 -0.144883
C37   C     C_R   0.045358 0.727024 0.429998 -0.145254
C38   C     C_R   0.727024 0.954642 0.429998 -0.145254
C39   C     C_R   0.954642 0.272976 0.429998 -0.145254
C40   C     C_R   0.272975 0.045358 0.429998 -0.145255
C41   C     C_R   0.535396 0.797182 0.023014 -0.018935
C42   C     C_R   0.202817 0.535396 0.023014 -0.018935
C43   C     C_R   0.464604 0.202817 0.023015 -0.018934
C44   C     C_R   0.797183 0.464604 0.023014 -0.018935
C45   C     C_R   0.521236 0.203352 0.962846 -0.017649
C46   C     C_R   0.203352 0.478763 0.962847 -0.017649
C47   C     C_R   0.478763 0.796648 0.962846 -0.017649
C48   C     C_R   0.796647 0.521238 0.962847 -0.017650
C49   C     C_R   0.035396 0.297183 0.523015 -0.018935
C50   C     C_R   0.702817 0.035396 0.523015 -0.018934
C51   C     C_R   0.964604 0.702817 0.523014 -0.018934
C52   C     C_R   0.297183 0.964604 0.523015 -0.018935
C53   C     C_R   0.021237 0.703352 0.462846 -0.017650
C54   C     C_R   0.703352 0.978763 0.462847 -0.017649
C55   C     C_R   0.978763 0.296648 0.462847 -0.017649
C56   C     C_R   0.296648 0.021237 0.462847 -0.017649
C57   C     C_R   0.508054 0.773653 0.992277 -0.014589
C58   C     C_R   0.226347 0.508054 0.992278 -0.014589
C59   C     C_R   0.491945 0.226347 0.992278 -0.014589
C60   C     C_R   0.773653 0.491946 0.992278 -0.014589
C61   C     C_R   0.008054 0.273653 0.492278 -0.014588
C62   C     C_R   0.726347 0.008054 0.492278 -0.014589
C63   C     C_R   0.991946 0.726347 0.492278 -0.014589
C64   C     C_R   0.273653 0.991946 0.492278 -0.014588
C65   C     C_R   0.530166 0.842895 0.027928 0.310101
C66   C     C_R   0.157105 0.530165 0.027929 0.310101
C67   C     C_R   0.469835 0.157105 0.027929 0.310101
C68   C     C_R   0.842895 0.469834 0.027929 0.310102
C69   C     C_R   0.524078 0.157083 0.965378 0.307427
C70   C     C_R   0.157083 0.475921 0.965378 0.307427
C71   C     C_R   0.475921 0.842917 0.965378 0.307427
C72   C     C_R   0.842916 0.524079 0.965378 0.307428
C73   C     C_R   0.030165 0.342895 0.527929 0.310100
C74   C     C_R   0.657104 0.030165 0.527929 0.310101
C75   C     C_R   0.969835 0.657105 0.527929 0.310101
C76   C     C_R   0.342895 0.969835 0.527929 0.310101
C77   C     C_R   0.024078 0.657083 0.465378 0.307427
C78   C     C_R   0.657083 0.975921 0.465378 0.307427
C79   C     C_R   0.975922 0.342917 0.465378 0.307427
C80   C     C_R   0.342916 0.024078 0.465378 0.307427
C81   C     C_R   0.500932 0.865531 0.998653 -0.239505
C82   C     C_R   0.134469 0.500932 0.998654 -0.239504
C83   C     C_R   0.499068 0.134469 0.998654 -0.239504
C84   C     C_R   0.865531 0.499068 0.998654 -0.239505
C85   C     C_R   0.000932 0.365531 0.498654 -0.239503
C86   C     C_R   0.634469 0.000932 0.498654 -0.239504
C87   C     C_R   0.999068 0.634469 0.498654 -0.239504
C88   C     C_R   0.365531 0.999068 0.498654 -0.239504
C89   C     C_R   0.412231 0.501328 0.000035 0.963096
C90   C     C_R   0.498672 0.412231 0.000035 0.963096
C91   C     C_R   0.587768 0.498672 0.000035 0.963096
C92   C     C_R   0.501328 0.587768 0.000035 0.963096
C93   C     C_R   0.912231 0.001328 0.500035 0.963097
C94   C     C_R   0.998672 0.912232 0.500035 0.963096
C95   C     C_R   0.087768 0.998672 0.500035 0.963095
C96   C     C_R   0.001329 0.087768 0.500035 0.963096
C97   C     C_R   0.500000 0.000000 0.085688 0.892045
C98   C     C_R   0.000000 0.500000 0.085688 0.892045
C99   C     C_R   0.500000 0.000000 0.914313 0.891845
C100  C     C_R   0.000000 0.500000 0.914313 0.891844
C101  C     C_R   0.000000 0.500000 0.585688 0.892045
C102  C     C_R   0.500000 1.000000 0.585688 0.892046
C103  C     C_R   1.000000 0.500000 0.414313 0.891845
C104  C     C_R   0.500000 0.000000 0.414313 0.891845
C105  C     C_1   0.500000 0.000000 0.136519 -0.102348
C106  C     C_1   1.000000 0.500000 0.136519 -0.102349
C107  C     C_1   0.500000 1.000000 0.863482 -0.102975
C108  C     C_1   1.000000 0.500000 0.863482 -0.102976
C109  C     C_1   1.000000 0.500000 0.636519 -0.102348
C110  C     C_1   0.500000 1.000000 0.636519 -0.102348
C111  C     C_1   1.000000 0.500000 0.363482 -0.102975
C112  C     C_1   0.500000 0.000000 0.363482 -0.102975
C113  C     C_1   0.500000 0.000000 0.178851 0.058684
C114  C     C_1   1.000000 0.500000 0.178851 0.058683
C115  C     C_1   0.500000 1.000000 0.821151 0.057807
C116  C     C_1   1.000000 0.500000 0.821151 0.057806
C117  C     C_1   1.000000 0.500000 0.678851 0.058684
C118  C     C_1   0.500000 1.000000 0.678851 0.058684
C119  C     C_1   0.000000 0.500000 0.321151 0.057807
C120  C     C_1   0.500000 0.000000 0.321151 0.057806
C121  C     C_1   0.500000 0.000000 0.228835 0.060754
C122  C     C_1   1.000000 0.500000 0.228835 0.060754
C123  C     C_1   0.500000 1.000000 0.771167 0.060380
C124  C     C_1   1.000000 0.500000 0.771167 0.060380
C125  C     C_1   1.000000 0.500000 0.728835 0.060754
C126  C     C_1   0.500000 1.000000 0.728835 0.060754
C127  C     C_1   1.000000 0.500000 0.271167 0.060380
C128  C     C_1   0.500000 0.000000 0.271167 0.060380
C129  C     C_R   0.474183 0.658032 0.970016 0.150556
C130  C     C_R   0.341968 0.474183 0.970017 0.150555
C131  C     C_R   0.525817 0.341968 0.970016 0.150556
C132  C     C_R   0.658032 0.525818 0.970017 0.150555
C133  C     C_R   0.463878 0.342079 0.025131 0.139582
C134  C     C_R   0.342079 0.536122 0.025130 0.139581
C135  C     C_R   0.536121 0.657921 0.025131 0.139583
C136  C     C_R   0.657921 0.463877 0.025130 0.139581
C137  C     C_R   0.974183 0.158032 0.470017 0.150556
C138  C     C_R   0.841968 0.974183 0.470017 0.150555
C139  C     C_R   0.025817 0.841968 0.470016 0.150555
C140  C     C_R   0.158032 0.025817 0.470017 0.150555
C141  C     C_R   0.963878 0.842079 0.525131 0.139581
C142  C     C_R   0.842079 0.036122 0.525131 0.139581
C143  C     C_R   0.036123 0.157921 0.525131 0.139582
C144  C     C_R   0.157921 0.963878 0.525131 0.139582
C145  C     C_R   0.503467 0.635592 0.999323 -0.221609
C146  C     C_R   0.364408 0.503468 0.999323 -0.221609
C147  C     C_R   0.496532 0.364408 0.999323 -0.221610
C148  C     C_R   0.635591 0.496532 0.999323 -0.221609
C149  C     C_R   0.003468 0.135592 0.499323 -0.221610
C150  C     C_R   0.864408 0.003468 0.499323 -0.221609
C151  C     C_R   0.996532 0.864408 0.499323 -0.221609
C152  C     C_R   0.135592 0.996532 0.499323 -0.221609
C153  C     C_R   0.540388 0.704204 0.020076 -0.012674
C154  C     C_R   0.295796 0.540389 0.020076 -0.012673
C155  C     C_R   0.459612 0.295796 0.020077 -0.012673
C156  C     C_R   0.704204 0.459611 0.020075 -0.012673
C157  C     C_R   0.520367 0.296416 0.962902 -0.014863
C158  C     C_R   0.296416 0.479632 0.962902 -0.014863
C159  C     C_R   0.479632 0.703584 0.962901 -0.014863
C160  C     C_R   0.703584 0.520369 0.962903 -0.014863
C161  C     C_R   0.040389 0.204204 0.520076 -0.012674
C162  C     C_R   0.795796 0.040389 0.520076 -0.012673
C163  C     C_R   0.959611 0.795796 0.520076 -0.012673
C164  C     C_R   0.204204 0.959611 0.520076 -0.012673
C165  C     C_R   0.020368 0.796416 0.462902 -0.014863
C166  C     C_R   0.796416 0.979632 0.462902 -0.014863
C167  C     C_R   0.979632 0.203584 0.462902 -0.014863
C168  C     C_R   0.203584 0.020368 0.462902 -0.014863
C169  C     C_R   0.509595 0.727009 0.991520 -0.044063
C170  C     C_R   0.272991 0.509595 0.991521 -0.044064
C171  C     C_R   0.490405 0.272991 0.991521 -0.044064
C172  C     C_R   0.727009 0.490406 0.991521 -0.044064
C173  C     C_R   0.009595 0.227009 0.491521 -0.044064
C174  C     C_R   0.772991 0.009595 0.491521 -0.044064
C175  C     C_R   0.990405 0.772991 0.491521 -0.044064
C176  C     C_R   0.227009 0.990405 0.491521 -0.044064
H1    H     H_    0.593991 0.792863 0.065412 0.238366
H2    H     H_    0.207137 0.593990 0.065413 0.238367
H3    H     H_    0.406011 0.207137 0.065415 0.238367
H4    H     H_    0.792863 0.406009 0.065412 0.238366
H5    H     H_    0.564822 0.210256 0.904110 0.239053
H6    H     H_    0.210256 0.435176 0.904111 0.239053
H7    H     H_    0.435176 0.789744 0.904111 0.239053
H8    H     H_    0.789743 0.564826 0.904112 0.239053
H9    H     H_    0.093989 0.292863 0.565415 0.238367
H10   H     H_    0.707137 0.093990 0.565414 0.238367
H11   H     H_    0.906010 0.707137 0.565413 0.238367
H12   H     H_    0.292863 0.906011 0.565414 0.238367
H13   H     H_    0.064824 0.710256 0.404111 0.239053
H14   H     H_    0.710256 0.935176 0.404111 0.239053
H15   H     H_    0.935177 0.289744 0.404111 0.239053
H16   H     H_    0.289744 0.064824 0.404111 0.239053
O1    O     O_R   0.537310 0.933950 0.000030 -0.579052
O2    O     O_R   0.066050 0.537310 0.000030 -0.579052
O3    O     O_R   0.462690 0.066050 0.000030 -0.579053
O4    O     O_R   0.933950 0.462690 0.000030 -0.579051
O5    O     O_R   0.537310 0.066050 0.999970 -0.571796
O6    O     O_R   0.066050 0.462690 0.999970 -0.571796
O7    O     O_R   0.462690 0.933950 0.999970 -0.571796
O8    O     O_R   0.933950 0.537310 0.999970 -0.571796
O9    O     O_R   0.037310 0.433950 0.500030 -0.579052
O10   O     O_R   0.566050 0.037310 0.500030 -0.579052
O11   O     O_R   0.962690 0.566050 0.500030 -0.579052
O12   O     O_R   0.433950 0.962690 0.500030 -0.579052
O13   O     O_R   0.037310 0.566050 0.499970 -0.571796
O14   O     O_R   0.566050 0.962690 0.499970 -0.571796
O15   O     O_R   0.962690 0.433950 0.499970 -0.571796
O16   O     O_R   0.433950 0.037310 0.499970 -0.571797
O17   O     O_R   0.537300 0.000020 0.063150 -0.584017
O18   O     O_R   0.999980 0.537300 0.063150 -0.584016
O19   O     O_R   0.462700 0.999980 0.063150 -0.584016
O20   O     O_R   0.000020 0.462700 0.063150 -0.584017
O21   O     O_R   0.537300 0.999980 0.936850 -0.584118
O22   O     O_R   0.999980 0.462700 0.936850 -0.584117
O23   O     O_R   0.462700 0.000020 0.936850 -0.584117
O24   O     O_R   0.000020 0.537300 0.936850 -0.584118
O25   O     O_R   0.037300 0.500020 0.563150 -0.584017
O26   O     O_R   0.499980 0.037300 0.563150 -0.584016
O27   O     O_R   0.962700 0.499980 0.563150 -0.584016
O28   O     O_R   0.500020 0.962700 0.563150 -0.584017
O29   O     O_R   0.037300 0.499980 0.436850 -0.584118
O30   O     O_R   0.499980 0.962700 0.436850 -0.584117
O31   O     O_R   0.962700 0.500020 0.436850 -0.584118
O32   O     O_R   0.500020 0.037300 0.436850 -0.584118
O33   O     O_R   0.433890 0.500020 0.035650 -0.602051
O34   O     O_R   0.499980 0.433890 0.035650 -0.602051
O35   O     O_R   0.566110 0.499980 0.035650 -0.602051
O36   O     O_R   0.500020 0.566110 0.035650 -0.602050
O37   O     O_R   0.433890 0.499980 0.964350 -0.599689
O38   O     O_R   0.499980 0.566110 0.964350 -0.599690
O39   O     O_R   0.566110 0.500020 0.964350 -0.599689
O40   O     O_R   0.500020 0.433890 0.964350 -0.599689
O41   O     O_R   0.933890 0.000020 0.535650 -0.602051
O42   O     O_R   0.999980 0.933890 0.535650 -0.602051
O43   O     O_R   0.066110 0.999980 0.535650 -0.602051
O44   O     O_R   0.000020 0.066110 0.535650 -0.602051
O45   O     O_R   0.933890 0.999980 0.464350 -0.599689
O46   O     O_R   0.999980 0.066110 0.464350 -0.599689
O47   O     O_R   0.066110 0.000020 0.464350 -0.599689
O48   O     O_R   0.000020 0.933890 0.464350 -0.599689
Zn1   Zn    Zn3+2 0.549820 0.000000 0.000000 1.124098
Zn2   Zn    Zn3+2 0.000000 0.549820 0.000000 1.124099
Zn3   Zn    Zn3+2 0.450180 0.000000 0.000000 1.124099
Zn4   Zn    Zn3+2 0.000000 0.450180 0.000000 1.124099
Zn5   Zn    Zn3+2 0.049820 0.500000 0.500000 1.124099
Zn6   Zn    Zn3+2 0.500000 0.049820 0.500000 1.124098
Zn7   Zn    Zn3+2 0.950180 0.500000 0.500000 1.124098
Zn8   Zn    Zn3+2 0.500000 0.950180 0.500000 1.124099
Zn9   Zn    Zn3+2 0.500000 0.500000 0.047600 1.108286
Zn10  Zn    Zn3+2 0.500000 0.500000 0.952400 1.126063
Zn11  Zn    Zn3+2 1.000000 0.000000 0.547600 1.108285
Zn12  Zn    Zn3+2 1.000000 0.000000 0.452400 1.126063
I1    I     I_    0.413420 0.624570 0.951714 -0.120921
I2    I     I_    0.375429 0.413420 0.951716 -0.120923
I3    I     I_    0.586579 0.375429 0.951714 -0.120920
I4    I     I_    0.624570 0.586581 0.951717 -0.120921
I5    I     I_    0.429647 0.378346 0.078580 -0.120143
I6    I     I_    0.378347 0.570355 0.078578 -0.120145
I7    I     I_    0.570350 0.621655 0.078582 -0.120143
I8    I     I_    0.621653 0.429645 0.078578 -0.120146
I9    I     I_    0.913420 0.124571 0.451715 -0.120921
I10   I     I_    0.875429 0.913420 0.451715 -0.120921
I11   I     I_    0.086580 0.875429 0.451715 -0.120922
I12   I     I_    0.124570 0.086580 0.451715 -0.120923
I13   I     I_    0.929646 0.878347 0.578579 -0.120145
I14   I     I_    0.878347 0.070354 0.578578 -0.120145
I15   I     I_    0.070355 0.121652 0.578578 -0.120143
I16   I     I_    0.121653 0.929645 0.578578 -0.120145
Cl1   Cl    Cl    0.626244 0.709062 0.058507 -0.479958
Cl2   Cl    Cl    0.290936 0.626244 0.058507 -0.479958
Cl3   Cl    Cl    0.373757 0.290937 0.058510 -0.479958
Cl4   Cl    Cl    0.709063 0.373755 0.058505 -0.479958
Cl5   Cl    Cl    0.565862 0.297383 0.878619 -0.471979
Cl6   Cl    Cl    0.297383 0.434135 0.878620 -0.471978
Cl7   Cl    Cl    0.434136 0.702617 0.878619 -0.471978
Cl8   Cl    Cl    0.702617 0.565867 0.878622 -0.471979
Cl9   Cl    Cl    0.126243 0.209064 0.558510 -0.479958
Cl10  Cl    Cl    0.790936 0.126244 0.558508 -0.479958
Cl11  Cl    Cl    0.873756 0.790937 0.558507 -0.479958
Cl12  Cl    Cl    0.209064 0.873756 0.558509 -0.479958
Cl13  Cl    Cl    0.065864 0.797383 0.378620 -0.471979
Cl14  Cl    Cl    0.797383 0.934137 0.378619 -0.471978
Cl15  Cl    Cl    0.934136 0.202617 0.378620 -0.471979
Cl16  Cl    Cl    0.202617 0.065864 0.378620 -0.471978
Cl17  Cl    Cl    0.558328 0.871711 0.072526 -0.558904
Cl18  Cl    Cl    0.128289 0.558327 0.072527 -0.558905
Cl19  Cl    Cl    0.441673 0.128289 0.072528 -0.558906
Cl20  Cl    Cl    0.871711 0.441672 0.072526 -0.558904
Cl21  Cl    Cl    0.557419 0.127041 0.925831 -0.559011
Cl22  Cl    Cl    0.127042 0.442580 0.925832 -0.559010
Cl23  Cl    Cl    0.442580 0.872959 0.925832 -0.559010
Cl24  Cl    Cl    0.872958 0.557420 0.925833 -0.559010
Cl25  Cl    Cl    0.058327 0.371711 0.572527 -0.558906
Cl26  Cl    Cl    0.628289 0.058327 0.572527 -0.558905
Cl27  Cl    Cl    0.941672 0.628289 0.572527 -0.558906
Cl28  Cl    Cl    0.371711 0.941673 0.572527 -0.558906
Cl29  Cl    Cl    0.057420 0.627041 0.425832 -0.559010
Cl30  Cl    Cl    0.627042 0.942580 0.425832 -0.559010
Cl31  Cl    Cl    0.942581 0.372959 0.425831 -0.559011
Cl32  Cl    Cl    0.372958 0.057419 0.425832 -0.559010

loop_
_geom_bond_atom_site_label_1
_geom_bond_atom_site_label_2
_ccdc_geom_bond_type
C130  C146  A    
C110  C118  T    
C100  O22   A    
C71   Cl23  S    
C14   C158  A    
O25   Zn5   S    
O13   Zn5   S    
C131  I3    S    
C22   C38   A    
C154  C170  A    
O22   Zn4   S    
C13   C157  A    
C34   H10   S    
C21   Cl13  S    
C7    O11   A    
C103  O31   A    
C45   C59   A    
C38   H14   S    
C133  C155  A    
C136  I8    S    
C116  C124  S    
C140  C152  A    
C129  C145  A    
C13   Cl5   S    
C97   C105  S    
O28   Zn8   S    
C144  C164  A    
C30   H6    S    
C42   C58   A    
C93   C150  S    
C59   C171  A    
C134  C146  A    
C166  C174  A    
C115  C123  S    
C45   C69   A    
C8    O12   A    
O18   Zn2   S    
C121  C128  T    
C25   C41   A    
C112  C120  T    
C94   O42   A    
C123  C126  T    
C99   O21   A    
C28   C44   A    
C3    O3    A    
C29   C45   A    
C36   H12   S    
C132  C148  A    
C1    O1    A    
C66   C82   A    
C39   H15   S    
C101  O27   A    
C4    C84   S    
C11   C27   A    
C134  I6    S    
C160  C172  A    
C95   O47   A    
C15   Cl7   S    
C28   H4    S    
C47   C71   A    
C72   C84   A    
C23   C167  A    
C130  I2    S    
C35   C51   A    
C49   C73   A    
C79   Cl31  S    
O8    Zn2   S    
C79   C85   A    
O1    Zn1   S    
C77   Cl29  S    
O36   Zn9   S    
C4    O4    A    
C100  O24   A    
O46   Zn12  S    
C9    Cl1   S    
C90   O34   A    
O15   Zn7   S    
C98   C106  S    
C80   C88   A    
C19   C35   A    
C157  C171  A    
C108  C116  T    
C70   C82   A    
O16   Zn6   S    
C46   C70   A    
C132  I4    S    
C22   C166  A    
C143  C149  A    
C95   C152  S    
C33   C49   A    
C143  C161  A    
C103  O29   A    
O34   Zn9   S    
C67   C83   A    
C139  I11   S    
C16   C160  A    
C142  I14   S    
C163  C175  A    
C97   O17   A    
C70   Cl22  S    
C105  C113  T    
C50   C74   A    
C5    O9    A    
C111  C119  T    
C122  C127  T    
C139  C165  A    
C93   O45   A    
C56   C64   A    
C131  C147  A    
C133  C147  A    
C64   C176  A    
C36   C52   A    
C43   C59   A    
O35   Zn9   S    
C5    C85   S    
C9    C153  A    
C46   C58   A    
C90   O40   A    
C48   C72   A    
C104  O30   A    
O24   Zn2   S    
C39   C55   A    
C100  C108  S    
C66   Cl18  S    
C24   C168  A    
C22   Cl14  S    
O17   Zn1   S    
C104  C112  S    
C158  C170  A    
O31   Zn7   S    
C156  C172  A    
C91   O39   A    
C8    C88   S    
O14   Zn8   S    
C90   C147  S    
C47   C57   A    
C14   Cl6   S    
C19   C163  A    
C73   C85   A    
C136  C148  A    
C17   C161  A    
C75   C87   A    
C129  I1    S    
C11   C155  A    
O29   Zn5   S    
C26   C42   A    
O32   Zn6   S    
C168  C176  A    
O3    Zn3   S    
C97   O19   A    
O47   Zn12  S    
C11   Cl3   S    
C30   C46   A    
C20   Cl12  S    
C52   C76   A    
O42   Zn11  S    
C15   C31   A    
C23   Cl15  S    
C16   C32   A    
C135  I7    S    
C56   C80   A    
C138  C166  A    
C72   Cl24  S    
C144  C152  A    
C10   C154  A    
C53   C63   A    
C55   C61   A    
C139  C151  A    
C6    O14   A    
C102  O26   A    
C4    O8    A    
C113  C121  S    
C77   C87   A    
C43   C67   A    
C140  I12   S    
C117  C125  S    
C104  O32   A    
C17   Cl9   S    
C71   C81   A    
C137  I9    S    
C19   Cl11  S    
C7    O13   A    
C9    C25   A    
C1    O7    A    
O5    Zn1   S    
C12   C28   A    
C13   C29   A    
C27   H3    S    
C25   H1    S    
C101  C109  S    
C20   C164  A    
C21   C165  A    
C103  C111  S    
C131  C157  A    
C75   Cl27  S    
O30   Zn8   S    
C7    C87   S    
C138  I10   S    
C40   C56   A    
O45   Zn12  S    
C167  C173  A    
C133  I5    S    
C31   C47   A    
C32   C48   A    
C144  I16   S    
C17   C33   A    
O10   Zn6   S    
C49   C61   A    
C68   C84   A    
O19   Zn3   S    
O9    Zn5   S    
C52   C64   A    
C54   C62   A    
C93   O41   A    
C94   C151  S    
C98   O20   A    
C2    O2    A    
C109  C117  T    
C53   C77   A    
C15   C159  A    
C55   C79   A    
C65   C81   A    
C38   C54   A    
C74   Cl26  S    
C1    C81   S    
C51   C63   A    
C94   O48   A    
O4    Zn4   S    
O48   Zn12  S    
O27   Zn7   S    
C102  C110  S    
C16   Cl8   S    
C137  C167  A    
O41   Zn11  S    
C159  C169  A    
C91   O35   A    
C12   Cl4   S    
C89   O33   A    
C6    C86   S    
C142  C162  A    
C120  C128  S    
C6    O10   A    
C99   C107  S    
C78   Cl30  S    
O23   Zn3   S    
C130  C158  A    
C142  C150  A    
O21   Zn1   S    
C41   C57   A    
C18   C162  A    
C134  C154  A    
C44   C60   A    
C96   C149  S    
C164  C176  A    
C20   C36   A    
C27   C43   A    
C21   C37   A    
C92   O36   A    
C35   H11   S    
C10   Cl2   S    
C153  C169  A    
C65   Cl17  S    
C33   H9    S    
C54   C78   A    
C140  C168  A    
C37   H13   S    
O43   Zn11  S    
C96   O46   A    
C138  C150  A    
C98   O18   A    
C132  C160  A    
C29   H5    S    
C106  C114  T    
O26   Zn6   S    
C58   C170  A    
C51   C75   A    
C76   Cl28  S    
C136  C156  A    
C5    O15   A    
C62   C174  A    
C161  C173  A    
C73   Cl25  S    
C8    O16   A    
C67   Cl19  S    
C3    O5    A    
C18   Cl10  S    
C24   Cl16  S    
C40   H16   S    
C135  C145  A    
C76   C88   A    
O37   Zn10  S    
C78   C86   A    
C68   Cl20  S    
C137  C149  A    
C95   O43   A    
C14   C30   A    
C91   C148  S    
C48   C60   A    
C57   C169  A    
C26   H2    S    
C89   C146  S    
C34   C50   A    
C60   C172  A    
C61   C173  A    
C41   C65   A    
O6    Zn4   S    
C141  I13   S    
C69   C83   A    
C101  O25   A    
C92   O38   A    
C96   O44   A    
O11   Zn7   S    
C74   C86   A    
C18   C34   A    
C107  C115  T    
O12   Zn8   S    
C141  C163  A    
C50   C62   A    
C44   C68   A    
O40   Zn10  S    
C12   C156  A    
O44   Zn11  S    
C129  C159  A    
C141  C151  A    
O33   Zn9   S    
O2    Zn2   S    
C31   H7    S    
C92   C145  S    
C2    O6    A    
C32   H8    S    
C63   C175  A    
C162  C174  A    
C102  O28   A    
C165  C175  A    
C135  C153  A    
C37   C53   A    
O20   Zn4   S    
C3    C83   S    
C10   C26   A    
C99   O23   A    
C23   C39   A    
C24   C40   A    
C69   Cl21  S    
C143  I15   S    
O7    Zn3   S    
C2    C82   S    
C80   Cl32  S    
C114  C122  S    
C155  C171  A    
C42   C66   A    
C118  C126  S    
C89   O37   A    
O38   Zn10  S    
O39   Zn10  S    
C119  C127  S    
C124  C125  T    
