data_mof_unit_37542.cif
_audit_creation_date              2012-12-10T20:46:50-0500
_audit_creation_method            fapswitch 2.2
_symmetry_space_group_name_H-M    P1
_symmetry_Int_Tables_number       1
_space_group_crystal_system       triclinic
_cell_length_a                    12.949222
_cell_length_b                    8.926329
_cell_length_c                    8.116039
_cell_angle_alpha                 89.940772
_cell_angle_beta                  96.801909
_cell_angle_gamma                 90.090565
_cell_volume                      931.520524666

loop_
_atom_site_label
_atom_site_type_symbol
_atom_type_description
_atom_site_fract_x
_atom_site_fract_y
_atom_site_fract_z
_atom_type_partial_charge
C1    C     C_R   0.500125 0.218049 0.500065 0.919222
C2    C     C_R   0.867605 0.558117 0.688863 -0.353037
C3    C     C_R   0.134157 0.493981 0.595511 0.463664
C4    C     C_R   0.863389 0.423167 0.426353 0.417000
C5    C     C_R   0.026558 0.501013 0.576929 -0.057186
C6    C     C_R   0.970531 0.443877 0.429042 -0.078042
C7    C     C_1   0.500347 0.065242 0.500084 -0.201819
C8    C     C_1   0.500388 0.934817 0.499934 -0.196979
C9    C     C_3   0.791445 0.195610 0.358941 0.083123
C10   C     C_3   0.729444 0.105588 0.222023 -0.784624
C11   C     C_3   0.178427 0.344589 0.821247 0.089351
C12   C     C_R   0.500225 0.781970 0.499975 0.934467
C13   C     C_3   0.277204 0.304341 0.932757 -0.766956
C14   C     C_R   0.297558 0.494674 0.469001 0.920362
C15   C     C_R   0.701784 0.496808 0.531731 0.910886
C16   C     C_R   0.812802 0.489642 0.551357 -0.177669
C17   C     C_R   0.185631 0.479136 0.453875 -0.222924
C18   C     C_R   0.024296 0.412513 0.290205 0.111478
C19   C     C_R   0.974780 0.563065 0.703883 0.125711
C20   C     C_R   0.130280 0.440692 0.301864 -0.284551
H1    H     H_    0.827146 0.611677 0.782476 0.182580
H2    H     H_    0.299775 0.397037 0.020409 0.266649
H3    H     H_    0.264351 0.201261 0.004343 0.196287
H4    H     H_    0.341360 0.283513 0.856419 0.260524
H5    H     H_    0.912910 0.431756 0.091778 0.230703
H6    H     H_    0.947081 0.251410 0.147656 0.218900
H7    H     H_    0.003275 0.756531 0.830966 0.173816
H8    H     H_    0.012359 0.600914 0.949846 0.194685
H9    H     H_    0.170123 0.424487 0.193748 0.199110
H10   H     H_    0.746839 0.196703 0.468162 0.127451
H11   H     H_    0.867319 0.138308 0.393782 0.126137
H12   H     H_    0.773159 0.097846 0.112605 0.237550
H13   H     H_    0.715336 0.990765 0.267331 0.205619
H14   H     H_    0.653395 0.160441 0.184220 0.275315
H15   H     H_    0.164782 0.254089 0.725925 0.112272
H16   H     H_    0.112183 0.344456 0.896426 0.165235
N1    N     N_1   0.500020 0.500000 0.073640 -0.035328
N2    N     N_1   0.499980 0.500000 0.926360 -0.031016
N3    N     N_3   0.974307 0.360286 0.133730 -0.474139
N4    N     N_3   0.030108 0.646004 0.837934 -0.395406
O1    O     O_R   0.499990 0.285340 0.636850 -0.632031
O2    O     O_3   0.188824 0.489585 0.753088 -0.567875
O3    O     O_R   0.500010 0.714660 0.363150 -0.617694
O4    O     O_R   0.500010 0.285340 0.363150 -0.623021
O5    O     O_R   0.499990 0.714660 0.636850 -0.613158
O6    O     O_R   0.346350 0.500000 0.614250 -0.560607
O7    O     O_R   0.653650 0.500000 0.385750 -0.571185
O8    O     O_R   0.346360 0.500000 0.340500 -0.642231
O9    O     O_R   0.653640 0.500000 0.659500 -0.634122
O10   O     O_3   0.806911 0.342331 0.300725 -0.610416
Zn1   Zn    Zn3+2 0.499990 0.500000 0.682780 0.994789
Zn2   Zn    Zn3+2 0.500010 0.500000 0.317220 0.989132

loop_
_geom_bond_atom_site_label_1
_geom_bond_atom_site_label_2
_ccdc_geom_bond_type
C4    C16   A    
C18   N3    S    
C3    O2    S    
O7    Zn2   S    
C5    C19   A    
C10   H13   S    
C2    C16   A    
C9    C10   S    
C1    O4    A    
C15   O7    A    
H7    N4    S    
C8    C12   S    
O4    Zn2   S    
C2    H1    S    
C11   H15   S    
C7    C8    T    
C14   O6    A    
H5    N3    S    
C11   C13   S    
C14   C17   S    
N1    N2    T    
C9    H10   S    
O5    Zn1   S    
C1    O1    A    
C11   H16   S    
C13   H2    S    
C3    C17   A    
C12   O3    A    
C18   C20   A    
C20   H9    S    
C15   O9    A    
C5    C6    A    
C6    C18   A    
H6    N3    S    
C4    C6    A    
C19   N4    S    
C9    H11   S    
C15   C16   S    
C10   H12   S    
O8    Zn2   S    
C17   C20   A    
C13   H3    S    
C11   O2    S    
C10   H14   S    
C4    O10   S    
N1    Zn2   S    
H8    N4    S    
C14   O8    A    
N2    Zn1   S    
C3    C5    A    
C2    C19   A    
C1    C7    S    
O6    Zn1   S    
O1    Zn1   S    
C9    O10   S    
C13   H4    S    
O3    Zn2   S    
C12   O5    A    
O9    Zn1   S    
