data_mof_unit_23668.cif
_audit_creation_date              2013-03-05T16:35:53-0500
_audit_creation_method            fapswitch 2.2
_symmetry_space_group_name_H-M    P1
_symmetry_Int_Tables_number       1
_space_group_crystal_system       triclinic
_cell_length_a                    23.48784
_cell_length_b                    9.078977
_cell_length_c                    7.786222
_cell_angle_alpha                 89.932258
_cell_angle_beta                  90.056967
_cell_angle_gamma                 89.94034
_cell_volume                      1660.37438063

loop_
_atom_site_label
_atom_site_type_symbol
_atom_site_description
_atom_site_fract_x
_atom_site_fract_y
_atom_site_fract_z
_atom_type_partial_charge
O1    O     O_R   0.500000 0.288390 0.642760 -0.576307
O2    O     O_R   0.500000 0.711610 0.357240 -0.574029
O3    O     O_R   0.500000 0.711610 0.642760 -0.579311
O4    O     O_R   0.500000 0.288390 0.357240 -0.581433
H1    H     H_    0.948747 0.367289 0.910267 0.198915
H2    H     H_    0.051291 0.618104 0.090994 0.196566
H3    H     H_    0.947798 0.619665 0.092305 0.194851
H4    H     H_    0.052252 0.365337 0.908789 0.197857
C1    C     C_R   0.500037 0.220040 0.500057 0.832795
C2    C     C_R   0.500246 0.779961 0.499935 0.825094
O5    O     O_R   0.417880 0.500000 0.642820 -0.573694
O6    O     O_R   0.582120 0.500000 0.357180 -0.577862
O7    O     O_R   0.582120 0.500000 0.642820 -0.577256
O8    O     O_R   0.417880 0.500000 0.357180 -0.577573
C3    C     C_R   0.209296 0.494510 0.499560 0.220282
C4    C     C_R   0.790761 0.499400 0.504415 0.134941
C5    C     C_R   0.390920 0.499325 0.499905 0.858939
C6    C     C_R   0.609064 0.499289 0.500100 0.859180
Cu1   Cu    Cu3+1 0.500000 0.500000 0.669080 1.008385
Cu2   Cu    Cu3+1 0.500000 0.500000 0.330920 1.006291
C7    C     C_R   0.297976 0.632193 0.525887 0.000788
C8    C     C_R   0.701317 0.366311 0.470388 -0.005863
C9    C     C_R   0.299461 0.364461 0.472063 -0.006344
C10   C     C_R   0.700982 0.632072 0.531531 0.066998
C11   C     C_R   0.328482 0.499038 0.499662 -0.108163
C12   C     C_R   0.671482 0.499113 0.500607 -0.156408
C13   C     C_R   0.880147 0.538868 0.357512 0.585685
C14   C     C_R   0.119924 0.448312 0.644445 0.629610
C15   C     C_R   0.880481 0.452686 0.647824 0.598267
C16   C     C_R   0.119560 0.535139 0.354422 0.639937
N1    N     N_R   0.851892 0.497113 0.503382 -0.450720
N2    N     N_R   0.148180 0.492003 0.499331 -0.417247
C17   C     C_R   0.940187 0.449016 0.649368 -0.030515
C18   C     C_R   0.059852 0.536822 0.352095 -0.038873
C19   C     C_R   0.939846 0.538785 0.353673 -0.028892
C20   C     C_R   0.060210 0.446710 0.647626 -0.035885
C21   C     C_R   0.969982 0.493193 0.501039 -0.005493
C22   C     C_R   0.030063 0.492099 0.500198 -0.007138
C23   C     C_R   0.970667 0.402657 0.795081 -0.161447
C24   C     C_R   0.029375 0.582563 0.206115 -0.162781
C25   C     C_R   0.969981 0.583483 0.206875 -0.160030
C26   C     C_R   0.030067 0.401500 0.794215 -0.161902
C27   C     C_1   0.500129 0.065403 0.500072 -0.172054
C28   C     C_1   0.500205 0.934604 0.499907 -0.171359
C29   C     C_R   0.237561 0.628790 0.524025 0.399053
C30   C     C_R   0.761445 0.366650 0.478746 0.445270
C31   C     C_R   0.239362 0.362491 0.478979 0.396751
C32   C     C_R   0.760877 0.632690 0.532578 0.408307
N3    N     N_1   0.500000 0.500000 0.076820 -0.041210
N4    N     N_1   0.500000 0.500000 0.923180 -0.040469
O9    O     O_2   0.850475 0.580541 0.217096 -0.488413
O10   O     O_2   0.149585 0.407350 0.785164 -0.498031
O11   O     O_2   0.851149 0.412722 0.789313 -0.492061
O12   O     O_2   0.148874 0.576264 0.213335 -0.491051
O13   O     O_3   0.203805 0.752435 0.546925 -0.691192
H5    H     H_    0.227219 0.840876 0.567140 0.343278
O14   O     O_3   0.793328 0.239813 0.461528 -0.676095
H6    H     H_    0.773451 0.159568 0.523304 0.348331
O15   O     O_3   0.208277 0.234175 0.465204 -0.687235
H7    H     H_    0.228695 0.155866 0.529046 0.337421
O16   O     O_3   0.788740 0.764442 0.562883 -0.699491
H8    H     H_    0.830260 0.748128 0.571707 0.339323
C33   C     C_3   0.328987 0.777143 0.551706 -0.829630
H9    H     H_    0.316730 0.855663 0.448665 0.231034
H10   H     H_    0.317834 0.824077 0.678947 0.240285
H11   H     H_    0.375916 0.767735 0.547589 0.224465
C34   C     C_3   0.668558 0.227634 0.425491 -0.807912
H12   H     H_    0.695919 0.136406 0.379733 0.250691
H13   H     H_    0.644127 0.189517 0.539153 0.218795
H14   H     H_    0.638452 0.250508 0.318782 0.245540
C35   C     C_3   0.333014 0.226001 0.430953 -0.818483
H15   H     H_    0.306180 0.133909 0.385013 0.242727
H16   H     H_    0.363513 0.248117 0.325287 0.245425
H17   H     H_    0.357022 0.189590 0.546379 0.221175
C36   C     C_3   0.668057 0.773516 0.560688 -0.731338
H18   H     H_    0.695865 0.870771 0.579738 0.271981
H19   H     H_    0.640466 0.796545 0.447873 0.203134
H20   H     H_    0.640959 0.762352 0.676707 0.222824

loop_
_geom_bond_atom_site_label_1
_geom_bond_atom_site_label_2
_geom_bond_distance
_ccdc_geom_bond_type
O13   H5    0.986413 S    
C33   H10   1.110411 S    
C20   C26   1.404832 A    
Cu1   Cu2   2.632990 S    
C6    C12   1.466062 S    
C2    C28   1.403998 S    
C3    C31   1.399984 A    
C27   C28   1.187520 T    
C4    C32   1.415753 A    
O14   H6    0.990164 S    
C3    N2    1.435679 S    
C4    N1    1.436008 S    
C16   O12   1.349564 S    
O5    Cu1   1.939429 S    
C17   C23   1.404812 A    
O7    C6    1.279392 A    
C18   C24   1.404802 A    
C19   C21   1.409121 A    
C21   C22   1.411210 A    
H4    C26   1.083134 S    
C15   C17   1.402758 A    
O3    Cu1   1.931861 S    
H3    C25   1.083144 S    
C33   H11   1.105995 S    
O15   H7    0.990218 S    
O8    C5    1.279600 A    
C13   O9    1.349501 S    
C23   C26   1.395248 A    
C7    C29   1.419437 A    
C1    C27   1.403950 S    
O1    Cu1   1.932343 S    
C16   C18   1.402576 A    
C13   N1    1.369353 A    
C34   H12   1.107245 S    
C10   C32   1.406834 A    
C9    C35   1.517618 S    
C14   N2    1.369466 A    
O1    C1    1.273297 A    
C4    C30   1.403085 A    
C35   H16   1.109712 S    
O7    Cu1   1.939831 S    
C13   C19   1.402539 A    
O2    Cu2   1.932342 S    
C17   C21   1.409103 A    
C34   H13   1.110393 S    
C36   H18   1.108854 S    
Cu2   N3    1.978478 S    
O8    Cu2   1.939833 S    
O6    Cu2   1.939426 S    
C36   H19   1.110611 S    
C29   O13   1.385458 S    
C24   C25   1.395057 A    
C8    C30   1.413739 A    
H1    C23   1.083111 S    
C30   O14   1.379712 S    
H2    C24   1.083121 S    
C3    C29   1.401888 A    
O2    C2    1.273262 A    
C7    C11   1.419733 A    
O5    C5    1.279798 A    
C18   C22   1.408999 A    
C10   C12   1.413276 A    
C35   H17   1.110357 S    
C10   C36   1.515787 S    
C34   H14   1.109779 S    
C5    C11   1.466543 S    
C9    C31   1.412812 A    
C20   C22   1.409103 A    
C35   H15   1.107077 S    
C15   N1    1.369422 A    
O3    C2    1.272870 A    
C16   N2    1.369375 A    
C14   O10   1.349493 S    
Cu1   N4    1.978478 S    
C32   O16   1.384477 S    
C15   O11   1.349469 S    
C9    C11   1.416231 A    
O16   H8    0.988562 S    
C19   C25   1.404723 A    
C36   H20   1.110175 S    
C8    C34   1.517218 S    
C7    C33   1.518258 S    
C31   O15   1.379730 S    
C33   H9    1.110186 S    
O4    Cu2   1.931861 S    
C14   C20   1.402879 A    
N3    N4    1.196276 T    
C8    C12   1.413991 A    
O6    C6    1.279632 A    
O4    C1    1.272793 A    
