data_mof_unit_27106.cif
_audit_creation_date              2012-12-10T20:27:12-0500
_audit_creation_method            fapswitch 2.2
_symmetry_space_group_name_H-M    P1
_symmetry_Int_Tables_number       1
_space_group_crystal_system       triclinic
_cell_length_a                    10.478642
_cell_length_b                    10.599446
_cell_length_c                    9.951647
_cell_angle_alpha                 89.251434
_cell_angle_beta                  102.512173
_cell_angle_gamma                 90.887219
_cell_volume                      1078.87373779

loop_
_atom_site_label
_atom_site_type_symbol
_atom_type_description
_atom_site_fract_x
_atom_site_fract_y
_atom_site_fract_z
_atom_type_partial_charge
C1    C     C_R   0.500144 0.260779 0.500707 0.915822
C2    C     C_R   0.589831 0.569339 0.088299 0.032503
C3    C     C_R   0.589406 0.567580 0.945511 -0.101899
C4    C     C_R   0.257633 0.503887 0.443667 0.787309
C5    C     C_R   0.402399 0.440014 0.907769 0.269635
C6    C     C_3   0.360156 0.304673 0.890773 0.143960
C7    C     C_3   0.370678 0.297916 0.046597 -0.362200
C8    C     C_R   0.496797 0.739098 0.498470 0.883609
C9    C     C_R   0.743071 0.503449 0.557157 0.920528
C10   C     C_2   0.116907 0.523065 0.416219 0.240708
C11   C     C_2   0.070763 0.604202 0.496581 0.465226
C12   C     C_R   0.497172 0.129012 0.499384 -0.191602
C13   C     C_2   0.884755 0.523081 0.588823 -0.211949
C14   C     C_2   0.932578 0.596965 0.499711 -0.230147
C15   C     C_R   0.610348 0.063889 0.554530 0.099326
C16   C     C_2   0.830378 0.128349 0.697021 1.059609
C17   C     C_2   0.694357 0.647080 0.171631 0.934543
C18   C     C_2   0.477513 0.210162 0.118356 1.084161
C19   C     C_2   0.966300 0.467215 0.717445 0.928855
C20   C     C_2   0.816645 0.855162 0.698810 0.976718
C21   C     C_R   0.386486 0.067245 0.423770 -0.176070
C22   C     C_R   0.382560 0.936512 0.420092 0.493474
C23   C     C_R   0.492756 0.871017 0.494433 -0.206548
C24   C     C_R   0.607001 0.935057 0.553867 0.024063
C25   C     C_3   0.691263 0.924552 0.695697 -0.312063
C26   C     C_3   0.697782 0.069443 0.695415 -0.317751
C27   C     C_R   0.405324 0.436367 0.049900 0.048523
H1    H     H_    0.867172 0.644743 0.416962 0.204878
H2    H     H_    0.410815 0.146154 0.826737 0.342546
H3    H     H_    0.524879 0.032498 0.182913 0.358773
H4    H     H_    0.101550 0.735823 0.633716 0.370537
H5    H     H_    0.970226 0.376234 0.897795 0.356777
H6    H     H_    0.084456 0.394608 0.275738 0.342067
H7    H     H_    0.274751 0.786183 0.362724 0.337684
H8    H     H_    0.949365 0.732946 0.801728 0.344363
H9    H     H_    0.661960 0.620923 0.905026 0.197717
H10   H     H_    0.258838 0.293105 0.828443 0.139982
H11   H     H_    0.275177 0.279633 0.075191 0.132257
H12   H     H_    0.302046 0.120348 0.371817 0.175924
H13   H     H_    0.636566 0.886084 0.771684 0.174247
H14   H     H_    0.649423 0.111566 0.772781 0.203546
H15   H     H_    0.014869 0.157206 0.804319 0.337823
H16   H     H_    0.882695 0.706003 0.198146 0.358145
N1    N     N_R   0.499160 0.499140 0.142600 -0.119041
N2    N     N_R   0.499160 0.499180 0.856960 -0.093171
O1    O     O_R   0.500020 0.316790 0.614700 -0.558253
O2    O     O_R   0.929516 0.116463 0.815407 -0.763276
O3    O     O_2   0.668818 0.729009 0.246051 -0.608180
O4    O     O_R   0.821415 0.637785 0.149793 -0.747849
O5    O     O_3   0.452120 0.230792 0.845617 -0.717763
O6    O     O_2   0.590983 0.247102 0.153275 -0.549169
O7    O     O_R   0.446049 0.083514 0.136808 -0.796031
O8    O     O_3   0.154230 0.685869 0.582533 -0.747668
O9    O     O_2   0.085518 0.475568 0.741791 -0.647804
O10   O     O_R   0.905480 0.406875 0.813087 -0.751491
O11   O     O_3   0.031913 0.451845 0.319645 -0.722459
O12   O     O_R   0.500000 0.316760 0.385350 -0.606005
O13   O     O_3   0.268773 0.878691 0.350064 -0.707529
O14   O     O_2   0.876625 0.870771 0.607064 -0.617204
O15   O     O_R   0.863533 0.772506 0.808232 -0.777250
O16   O     O_R   0.317820 0.500020 0.571850 -0.550533
O17   O     O_R   0.317800 0.499980 0.342510 -0.636450
O18   O     O_R   0.500000 0.683240 0.614650 -0.617577
O19   O     O_R   0.499980 0.683210 0.385300 -0.568935
O20   O     O_R   0.682200 0.500020 0.657490 -0.571531
O21   O     O_R   0.682180 0.499980 0.428150 -0.582059
O22   O     O_2   0.851145 0.186006 0.596414 -0.600873
Zn1   Zn    Zn3+2 0.500010 0.500020 0.653140 1.053935
Zn2   Zn    Zn3+2 0.499990 0.499980 0.346860 1.028559

loop_
_geom_bond_atom_site_label_1
_geom_bond_atom_site_label_2
_ccdc_geom_bond_type
C22   O13   S    
C23   C24   A    
C17   O3    D    
O1    Zn1   S    
C6    C7    S    
C1    O12   A    
C20   O15   S    
C10   O11   S    
H5    O10   S    
C21   H12   S    
C12   C15   A    
H15   O2    S    
O20   Zn1   S    
O12   Zn2   S    
C7    C18   S    
N2    Zn1   S    
C2    C3    A    
C6    H10   S    
C18   O7    S    
N1    Zn2   S    
C16   O22   D    
C5    C27   A    
C21   C22   A    
C6    O5    S    
C2    C17   S    
O16   Zn1   S    
C1    C12   S    
C3    H9    S    
H6    O11   S    
C27   N1    A    
C19   O9    D    
C15   C24   A    
C7    H11   S    
C8    O19   A    
C18   O6    D    
O17   Zn2   S    
H2    O5    S    
C22   C23   A    
C25   H13   S    
C16   C26   S    
C5    C6    S    
C11   C14   S    
C9    O20   A    
C1    O1    A    
C17   O4    S    
O21   Zn2   S    
C10   C11   D    
C13   C19   S    
C8    O18   A    
C4    C10   S    
C12   C21   A    
C4    O17   A    
C8    C23   S    
C7    C27   S    
C24   C25   S    
C16   O2    S    
C20   C25   S    
C19   O10   S    
H7    O13   S    
H3    O7    S    
O18   Zn1   S    
H16   O4    S    
C15   C26   S    
C9    C13   S    
C13   C14   D    
C14   H1    S    
C25   C26   S    
C9    O21   A    
C5    N2    A    
C4    O16   A    
O19   Zn2   S    
H4    O8    S    
C3    N2    A    
C26   H14   S    
C2    N1    A    
H8    O15   S    
C20   O14   D    
C11   O8    S    
