data_mof_unit_19739.cif
_audit_creation_date              2012-12-11T15:29:29-0500
_audit_creation_method            fapswitch 2.2
_symmetry_space_group_name_H-M    P1
_symmetry_Int_Tables_number       1
_space_group_crystal_system       triclinic
_cell_length_a                    13.484983
_cell_length_b                    13.506389
_cell_length_c                    27.567728
_cell_angle_alpha                 90.557322
_cell_angle_beta                  89.991811
_cell_angle_gamma                 60.040658
_cell_volume                      4349.81981041

loop_
_atom_site_label
_atom_site_type_symbol
_atom_type_description
_atom_site_fract_x
_atom_site_fract_y
_atom_site_fract_z
_atom_type_partial_charge
C1    C     C_R   0.620314 0.101160 0.569895 0.549214
C2    C     C_1   0.631671 0.730896 0.615682 -0.010542
C3    C     C_3   0.724005 0.555133 0.766427 -0.110543
C4    C     C_3   0.680249 0.652950 0.804269 0.061214
C5    C     C_3   0.610371 0.622649 0.738158 -0.086304
C6    C     C_3   0.664191 0.681437 0.709599 0.042339
C7    C     C_3   0.568237 0.719434 0.776401 0.031419
C8    C     C_3   0.620231 0.779543 0.747298 -0.089108
C9    C     C_1   0.688947 0.632557 0.856506 -0.057616
C10   C     C_1   0.650286 0.703079 0.657500 -0.057537
C11   C     C_3   0.083967 0.144612 0.737271 -0.112010
C12   C     C_R   0.599847 0.779066 0.568373 0.547756
C13   C     C_3   0.172796 0.063476 0.774698 -0.109663
C14   C     C_1   0.098514 0.199754 0.900461 -0.015609
C15   C     C_1   0.229510 0.137887 0.617020 -0.014345
C16   C     C_3   0.059713 0.249121 0.769624 -0.087550
C17   C     C_3   0.149178 0.167718 0.806157 0.043040
C18   C     C_3   0.155835 0.257678 0.743242 0.033132
C19   C     C_3   0.179395 0.154803 0.711328 0.062123
C20   C     C_3   0.244682 0.178026 0.780366 -0.091274
C21   C     C_3   0.268641 0.073658 0.747991 -0.116366
C22   C     C_1   0.126705 0.180565 0.858435 -0.060215
C23   C     C_R   0.277679 0.121701 0.569337 0.544266
C24   C     C_1   0.201655 0.146958 0.659042 -0.055602
C25   C     C_3   0.627567 0.276877 0.739038 -0.100013
C26   C     C_3   0.553952 0.257719 0.776957 -0.101141
C27   C     C_1   0.691299 0.206658 0.901440 -0.015686
C28   C     C_1   0.635391 0.133208 0.617856 -0.013130
C29   C     C_3   0.735760 0.204857 0.769957 -0.100619
C30   C     C_3   0.662008 0.185413 0.807043 0.052541
C31   C     C_3   0.758096 0.094975 0.742548 -0.099253
C32   C     C_3   0.650164 0.167140 0.712394 0.052219
C33   C     C_3   0.684567 0.075754 0.780341 -0.100546
C34   C     C_R   0.622180 0.100303 0.431616 0.538386
C35   C     C_3   0.576342 0.147716 0.749442 -0.103297
C36   C     C_1   0.673972 0.195845 0.859375 -0.058611
C37   C     C_1   0.643458 0.152196 0.660028 -0.057528
C38   C     C_R   0.639678 0.724057 0.382517 0.031632
C39   C     C_R   0.717601 0.744736 0.356934 -0.179498
C40   C     C_R   0.729802 0.727708 0.307314 -0.139822
C41   C     C_R   0.667131 0.686305 0.282658 -0.022375
C42   C     C_R   0.598117 0.654482 0.308713 -0.073000
C43   C     C_R   0.583693 0.673856 0.358502 0.383724
C44   C     C_R   0.574591 0.704722 0.202816 -0.124647
C45   C     C_R   0.601978 0.776931 0.430378 0.569436
C46   C     C_R   0.583613 0.681279 0.153371 -0.129759
C47   C     C_R   0.786939 0.616521 0.156635 -0.123189
C48   C     C_R   0.778308 0.637840 0.206069 -0.108566
C49   C     C_R   0.673083 0.677431 0.229768 0.034971
C50   C     C_R   0.691052 0.631510 0.130602 0.020890
C51   C     C_R   0.248777 0.129308 0.379985 -0.018076
C52   C     C_R   0.161106 0.111211 0.363315 -0.082269
C53   C     C_R   0.137725 0.118126 0.313670 0.387948
C54   C     C_R   0.204582 0.140034 0.280915 0.062509
C55   C     C_R   0.296057 0.151428 0.297908 -0.124682
C56   C     C_R   0.280615 0.119548 0.430662 0.538504
C57   C     C_R   0.317109 0.147344 0.347057 -0.132699
C58   C     C_R   0.161104 0.260153 0.207975 0.369604
C59   C     C_R   0.128150 0.282667 0.159901 -0.088337
C60   C     C_R   0.126029 0.104334 0.153737 -0.150414
C61   C     C_R   0.160415 0.080945 0.201879 -0.130650
C62   C     C_R   0.175405 0.160012 0.229493 0.064786
C63   C     C_R   0.106780 0.206912 0.132852 -0.037235
C64   C     C_R   0.642231 0.139641 0.385281 0.016870
C65   C     C_R   0.551453 0.234618 0.362867 -0.119257
C66   C     C_R   0.558059 0.254559 0.314016 -0.115021
C67   C     C_3   0.777710 0.614145 0.736966 -0.107008
C68   C     C_R   0.656716 0.181646 0.287189 0.030655
C69   C     C_R   0.751751 0.093591 0.310781 -0.090653
C70   C     C_R   0.744366 0.072253 0.359493 -0.115674
C71   C     C_R   0.713640 0.098045 0.204040 -0.110214
C72   C     C_R   0.725934 0.110292 0.154762 -0.117834
C73   C     C_R   0.619648 0.316511 0.164943 -0.117546
C74   C     C_R   0.609304 0.304273 0.214315 -0.102003
C75   C     C_R   0.659277 0.194931 0.234473 0.040937
C76   C     C_R   0.682122 0.219577 0.135270 0.025004
C77   C     C_R   0.050094 0.234761 0.948049 0.545171
C78   C     C_3   0.733984 0.711653 0.775578 -0.110762
C79   C     C_R   0.712018 0.561819 0.946427 0.544789
C80   C     C_R   0.722559 0.224102 0.949117 0.544835
C81   C     C_R   0.047819 0.243882 0.086354 0.549433
C82   C     C_R   0.709000 0.572672 0.084131 0.541282
C83   C     C_R   0.719707 0.233483 0.087473 0.542579
C84   C     C_1   0.697676 0.606871 0.898585 -0.017240
Cr1   Cr    Cr6+3 0.417550 0.169090 0.500530 1.036488
Cr2   Cr    Cr6+3 0.669180 0.913420 0.499920 1.027996
Cr3   Cr    Cr6+3 0.413260 0.917540 0.499520 1.069905
Cr4   Cr    Cr6+3 0.909770 0.175810 0.018240 1.026003
Cr5   Cr    Cr6+3 0.913300 0.427650 0.016090 1.023750
Cr6   Cr    Cr6+3 0.657770 0.431010 0.016900 1.024553
H1    H     H_    0.784475 0.748311 0.791428 0.102024
H2    H     H_    0.310473 0.191994 0.798311 0.101536
H3    H     H_    0.974048 0.322052 0.779082 0.098011
H4    H     H_    0.469913 0.324250 0.791686 0.104227
H5    H     H_    0.604635 0.359263 0.721571 0.102369
H6    H     H_    0.510469 0.124159 0.740369 0.099954
H7    H     H_    0.707534 0.993288 0.797749 0.101937
H8    H     H_    0.842180 0.028403 0.727866 0.105441
H9    H     H_    0.801683 0.228389 0.778965 0.100388
H10   H     H_    0.762267 0.783296 0.374376 0.151131
H11   H     H_    0.864169 0.570278 0.720073 0.106842
H12   H     H_    0.491720 0.739478 0.220307 0.109553
H13   H     H_    0.508309 0.694921 0.133731 0.128053
H14   H     H_    0.783605 0.752801 0.288026 0.123459
H15   H     H_    0.855478 0.616311 0.226073 0.137379
H16   H     H_    0.870937 0.578452 0.139902 0.138824
H17   H     H_    0.552756 0.617836 0.290337 0.132051
H18   H     H_    0.109921 0.094425 0.388606 0.137225
H19   H     H_    0.112998 0.362810 0.144851 0.153683
H20   H     H_    0.577113 0.872116 0.738999 0.096231
H21   H     H_    0.173036 0.002544 0.217861 0.158206
H22   H     H_    0.110109 0.044508 0.133558 0.142721
H23   H     H_    0.350012 0.165600 0.273109 0.158647
H24   H     H_    0.388355 0.156459 0.359450 0.136397
H25   H     H_    0.471855 0.288707 0.381999 0.146665
H26   H     H_    0.749522 0.012783 0.218557 0.103984
H27   H     H_    0.774016 0.034569 0.132343 0.125375
H28   H     H_    0.483600 0.323161 0.296766 0.130589
H29   H     H_    0.567386 0.380346 0.236970 0.117041
H30   H     H_    0.586349 0.401865 0.150814 0.137114
H31   H     H_    0.830392 0.038777 0.291171 0.144914
H32   H     H_    0.816162 0.999387 0.376115 0.139373
H33   H     H_    0.559422 0.586335 0.722450 0.102184
H34   H     H_    0.766179 0.462736 0.774868 0.095953
H35   H     H_    0.179907 0.983216 0.788430 0.107117
H36   H     H_    0.017977 0.131134 0.719228 0.104098
H37   H     H_    0.354719 0.001730 0.738289 0.102191
O1    O     O_R   0.301780 0.195490 0.553940 -0.504618
O2    O     O_R   0.658840 0.818280 0.449970 -0.523921
O3    O     O_R   0.503160 0.801780 0.445740 -0.437167
O4    O     O_R   0.319320 0.022190 0.450230 -0.493672
O5    O     O_3   0.499990 0.000010 0.499990 -0.261576
O6    O     O_R   0.819250 0.149410 0.965240 -0.508024
O7    O     O_R   0.006940 0.180310 0.968270 -0.495825
O8    O     O_R   0.028420 0.332670 0.963010 -0.506102
O9    O     O_R   0.810130 0.520390 0.966030 -0.494700
O10   O     O_R   0.636050 0.541380 0.962520 -0.507703
O11   O     O_R   0.666480 0.323610 0.968170 -0.494113
O12   O     O_R   0.522450 0.158840 0.550250 -0.491589
O13   O     O_R   0.817280 0.156800 0.072180 -0.514093
O14   O     O_R   0.005110 0.187160 0.067410 -0.496286
O15   O     O_R   0.026450 0.340060 0.069950 -0.523695
O16   O     O_R   0.808300 0.527240 0.065170 -0.505478
O17   O     O_R   0.634070 0.548770 0.069460 -0.521196
O18   O     O_R   0.664650 0.330470 0.067300 -0.503714
O19   O     O_3   0.826940 0.344820 0.017080 -0.245964
O20   O     O_R   0.694460 0.003360 0.553820 -0.503799
O21   O     O_R   0.657750 0.819520 0.549120 -0.495129
O22   O     O_R   0.501990 0.803120 0.552700 -0.502050
O23   O     O_R   0.318230 0.023430 0.549370 -0.496380
O24   O     O_R   0.302950 0.194150 0.446980 -0.507188
O25   O     O_R   0.523540 0.157600 0.451100 -0.506179
O26   O     O_R   0.695630 0.002030 0.446860 -0.519338
C85   C     C_3   0.145574 0.368435 0.725274 -0.407286
H38   H     H_    0.125875 0.428608 0.756258 0.126837
H39   H     H_    0.227465 0.350503 0.708133 0.138419
H40   H     H_    0.075850 0.407677 0.698219 0.132551
F1    F     F_    0.510935 0.649129 0.382500 -0.612906
F2    F     F_    0.172531 0.339487 0.234216 -0.645897
F3    F     F_    0.047885 0.107838 0.297909 -0.641835
C86   C     C_3   0.449132 0.778974 0.798852 -0.411084
H41   H     H_    0.384206 0.813655 0.769696 0.123899
H42   H     H_    0.436623 0.716882 0.820273 0.139186
H43   H     H_    0.438758 0.849864 0.822960 0.135367

loop_
_geom_bond_atom_site_label_1
_geom_bond_atom_site_label_2
_ccdc_geom_bond_type
C44   C49   A    
C58   C62   A    
C66   C68   A    
C45   O2    A    
Cr5   O8    S    
C41   C42   A    
C81   O15   A    
C72   C76   A    
C43   F1    S    
C2    C12   S    
Cr2   O20   S    
C86   H43   S    
C86   H41   S    
C7    C8    S    
C35   H6    S    
C52   C53   A    
C68   C75   S    
C79   O9    A    
C20   H2    S    
C11   C19   S    
C16   H3    S    
C63   C81   S    
C60   C63   A    
Cr3   O3    S    
C19   C21   S    
Cr2   O26   S    
Cr4   O6    S    
C51   C56   S    
Cr6   O18   S    
C58   F2    S    
Cr1   O5    S    
C5    C6    S    
C31   H8    S    
Cr5   O15   S    
C17   C20   S    
C18   C20   S    
C74   H29   S    
C18   C19   S    
C73   C74   A    
C14   C77   S    
Cr3   O4    S    
Cr4   O13   S    
C38   C45   S    
C86   H42   S    
C83   O18   A    
C47   C48   A    
C53   C54   A    
C16   C17   S    
Cr3   O23   S    
C72   H27   S    
C1    C28   S    
C31   C33   S    
C51   C57   A    
C64   C70   A    
C21   H37   S    
C42   C43   A    
Cr1   O12   S    
C85   H39   S    
C18   C85   S    
C13   H35   S    
C25   C32   S    
C81   O14   A    
C45   O3    A    
Cr5   O9    S    
C8    C78   S    
C65   H25   S    
C69   C70   A    
C67   C78   S    
C4    C7    S    
C76   C83   S    
C41   C49   S    
C83   O13   A    
Cr6   O11   S    
C44   C46   A    
C47   C50   A    
C25   C29   S    
Cr5   O19   S    
C74   C75   A    
C29   H9    S    
C51   C52   A    
C32   C35   S    
C11   H36   S    
C38   C39   A    
C85   H40   S    
C82   O17   A    
C27   C80   S    
C39   C40   A    
C5    C7    S    
C34   O25   A    
C68   C69   A    
C6    C8    S    
C54   C62   S    
C50   C82   S    
C58   C59   A    
Cr5   O16   S    
C80   O6    A    
C59   H19   S    
Cr2   O21   S    
C60   C61   A    
Cr3   O5    S    
Cr1   O24   S    
C4    C78   S    
C29   C30   S    
C60   H22   S    
C8    H20   S    
C40   H14   S    
C7    C86   S    
C11   C16   S    
C70   H32   S    
C31   C32   S    
C69   H31   S    
C47   H16   S    
C34   C64   S    
C13   C21   S    
C32   C37   S    
C56   O24   A    
C85   H38   S    
C16   C18   S    
C48   C49   A    
C79   O10   A    
C23   O23   A    
C25   H5    S    
C26   H4    S    
C55   C57   A    
C66   H28   S    
C27   C36   T    
C73   C76   A    
C1    O20   A    
C77   O7    A    
C3    C4    S    
C2    C10   T    
Cr4   O14   S    
Cr6   O10   S    
C3    H34   S    
C67   H11   S    
C42   H17   S    
C34   O26   A    
C5    H33   S    
C54   C55   A    
C15   C24   T    
C53   F3    S    
C44   H12   S    
C30   C33   S    
C12   O22   A    
C3    C67   S    
C82   O16   A    
C3    C5    S    
C1    O12   A    
C6    C10   S    
Cr2   O2    S    
C26   C30   S    
C57   H24   S    
C13   C17   S    
C78   H1    S    
C55   H23   S    
C46   H13   S    
C46   C50   A    
C59   C63   A    
C17   C22   S    
Cr2   O5    S    
C30   C36   S    
C64   C65   A    
C14   C22   T    
C19   C24   S    
C25   C26   S    
Cr1   O25   S    
Cr4   O7    S    
C38   C43   A    
Cr6   O19   S    
C6    C67   S    
C71   C75   A    
C11   C13   S    
C12   O21   A    
C39   H10   S    
C79   C84   S    
C28   C37   T    
C80   O11   A    
C15   C23   S    
C33   C35   S    
C71   H26   S    
C33   H7    S    
C61   C62   A    
C56   O4    A    
C9    C84   T    
C26   C35   S    
C71   C72   A    
C20   C21   S    
C52   H18   S    
C29   C31   S    
C65   C66   A    
Cr3   O22   S    
C73   H30   S    
Cr4   O19   S    
Cr1   O1    S    
C40   C41   A    
C77   O8    A    
C48   H15   S    
C4    C9    S    
Cr6   O17   S    
C23   O1    A    
C61   H21   S    
