data_mof_unit_8953.cif
_audit_creation_date              2012-12-11T18:34:25-0500
_audit_creation_method            fapswitch 2.2
_symmetry_space_group_name_H-M    P1
_symmetry_Int_Tables_number       1
_space_group_crystal_system       triclinic
_cell_length_a                    8.240376
_cell_length_b                    14.381821
_cell_length_c                    22.84332
_cell_angle_alpha                 93.756205
_cell_angle_beta                  89.561635
_cell_angle_gamma                 91.253223
_cell_volume                      2700.6845428

loop_
_atom_site_label
_atom_site_type_symbol
_atom_type_description
_atom_site_fract_x
_atom_site_fract_y
_atom_site_fract_z
_atom_type_partial_charge
Ba1   Ba    Ba6+2 0.846250 0.544220 0.470860 1.666875
Ba2   Ba    Ba6+2 0.343570 0.455860 0.529140 1.698680
C1    C     C_3   0.610888 0.883861 0.305770 -0.348849
C2    C     C_3   0.598698 0.788056 0.330126 0.350806
C3    C     C_3   0.519737 0.322922 0.353881 0.341952
C4    C     C_3   0.517023 0.299822 0.287517 0.228800
C5    C     C_3   0.203548 0.252111 0.690551 0.367297
C6    C     C_3   0.222886 0.224021 0.753154 -0.283954
C7    C     C_3   0.697592 0.245063 0.678365 0.288680
C8    C     C_3   0.751483 0.162116 0.710545 -0.238884
C9    C     C_R   0.336194 0.525684 0.331581 -0.310199
C10   C     C_R   0.093857 0.588077 0.936868 -0.096290
C11   C     C_R   0.046444 0.585677 0.877162 0.650153
C12   C     C_3   0.076574 0.735858 0.302522 0.290034
C13   C     C_R   0.949547 0.427889 0.881608 0.584739
C14   C     C_R   0.994192 0.428672 0.941534 -0.012489
C15   C     C_R   0.067027 0.509516 0.969364 -0.048856
C16   C     C_R   0.168173 0.667717 0.964422 -0.096295
C17   C     C_R   0.216864 0.671423 0.023358 0.389903
C18   C     C_R   0.186491 0.592688 0.057760 -0.102165
C19   C     C_R   0.112945 0.511574 0.029726 -0.091278
C20   C     C_R   0.968099 0.350159 0.974207 -0.060868
C21   C     C_R   0.012834 0.351677 0.033116 -0.067926
C22   C     C_R   0.085285 0.431792 0.061647 -0.002307
C23   C     C_3   0.043991 0.758178 0.239615 -0.250784
C24   C     C_R   0.131615 0.432735 0.121213 0.578306
C25   C     C_R   0.225102 0.591510 0.118730 0.618287
C26   C     C_2   0.770601 0.487309 0.771849 -0.028312
C27   C     C_3   0.721248 0.493283 0.707901 0.097495
C28   C     C_1   0.002360 0.524447 0.685681 0.021868
C29   C     C_2   0.048445 0.526914 0.741454 -0.095298
C30   C     C_2   0.926944 0.505332 0.788404 0.196598
C31   C     C_R   0.400265 0.551069 0.230122 -0.103819
C32   C     C_R   0.441973 0.558845 0.289684 -0.021648
C33   C     C_R   0.190900 0.481063 0.315109 0.036597
C34   C     C_3   0.144386 0.736300 0.580043 0.346749
C35   C     C_R   0.144540 0.476015 0.255368 -0.099436
C36   C     C_R   0.247842 0.512657 0.211773 0.182701
C37   C     C_2   0.865800 0.484247 0.667925 -0.297645
C38   C     C_R   0.709027 0.935019 0.521257 -0.001738
C39   C     C_R   0.514490 0.802999 0.496445 -0.008889
C40   C     C_R   0.376294 0.771025 0.465443 -0.274094
C41   C     C_R   0.272475 0.832572 0.440902 0.015022
C42   C     C_R   0.315722 0.926937 0.441099 -0.143875
C43   C     C_R   0.462465 0.960076 0.466848 -0.005833
C44   C     C_R   0.563936 0.898502 0.495087 -0.013224
C45   C     C_3   0.132253 0.841952 0.584651 -0.343738
C46   C     C_R   0.647328 0.091163 0.494088 -0.013341
C47   C     C_R   0.750879 0.030081 0.521296 0.007235
C48   C     C_R   0.688495 0.187232 0.496598 0.035979
C49   C     C_R   0.827132 0.221020 0.526033 -0.297169
C50   C     C_R   0.934306 0.160665 0.549362 0.025964
C51   C     C_R   0.895309 0.065228 0.548324 -0.139697
C52   C     C_R   0.505672 0.054789 0.466027 -0.052068
C53   C     C_3   0.020696 0.255548 0.407369 0.314709
C54   C     C_3   0.026313 0.150743 0.393149 -0.374775
C55   C     C_3   0.540105 0.773160 0.650675 0.565131
C56   C     C_3   0.573887 0.879076 0.654110 0.371217
H1    H     H_    0.662273 0.791784 0.372995 0.077497
H2    H     H_    0.040838 0.864583 0.618318 0.159494
H3    H     H_    0.251935 0.874458 0.595305 0.103956
H4    H     H_    0.094940 0.867088 0.542207 0.058801
H5    H     H_    0.894907 0.275257 0.417965 -0.001478
H6    H     H_    0.101155 0.274228 0.445267 0.055850
H7    H     H_    0.941702 0.130032 0.356739 0.128816
H8    H     H_    0.990775 0.112467 0.431866 0.060059
H9    H     H_    0.151413 0.130848 0.379813 0.114130
H10   H     H_    0.417642 0.757224 0.634605 -0.021656
H11   H     H_    0.740283 0.904894 0.300237 0.139481
H12   H     H_    0.558835 0.902301 0.610131 -0.242635
H13   H     H_    0.700433 0.895276 0.668494 0.049987
H14   H     H_    0.468085 0.770386 0.336624 -0.052777
H15   H     H_    0.551863 0.935948 0.336515 0.063244
H16   H     H_    0.396282 0.342277 0.369124 -0.022846
H17   H     H_    0.604619 0.383128 0.363040 0.030863
H18   H     H_    0.483137 0.364498 0.266871 0.009639
H19   H     H_    0.549169 0.882625 0.262664 0.149833
H20   H     H_    0.037121 0.692606 0.211345 0.111683
H21   H     H_    0.325885 0.262135 0.671511 0.112065
H22   H     H_    0.134694 0.317921 0.691932 0.010907
H23   H     H_    0.291014 0.158365 0.753561 0.206539
H24   H     H_    0.290778 0.279726 0.779249 0.105837
H25   H     H_    0.102389 0.213971 0.773975 0.124502
H26   H     H_    0.808190 0.284593 0.665308 -0.050472
H27   H     H_    0.629373 0.218534 0.638664 0.059361
H28   H     H_    0.818090 0.112774 0.680193 0.094909
H29   H     H_    0.644256 0.125764 0.728424 0.202748
H30   H     H_    0.997994 0.675440 0.312640 0.106146
H31   H     H_    0.831078 0.186197 0.747635 0.133998
H32   H     H_    0.990065 0.289398 0.056393 0.128378
H33   H     H_    0.912681 0.286923 0.954289 0.138568
H34   H     H_    0.486249 0.575631 0.198261 0.127056
H35   H     H_    0.189620 0.727994 0.939275 0.184750
H36   H     H_    0.172923 0.544870 0.753329 0.162339
H37   H     H_    0.677888 0.474935 0.804630 0.109462
H38   H     H_    0.028756 0.444033 0.243211 0.125094
H39   H     H_    0.371284 0.530387 0.377245 0.079267
H40   H     H_    0.205986 0.717153 0.306375 -0.033593
H41   H     H_    0.858940 0.443530 0.626172 0.065313
H42   H     H_    0.342865 0.697714 0.463781 0.066312
H43   H     H_    0.234677 0.974273 0.421531 0.073865
H44   H     H_    0.976658 0.019185 0.568731 0.078133
H45   H     H_    0.856433 0.294910 0.528188 0.060816
H46   H     H_    0.787596 0.891306 0.544415 0.086161
H47   H     H_    0.425570 0.099707 0.444172 0.088648
H48   H     H_    0.926516 0.793767 0.236597 0.153205
H49   H     H_    0.142399 0.804285 0.223689 0.161107
H50   H     H_    0.261921 0.714973 0.561020 -0.084408
H51   H     H_    0.050813 0.708662 0.549535 0.103365
N1    N     N_R   0.974907 0.506181 0.850032 -0.431019
N2    N     N_R   0.199727 0.512123 0.149720 -0.430179
O1    O     O_2   0.901900 0.448470 0.362340 -0.458601
O2    O     O_3   0.657835 0.726374 0.614799 -0.665775
O3    O     O_3   0.040011 0.813815 0.340042 -0.599041
O4    O     O_2   0.287790 0.551560 0.637690 -0.419249
O5    O     O_3   0.047460 0.550640 0.566640 -0.505949
O6    O     O_3   0.544140 0.380990 0.608030 -0.482986
O7    O     O_3   0.126168 0.701361 0.635726 -0.586525
O8    O     O_3   0.640350 0.387150 0.474440 -0.476763
O9    O     O_3   0.136890 0.332750 0.580830 -0.502094
O10   O     O_2   0.274922 0.166667 0.556668 -0.491102
O11   O     O_3   0.120279 0.181637 0.657241 -0.606218
O12   O     O_3   0.142240 0.449440 0.433360 -0.497795
O13   O     O_3   0.549340 0.612930 0.525560 -0.456449
O14   O     O_2   0.396530 0.270940 0.479440 -0.466473
O15   O     O_3   0.570426 0.244756 0.381799 -0.666259
O16   O     O_2   0.394254 0.433201 0.708014 -0.489261
O17   O     O_3   0.596579 0.299891 0.715761 -0.613188
O18   O     O_2   0.067394 0.654950 0.849525 -0.513217
O19   O     O_2   0.889530 0.357120 0.857443 -0.589894
O20   O     O_2   0.113048 0.361945 0.147411 -0.634846
O21   O     O_2   0.278784 0.661910 0.144786 -0.526881
O22   O     O_3   0.645560 0.619080 0.391970 -0.488189
O23   O     O_2   0.779371 0.552892 0.291084 -0.507895
O24   O     O_3   0.071661 0.299771 0.357785 -0.616911
O25   O     O_3   0.672223 0.722499 0.290601 -0.591086
O26   O     O_2   0.793170 0.729090 0.520590 -0.472590
O27   O     O_3   0.052800 0.667320 0.419180 -0.499118
O28   O     O_2   0.934236 0.833800 0.447113 -0.496309
P1    P     P_3+3 0.074990 0.420800 0.372080 1.000303
P2    P     P_3+3 0.618830 0.715330 0.538180 0.973748
P3    P     P_3+3 0.075490 0.787370 0.412432 0.929149
P4    P     P_3+3 0.114710 0.579280 0.627920 1.062236
P5    P     P_3+3 0.119711 0.210743 0.583927 0.933918
P6    P     P_3+3 0.635542 0.611309 0.315285 0.947897
P7    P     P_3+3 0.576745 0.271517 0.457400 0.935374
P8    P     P_3+3 0.563544 0.405206 0.683999 0.992616
S1    S     S_3+6 0.554247 0.728968 0.722494 0.004736
O29   O     O_2   0.456327 0.783602 0.767866 -0.147140
O30   O     O_2   0.490213 0.630677 0.720001 -0.325320
O31   O     O_3   0.749200 0.731922 0.744014 -0.463878
H52   H     H_    0.807932 0.694186 0.713235 0.320147
S2    S     S_3+6 0.435355 0.949171 0.698056 -0.041252
O32   O     O_2   0.274776 0.899758 0.705778 -0.242577
O33   O     O_2   0.508297 0.973209 0.757353 -0.212876
O34   O     O_3   0.405194 0.048268 0.664908 -0.539636
H53   H     H_    0.357989 0.028215 0.626288 0.342325
N3    N     N_2   0.395180 0.227185 0.273244 -0.427775
H54   H     H_    0.406525 0.167193 0.295173 0.213677
C57   C     C_3   0.357656 0.209092 0.211785 -0.182110
H55   H     H_    0.452644 0.165320 0.189904 0.114886
H56   H     H_    0.349288 0.275238 0.189704 0.157707
H57   H     H_    0.239169 0.171133 0.207513 0.142128
N4    N     N_2   0.677540 0.270320 0.267897 -0.417062
H58   H     H_    0.702249 0.201080 0.272215 0.217830
C58   C     C_3   0.740766 0.308065 0.214979 -0.215042
H59   H     H_    0.868555 0.286830 0.208327 0.161596
H60   H     H_    0.738111 0.385402 0.218848 0.123088
H61   H     H_    0.668890 0.281323 0.176365 0.105253
S3    S     S_3+6 0.319075 0.776185 0.049718 -0.002554
O35   O     O_2   0.217564 0.825418 0.096564 -0.218009
O36   O     O_2   0.480505 0.754066 0.075129 -0.250364
O37   O     O_3   0.350712 0.848700 0.995651 -0.463681
H62   H     H_    0.442703 0.822088 0.972464 0.354169

loop_
_geom_bond_atom_site_label_1
_geom_bond_atom_site_label_2
_ccdc_geom_bond_type
C58   H60   S    
C53   C54   S    
C25   O21   D    
C34   H50   S    
C6    H25   S    
C39   C40   A    
O1    P1    D    
C17   C18   A    
O9    P5    S    
S1    O31   S    
O11   P5    S    
C45   H4    S    
O15   P7    S    
C5    C6    S    
Ba2   O12   S    
C42   C43   A    
O8    P7    S    
C38   C44   A    
C50   P5    S    
C30   N1    S    
C26   H37   S    
C6    H24   S    
O3    P3    S    
N4    H58   S    
C1    H11   S    
S1    O30   D    
Ba1   Ba2   S    
O14   P7    D    
Ba1   O1    S    
C28   C29   D    
O28   P3    D    
C47   C51   A    
C56   H13   S    
S3    O35   D    
C49   H45   S    
C13   C14   A    
C34   C45   S    
C16   C17   A    
Ba1   O8    S    
C3    H16   S    
C7    H27   S    
C45   H2    S    
Ba2   O5    S    
C8    H28   S    
C8    H31   S    
C14   C15   A    
C53   H5    S    
C3    O15   S    
C20   H33   S    
C17   S3    S    
Ba1   O5    S    
S2    O33   D    
C34   O7    S    
C7    C8    S    
O25   P6    S    
C2    O25   S    
C48   P7    S    
C46   C48   A    
O31   H52   S    
C25   N2    Am   
N3    C57   S    
Ba2   P4    S    
O10   P5    D    
C58   H59   S    
C53   O24   S    
Ba1   O22   S    
C4    N3    S    
Ba2   O6    S    
C23   H48   S    
C12   H40   S    
O24   P1    S    
O4    P4    D    
C8    H29   S    
C7    O17   S    
C6    H23   S    
C57   H57   S    
O16   P8    D    
C26   C30   D    
Ba1   P2    S    
S1    O29   D    
O7    P4    S    
O27   P3    S    
C31   H34   S    
Ba2   O9    S    
C56   H12   S    
C55   O2    S    
C7    H26   S    
C48   C49   A    
O37   H62   S    
O12   P1    S    
C23   H20   S    
C15   C19   A    
C28   P4    S    
C49   C50   A    
C35   H38   S    
O34   H53   S    
C3    H17   S    
C46   C52   A    
C41   C42   A    
Ba1   O12   S    
C45   H3    S    
C35   C36   A    
C56   S2    S    
C40   H42   S    
C33   P1    S    
C38   H46   S    
O5    P4    S    
Ba2   O4    S    
C37   H41   S    
C29   C30   S    
C42   H43   S    
C51   H44   S    
C39   C44   A    
C53   H6    S    
C27   C37   S    
C31   C32   A    
C21   H32   S    
C10   C11   A    
S2    O34   S    
C11   N1    Am   
Ba1   P1    S    
C46   C47   A    
C4    N4    S    
C43   C52   A    
N3    H54   S    
O13   P2    S    
C55   S1    S    
O22   P6    S    
C40   C41   A    
C55   H10   S    
C1    C2    S    
C54   H9    S    
C2    H14   S    
Ba1   O26   S    
C50   C51   A    
C23   H49   S    
C5    H21   S    
C54   H7    S    
O23   P6    D    
O26   P2    D    
C26   C27   S    
C14   C20   A    
C52   H47   S    
C33   C35   A    
C9    C32   A    
C22   C24   A    
C27   P8    S    
Ba2   O8    S    
O17   P8    S    
C4    H18   S    
C18   C25   A    
Ba2   O13   S    
C29   H36   S    
C39   P2    S    
C31   C36   A    
C9    H39   S    
O6    P8    S    
C57   H55   S    
N4    C58   S    
C36   N2    S    
Ba1   O13   S    
C12   H30   S    
C12   O3    S    
C10   C15   A    
C55   C56   S    
C3    C4    S    
C13   O19   D    
S3    O36   D    
C54   H8    S    
C2    H1    S    
C9    C33   A    
C32   P6    S    
O2    P2    S    
C28   C37   D    
C12   C23   S    
C1    H15   S    
C13   N1    Am   
Ba1   O27   S    
C21   C22   A    
Ba2   O14   S    
C43   C44   A    
C18   C19   A    
C58   H61   S    
C19   C22   A    
C10   C16   A    
C34   H51   S    
C16   H35   S    
C11   O18   D    
C20   C21   A    
C41   P3    S    
C5    O11   S    
S2    O32   D    
C24   N2    Am   
C24   O20   D    
C38   C47   A    
C57   H56   S    
C5    H22   S    
S3    O37   S    
C1    H19   S    
