data_mof_unit_28750.cif
_audit_creation_date              2012-12-11T21:01:56-0500
_audit_creation_method            fapswitch 2.2
_symmetry_space_group_name_H-M    P1
_symmetry_Int_Tables_number       1
_space_group_crystal_system       triclinic
_cell_length_a                    8.481447
_cell_length_b                    18.996072
_cell_length_c                    22.88633
_cell_angle_alpha                 100.363211
_cell_angle_beta                  90.525637
_cell_angle_gamma                 91.94671
_cell_volume                      3624.63022813

loop_
_atom_site_label
_atom_site_type_symbol
_atom_type_description
_atom_site_fract_x
_atom_site_fract_y
_atom_site_fract_z
_atom_type_partial_charge
Ba1   Ba    Ba6+2 0.157800 0.534120 0.474430 1.604017
Ba2   Ba    Ba6+2 0.652390 0.465870 0.525520 1.622359
C1    C     C_3   0.513264 0.761351 0.282895 0.118831
C2    C     C_R   0.047237 0.912258 0.576820 0.024994
C3    C     C_R   0.175971 0.940154 0.613377 -0.109900
C4    C     C_3   0.950035 0.728540 0.365703 0.360417
C5    C     C_R   0.237173 0.009051 0.612258 -0.101460
C6    C     C_R   0.170822 0.051996 0.574516 0.038031
C7    C     C_R   0.027822 0.028690 0.545012 0.002322
C8    C     C_R   0.251218 0.114382 0.562434 0.011356
C9    C     C_R   0.167122 0.166512 0.536640 -0.038670
C10   C     C_R   0.014188 0.145033 0.511383 -0.025645
C11   C     C_R   0.950153 0.074362 0.513036 -0.003887
C12   C     C_3   0.452622 0.710101 0.325579 0.371424
C13   C     C_R   0.224252 0.238837 0.535509 -0.025738
C14   C     C_R   0.125194 0.286898 0.513004 -0.292079
C15   C     C_R   0.980298 0.265710 0.483536 0.075695
C16   C     C_3   0.989142 0.804741 0.356893 -0.395740
C17   C     C_R   0.929620 0.191221 0.480055 -0.026166
C18   C     C_R   0.828138 0.932263 0.513379 0.002040
C19   C     C_R   0.774915 0.859614 0.509942 -0.012038
C20   C     C_R   0.868425 0.811075 0.535313 -0.039739
C21   C     C_R   0.000548 0.839403 0.570572 -0.073924
C22   C     C_R   0.805266 0.158171 0.442114 0.083389
C23   C     C_3   0.513291 0.694603 0.644563 0.348719
C24   C     C_R   0.725645 0.095155 0.452953 0.027920
C25   C     C_R   0.805089 0.049931 0.484302 -0.026141
C26   C     C_R   0.742952 0.979373 0.484789 -0.020757
C27   C     C_R   0.575446 0.073209 0.427039 0.057081
C28   C     C_3   0.836908 0.330301 0.320568 0.357943
C29   C     C_R   0.510989 0.003709 0.427806 0.063741
C30   C     C_R   0.594039 0.956552 0.458280 0.014147
C31   C     C_R   0.625038 0.836911 0.483807 -0.038357
C32   C     C_R   0.526520 0.890143 0.468144 0.025430
C33   C     C_R   0.576029 0.763196 0.478453 0.008407
C34   C     C_3   0.582692 0.754297 0.692748 -0.366816
C35   C     C_R   0.674837 0.715925 0.500559 -0.284079
C36   C     C_R   0.821601 0.736906 0.527223 0.026269
C37   C     C_R   0.630507 0.533635 0.337796 -0.194784
C38   C     C_R   0.494027 0.491193 0.927898 -0.017208
C39   C     C_R   0.446261 0.480600 0.867512 0.569364
C40   C     C_3   0.878131 0.284487 0.258815 -0.157711
C41   C     C_R   0.178895 0.460868 0.893876 0.575489
C42   C     C_R   0.227715 0.452125 0.951717 -0.042076
C43   C     C_R   0.384744 0.472969 0.969634 -0.085693
C44   C     C_R   0.646198 0.519673 0.948114 0.045447
C45   C     C_3   0.865861 0.282081 0.696155 0.386938
C46   C     C_R   0.692505 0.520273 0.007171 -0.085549
C47   C     C_R   0.588023 0.497733 0.047794 -0.031867
C48   C     C_R   0.432306 0.476655 0.029574 -0.075438
C49   C     C_R   0.126729 0.422552 0.991738 0.063240
C50   C     C_R   0.178968 0.423918 0.051369 0.097816
C51   C     C_R   0.324785 0.459381 0.071491 -0.039187
C52   C     C_3   0.985429 0.617796 0.652878 0.330386
C53   C     C_R   0.367259 0.479041 0.132447 0.573762
C54   C     C_R   0.635898 0.496794 0.106799 0.575911
C55   C     C_2   0.124266 0.429670 0.762673 -0.102152
C56   C     C_3   0.793961 0.237225 0.739883 -0.184911
C57   C     C_3   0.095363 0.419080 0.696643 -0.105153
C58   C     C_1   0.304516 0.511905 0.694624 0.012046
C59   C     C_2   0.323063 0.524418 0.753999 0.020324
C60   C     C_2   0.238579 0.475830 0.790236 0.217082
C61   C     C_R   0.700961 0.545520 0.237524 -0.125601
C62   C     C_R   0.737627 0.557156 0.298186 -0.018202
C63   C     C_R   0.503329 0.486166 0.315521 0.027270
C64   C     C_3   0.023003 0.634156 0.719499 -0.224843
C65   C     C_R   0.479012 0.467897 0.253792 -0.118139
C66   C     C_R   0.569525 0.501067 0.213649 0.193443
C67   C     C_3   0.361021 0.281952 0.678303 0.371360
C68   C     C_2   0.194952 0.467281 0.665468 -0.262347
C69   C     C_3   0.296463 0.316849 0.390676 0.310958
C70   C     C_3   0.243704 0.240789 0.363986 -0.415319
C71   C     C_3   0.355880 0.645697 0.292197 -0.245716
C72   C     C_3   0.825601 0.205328 0.246685 -0.411265
C73   C     C_3   0.888904 0.669220 0.756129 -0.383985
C74   C     C_3   0.377423 0.787098 0.247366 -0.351373
C75   C     C_3   0.633348 0.724021 0.238295 -0.432305
C76   C     C_3   0.418521 0.728236 0.600809 -0.298649
C77   C     C_3   0.597448 0.827724 0.320074 -0.339682
C78   C     C_3   0.303339 0.214707 0.701101 -0.412428
C79   C     C_3   0.870502 0.237614 0.633495 -0.295424
C80   C     C_3   0.903622 0.181531 0.756507 -0.497649
C81   C     C_3   0.431702 0.335334 0.730481 -0.204629
C82   C     C_3   0.428989 0.113187 0.565480 -0.376181
C83   C     C_3   0.818278 0.161895 0.377591 -0.393098
C84   C     C_3   0.475023 0.126176 0.403328 -0.421864
C85   C     C_3   0.355719 0.982175 0.394003 -0.418814
C86   C     C_3   0.358008 0.890692 0.488308 -0.345584
C87   C     C_3   0.091242 0.379179 0.090333 -0.337947
C88   C     C_3   0.971633 0.383938 0.969168 -0.329754
C89   C     C_R   0.967284 0.957811 0.545129 0.019340
C90   C     C_3   0.754194 0.556866 0.910122 -0.301649
C91   C     C_3   0.399942 0.594057 0.786113 -0.319334
C92   C     C_3   0.663413 0.557832 0.402850 -0.238871
C93   C     C_3   0.661610 0.330300 0.327632 -0.242978
C94   C     C_3   0.899026 0.405744 0.317977 -0.265022
H1    H     H_    0.825412 0.309134 0.222881 0.074541
H2    H     H_    0.938619 0.813963 0.314128 0.121274
H3    H     H_    0.639171 0.368609 0.368457 0.089636
H4    H     H_    0.604966 0.346504 0.288432 0.048148
H5    H     H_    0.826025 0.428493 0.286295 0.019107
H6    H     H_    0.900731 0.440859 0.362042 0.122705
H7    H     H_    0.017407 0.403386 0.298427 0.150517
H8    H     H_    0.325479 0.608596 0.322741 0.150734
H9    H     H_    0.245998 0.662758 0.273632 0.163362
H10   H     H_    0.421521 0.616233 0.255044 0.057290
H11   H     H_    0.833940 0.184412 0.198314 0.113274
H12   H     H_    0.906575 0.173878 0.268994 0.130655
H13   H     H_    0.701762 0.196480 0.259274 0.119249
H14   H     H_    0.089787 0.593439 0.629535 -0.000918
H15   H     H_    0.883967 0.578985 0.644389 0.091652
H16   H     H_    0.129057 0.670467 0.727459 0.124468
H17   H     H_    0.008016 0.286719 0.252515 0.097630
H18   H     H_    0.046143 0.583604 0.735048 0.074190
H19   H     H_    0.776955 0.637774 0.744283 0.141484
H20   H     H_    0.914747 0.671235 0.804073 0.114882
H21   H     H_    0.878344 0.724918 0.748534 0.136795
H22   H     H_    0.194699 0.346198 0.411156 0.054164
H23   H     H_    0.390381 0.315951 0.424672 0.045303
H24   H     H_    0.322854 0.742406 0.214711 0.110792
H25   H     H_    0.284757 0.811597 0.277419 0.127192
H26   H     H_    0.422370 0.828073 0.221959 0.105780
H27   H     H_    0.201185 0.211979 0.398977 0.058211
H28   H     H_    0.149296 0.240750 0.330375 0.155135
H29   H     H_    0.343000 0.212960 0.340074 0.108714
H30   H     H_    0.558597 0.689321 0.344908 -0.052724
H31   H     H_    0.728992 0.701946 0.261924 0.132565
H32   H     H_    0.576718 0.680100 0.205541 0.114416
H33   H     H_    0.687905 0.762428 0.212395 0.130723
H34   H     H_    0.611890 0.664432 0.621575 0.035581
H35   H     H_    0.394924 0.687441 0.560459 0.139173
H36   H     H_    0.304949 0.746993 0.620612 0.127450
H37   H     H_    0.483460 0.775366 0.589309 0.031237
H38   H     H_    0.614101 0.732358 0.732736 0.110331
H39   H     H_    0.988349 0.297223 0.711602 -0.033965
H40   H     H_    0.689105 0.779706 0.676127 0.083100
H41   H     H_    0.495107 0.796022 0.706846 0.102843
H42   H     H_    0.511002 0.862968 0.344013 0.130612
H43   H     H_    0.676187 0.812628 0.353949 0.094481
H44   H     H_    0.665824 0.859460 0.291998 0.100456
H45   H     H_    0.941137 0.843569 0.393999 0.071310
H46   H     H_    0.951779 0.193036 0.632217 0.044966
H47   H     H_    0.752116 0.214927 0.618149 0.154283
H48   H     H_    0.914019 0.271682 0.602319 0.084350
H49   H     H_    0.682637 0.209546 0.720932 0.112372
H50   H     H_    0.021051 0.718943 0.404133 0.114839
H51   H     H_    0.946414 0.145567 0.716650 0.142072
H52   H     H_    0.004802 0.208632 0.783448 0.133798
H53   H     H_    0.838423 0.148134 0.784075 0.137243
H54   H     H_    0.765667 0.273734 0.781827 0.118529
H55   H     H_    0.257185 0.305959 0.660737 -0.045917
H56   H     H_    0.466697 0.386261 0.716058 0.145948
H57   H     H_    0.347688 0.344897 0.767335 0.034643
H58   H     H_    0.535041 0.313582 0.749328 0.134282
H59   H     H_    0.239521 0.229341 0.743273 0.082052
H60   H     H_    0.403595 0.181617 0.709427 0.114472
H61   H     H_    0.219734 0.182529 0.668992 0.103402
H62   H     H_    0.341131 0.027411 0.639257 0.076105
H63   H     H_    0.166404 0.341887 0.515588 0.057133
H64   H     H_    0.480239 0.135813 0.529353 0.152538
H65   H     H_    0.477138 0.137996 0.609509 0.140962
H66   H     H_    0.470589 0.057592 0.556497 0.094899
H67   H     H_    0.067285 0.805426 0.593972 0.091093
H68   H     H_    0.940772 0.176043 0.367127 0.127756
H69   H     H_    0.790550 0.109309 0.348540 0.095851
H70   H     H_    0.735071 0.200020 0.366278 0.139936
H71   H     H_    0.517122 0.182373 0.417997 0.144291
H72   H     H_    0.235388 0.907212 0.640150 0.063336
H73   H     H_    0.471634 0.113267 0.354082 0.104828
H74   H     H_    0.354182 0.123925 0.420994 0.117878
H75   H     H_    0.360645 0.997042 0.349318 0.117072
H76   H     H_    0.326427 0.924569 0.384948 0.111532
H77   H     H_    0.256457 0.009339 0.418945 0.121521
H78   H     H_    0.347974 0.865051 0.528012 0.127332
H79   H     H_    0.319623 0.946036 0.502263 0.109357
H80   H     H_    0.275663 0.864475 0.452801 0.150719
H81   H     H_    0.823162 0.723583 0.376187 -0.073474
H82   H     H_    0.631835 0.661953 0.500528 0.046050
H83   H     H_    0.809842 0.540622 0.022032 0.121402
H84   H     H_    0.072587 0.323422 0.065974 0.070785
H85   H     H_    0.158073 0.373095 0.130805 0.132743
H86   H     H_    0.976184 0.402398 0.103560 0.183619
H87   H     H_    0.907643 0.357880 0.001796 0.090461
H88   H     H_    0.888052 0.421931 0.956426 0.169965
H89   H     H_    0.993938 0.341724 0.930108 0.115812
H90   H     H_    0.776309 0.572479 0.210225 0.143144
H91   H     H_    0.860950 0.581612 0.935178 0.101405
H92   H     H_    0.794469 0.518824 0.871261 0.224435
H93   H     H_    0.690531 0.600200 0.894334 0.093170
H94   H     H_    0.182059 0.459271 0.617484 0.077365
H95   H     H_    0.344988 0.640687 0.772870 0.102808
H96   H     H_    0.385125 0.601342 0.834839 0.096565
H97   H     H_    0.527773 0.595429 0.776485 0.138819
H98   H     H_    0.067642 0.390767 0.785604 0.109508
H99   H     H_    0.387861 0.427818 0.237467 0.109683
H100  H     H_    0.567923 0.562420 0.433023 0.164195
H101  H     H_    0.745410 0.521543 0.419456 0.133260
H102  H     H_    0.701923 0.614682 0.409466 0.036826
H103  H     H_    0.118112 0.814618 0.356615 0.147035
H104  H     H_    0.609264 0.277818 0.332347 0.090564
N1    N     N_R   0.287963 0.473176 0.851652 -0.421582
N2    N     N_R   0.524729 0.491400 0.150297 -0.422122
O1    O     O_2   0.110690 0.676100 0.539200 -0.454267
O2    O     O_2   0.797400 0.481724 0.705364 -0.461799
O3    O     O_3   0.772129 0.342555 0.696166 -0.562546
O4    O     O_3   0.863220 0.586720 0.534720 -0.501841
O5    O     O_3   0.450900 0.461390 0.429220 -0.510646
O6    O     O_2   0.599830 0.538970 0.641850 -0.463242
O7    O     O_3   0.409151 0.652237 0.671924 -0.653518
O8    O     O_2   0.557470 0.249535 0.525046 -0.485990
O9    O     O_3   0.480170 0.264523 0.635992 -0.578130
O10   O     O_2   0.545355 0.476534 0.828861 -0.597764
O11   O     O_2   0.038999 0.459462 0.881574 -0.634544
O12   O     O_3   0.355387 0.347398 0.344151 -0.642096
O13   O     O_2   0.262783 0.489412 0.169038 -0.574763
O14   O     O_2   0.776623 0.500089 0.118832 -0.612183
O15   O     O_3   0.368310 0.629070 0.432760 -0.493278
O16   O     O_2   0.244830 0.749657 0.475603 -0.494061
O17   O     O_3   0.950046 0.681303 0.633353 -0.647679
O18   O     O_3   0.356665 0.747550 0.370280 -0.614143
O19   O     O_2   0.210480 0.460990 0.358130 -0.458535
O20   O     O_3   0.959520 0.592090 0.401630 -0.496409
O21   O     O_2   0.066210 0.545090 0.293961 -0.449125
O22   O     O_3   0.985694 0.679824 0.314009 -0.612762
O23   O     O_2   0.699610 0.323860 0.460780 -0.471211
O24   O     O_3   0.947090 0.413280 0.465240 -0.496152
O25   O     O_3   0.442000 0.370930 0.567190 -0.449891
O26   O     O_3   0.911655 0.303099 0.366879 -0.651830
O27   O     O_3   0.359410 0.538600 0.570730 -0.471975
O28   O     O_3   0.850780 0.407910 0.598320 -0.460922
P1    P     P_3+3 0.935930 0.665430 0.555670 0.962558
P2    P     P_3+3 0.382700 0.439650 0.365620 0.955480
P3    P     P_3+3 0.937248 0.593069 0.325615 0.947025
P4    P     P_3+3 0.874370 0.334570 0.444280 0.966398
P5    P     P_3+3 0.881014 0.413949 0.674850 0.991906
P6    P     P_3+3 0.390226 0.722273 0.439702 0.912398
P7    P     P_3+3 0.420522 0.559876 0.645463 0.947273
P8    P     P_3+3 0.421476 0.279165 0.565520 0.953603

loop_
_geom_bond_atom_site_label_1
_geom_bond_atom_site_label_2
_ccdc_geom_bond_type
Ba1   O24   S    
C77   H43   S    
O20   P3    S    
C94   H6    S    
C84   H73   S    
C73   H21   S    
O22   P3    S    
O12   P2    S    
C7    C89   A    
C72   H13   S    
C80   H51   S    
C82   H64   S    
C56   H49   S    
C52   O17   S    
C60   N1    S    
C81   H58   S    
C15   P4    S    
C50   C51   A    
C38   C44   A    
C37   C62   A    
C13   P8    S    
Ba2   O24   S    
C24   C25   A    
C74   H24   S    
C86   H79   S    
C92   H100  S    
O23   P4    D    
O8    P8    D    
C57   C68   S    
C19   C20   A    
C80   H52   S    
C33   C35   A    
C35   C36   A    
O7    P7    S    
O2    P5    D    
C56   C80   S    
C49   C88   S    
C53   O13   D    
C4    H50   S    
C59   C91   S    
O5    P2    S    
C55   C57   S    
C19   C31   A    
C85   H76   S    
C13   C14   A    
C20   C36   A    
C86   H78   S    
C52   H14   S    
Ba1   O19   S    
Ba1   Ba2   S    
C87   H84   S    
C7    C11   A    
C76   H36   S    
O21   P3    D    
Ba2   O27   S    
O19   P2    D    
C72   H11   S    
C39   O10   D    
C9    C13   A    
Ba2   P4    S    
C79   H48   S    
C88   H87   S    
C14   C15   A    
C63   C65   A    
C41   N1    Am   
C28   C94   S    
C67   C81   S    
Ba2   O4    S    
C58   C68   D    
C22   C83   S    
C4    O22   S    
C75   H31   S    
C2    C89   A    
C91   H95   S    
C77   H44   S    
C1    C77   S    
Ba1   O1    S    
C94   H5    S    
C70   H28   S    
C14   H63   S    
C37   C63   A    
C12   O18   S    
C50   C87   S    
C28   C40   S    
C65   H99   S    
C23   H34   S    
C34   H40   S    
O15   P6    S    
C84   H71   S    
Ba2   O25   S    
C78   H60   S    
C21   H67   S    
C51   C53   A    
C64   H16   S    
C38   C43   A    
C85   H77   S    
C18   C89   A    
C44   C46   A    
C4    C16   S    
C90   H91   S    
C48   C51   A    
C40   C72   S    
C45   O3    S    
C66   N2    S    
C65   C66   A    
C67   H55   S    
C12   C71   S    
C28   O26   S    
C26   C30   A    
C29   C85   S    
C40   H1    S    
O17   P1    S    
C5    H62   S    
C2    C21   A    
C93   H4    S    
C6    C7    A    
C32   C86   S    
C18   C26   A    
C55   C60   D    
C93   H104  S    
C53   N2    Am   
C72   H12   S    
C23   C76   S    
C49   C50   A    
Ba1   O20   S    
C92   H102  S    
C30   C32   A    
C41   C42   A    
C37   C92   S    
C28   C93   S    
C35   H82   S    
C71   H8    S    
Ba1   P1    S    
C40   H17   S    
C71   H9    S    
C29   C30   A    
O3    P5    S    
C61   H90   S    
C85   H75   S    
C31   C32   A    
O9    P8    S    
O28   P5    S    
C58   P7    S    
C75   H33   S    
C10   C11   A    
C23   O7    S    
Ba1   O4    S    
C1    C12   S    
C78   H61   S    
C27   C84   S    
C75   H32   S    
C67   O9    S    
C42   C49   A    
C6    C8    A    
C46   C47   A    
C69   H22   S    
C88   H88   S    
C33   P6    S    
C70   H27   S    
C74   H25   S    
Ba2   O6    S    
C83   H70   S    
O27   P7    S    
C41   O11   D    
O24   P4    S    
C16   H103  S    
C82   H66   S    
C90   H93   S    
C68   H94   S    
C78   H59   S    
C3    C5    A    
C81   H56   S    
C34   H41   S    
C91   H96   S    
C3    H72   S    
C61   C66   A    
C38   C39   A    
C44   C90   S    
C64   H18   S    
C63   P2    S    
C45   H39   S    
O4    P1    S    
C84   H74   S    
O26   P4    S    
O18   P6    S    
C76   H35   S    
C11   C25   A    
C42   C43   A    
C22   C24   A    
C2    C3    A    
C81   H57   S    
C34   H38   S    
O6    P7    D    
C57   P5    S    
C9    C10   A    
C90   H92   S    
C36   P1    S    
C73   H20   S    
C88   H89   S    
C69   O12   S    
C55   H98   S    
C12   H30   S    
C69   H23   S    
C70   H29   S    
C92   H101  S    
C74   H26   S    
C87   H86   S    
C17   C22   A    
C83   H69   S    
C62   P3    S    
C4    H81   S    
C47   C54   A    
C79   H46   S    
C45   C56   S    
O1    P1    D    
O25   P8    S    
Ba1   P2    S    
C71   H10   S    
C43   C48   A    
C64   C73   S    
C10   C17   A    
C8    C82   S    
C31   C33   A    
C52   H15   S    
C73   H19   S    
C93   H3    S    
C45   C79   S    
C59   C60   S    
Ba1   O5    S    
C76   H37   S    
C54   O14   D    
C80   H53   S    
C5    C6    A    
C8    C9    A    
Ba2   O28   S    
C23   C34   S    
O16   P6    D    
C61   C62   A    
C15   C17   A    
Ba1   O27   S    
C86   H80   S    
C79   H47   S    
C77   H42   S    
C54   N2    Am   
C18   C19   A    
C24   C27   A    
C27   C29   A    
C47   C48   A    
C94   H7    S    
C91   H97   S    
C25   C26   A    
C83   H68   S    
C1    C74   S    
C20   C21   A    
C58   C59   D    
C67   C78   S    
Ba1   O15   S    
Ba2   O5    S    
C16   H2    S    
C69   C70   S    
C52   C64   S    
C39   N1    Am   
C16   H45   S    
C46   H83   S    
C82   H65   S    
C56   H54   S    
Ba2   O23   S    
C87   H85   S    
C1    C75   S    
