data_mof_unit_31817.cif
_audit_creation_date              2012-12-10T19:07:01-0500
_audit_creation_method            fapswitch 2.2
_symmetry_space_group_name_H-M    P1
_symmetry_Int_Tables_number       1
_space_group_crystal_system       triclinic
_cell_length_a                    27.811206
_cell_length_b                    10.853462
_cell_length_c                    9.536791
_cell_angle_alpha                 89.980739
_cell_angle_beta                  90.033493
_cell_angle_gamma                 90.089126
_cell_volume                      2878.65588972

loop_
_atom_site_label
_atom_site_type_symbol
_atom_type_description
_atom_site_fract_x
_atom_site_fract_y
_atom_site_fract_z
_atom_type_partial_charge
C1    C     C_R   0.500152 0.262685 0.499861 0.810725
C2    C     C_R   0.278511 0.486522 0.375601 -0.096554
C3    C     C_R   0.253644 0.501759 0.501987 0.355791
C4    C     C_R   0.101989 0.503030 0.508151 -0.048814
C5    C     C_R   0.127570 0.392330 0.487621 -0.026560
C6    C     C_R   0.102578 0.282168 0.466863 -0.116870
C7    C     C_R   0.127624 0.614248 0.530894 -0.092117
C8    C     C_R   0.354499 0.500534 0.500364 -0.040176
C9    C     C_R   0.645453 0.499504 0.498390 -0.036970
C10   C     C_R   0.974586 0.387403 0.492158 0.044397
C11   C     C_R   0.974346 0.614327 0.506202 0.053569
C12   C     C_R   0.407455 0.500058 0.499988 0.801732
C13   C     C_R   0.949205 0.500690 0.497501 0.069775
C14   C     C_R   0.947722 0.276466 0.491719 -0.202164
C15   C     C_R   0.897764 0.277221 0.491299 -0.142515
C16   C     C_R   0.872534 0.388346 0.491609 -0.020336
C17   C     C_R   0.898100 0.500391 0.494543 -0.046057
C18   C     C_R   0.872450 0.612159 0.494880 -0.020298
C19   C     C_R   0.821982 0.609802 0.493351 0.535155
C20   C     C_R   0.822048 0.390100 0.490863 0.535486
C21   C     C_R   0.720502 0.461249 0.375800 -0.097670
C22   C     C_R   0.670357 0.461441 0.377730 -0.217916
C23   C     C_R   0.500274 0.737309 0.499828 0.811898
C24   C     C_R   0.671597 0.537895 0.616565 -0.217509
C25   C     C_R   0.721718 0.537979 0.614362 -0.098518
C26   C     C_R   0.746341 0.499575 0.494084 0.353126
C27   C     C_R   0.025698 0.388622 0.488300 0.036583
C28   C     C_R   0.050828 0.501946 0.505325 0.073857
C29   C     C_R   0.025261 0.614040 0.519044 0.026520
C30   C     C_R   0.052741 0.280081 0.467032 -0.191853
C31   C     C_R   0.101462 0.723379 0.559383 -0.003464
C32   C     C_R   0.947507 0.724939 0.500369 -0.202797
C33   C     C_R   0.897591 0.723616 0.495588 -0.144335
C34   C     C_R   0.592529 0.499949 0.499842 0.800670
C35   C     C_R   0.051328 0.722194 0.550261 -0.248697
C36   C     C_R   0.498251 0.061955 0.620930 0.137740
C37   C     C_R   0.501004 0.130088 0.498198 -0.103077
C38   C     C_R   0.504692 0.064653 0.370698 -0.210405
C39   C     C_R   0.504798 0.935431 0.370712 -0.208969
C40   C     C_R   0.501199 0.869901 0.498229 -0.104130
C41   C     C_R   0.498416 0.937954 0.620985 0.134136
C42   C     C_3   0.492534 0.929029 0.775944 -0.465609
C43   C     C_3   0.492305 0.070920 0.775813 -0.473945
C44   C     C_R   0.521883 0.593151 0.073811 0.254930
C45   C     C_R   0.177909 0.393964 0.487426 0.540000
C46   C     C_R   0.474302 0.415348 0.074433 -0.080121
C47   C     C_R   0.474251 0.415453 0.925482 -0.079109
C48   C     C_R   0.522129 0.592686 0.926318 0.259184
C49   C     C_3   0.574204 0.625047 0.921904 -0.512138
C50   C     C_3   0.573662 0.627914 0.080785 -0.491435
C51   C     C_R   0.178454 0.611574 0.521253 0.561873
C52   C     C_R   0.279123 0.516419 0.627443 -0.100256
C53   C     C_R   0.329235 0.515438 0.626880 -0.214459
C54   C     C_R   0.328678 0.486253 0.374584 -0.211775
Cu1   Cu    Cu3+1 0.500000 0.499980 0.640670 0.946044
Cu2   Cu    Cu3+1 0.500000 0.500020 0.359330 0.944871
H1    H     H_    0.347181 0.474378 0.275628 0.157628
H2    H     H_    0.260006 0.528162 0.725410 0.144583
H3    H     H_    0.964081 0.814664 0.495749 0.143688
H4    H     H_    0.653449 0.569659 0.709759 0.147489
H5    H     H_    0.878758 0.810888 0.492362 0.188299
H6    H     H_    0.741495 0.567950 0.706090 0.142640
H7    H     H_    0.033199 0.806772 0.576852 0.153103
H8    H     H_    0.507269 0.112511 0.271297 0.166166
H9    H     H_    0.507450 0.887643 0.271322 0.164473
H10   H     H_    0.457447 0.887636 0.806097 0.204913
H11   H     H_    0.258915 0.475299 0.278281 0.141226
H12   H     H_    0.524593 0.888757 0.828052 0.193847
H13   H     H_    0.457034 0.111096 0.805705 0.194564
H14   H     H_    0.524211 0.112559 0.827785 0.205044
H15   H     H_    0.454252 0.345394 0.130284 0.140051
H16   H     H_    0.454087 0.345771 0.869594 0.138186
H17   H     H_    0.596424 0.548521 0.880348 0.215368
H18   H     H_    0.580885 0.716609 0.873562 0.191777
H19   H     H_    0.596505 0.555164 0.128258 0.218341
H20   H     H_    0.578925 0.721806 0.124785 0.195280
H21   H     H_    0.121519 0.196363 0.449448 0.220252
H22   H     H_    0.651121 0.430747 0.285365 0.150340
H23   H     H_    0.739324 0.431640 0.282367 0.142950
H24   H     H_    0.878957 0.189715 0.491103 0.187864
H25   H     H_    0.964138 0.186738 0.494999 0.140667
H26   H     H_    0.036551 0.191724 0.446562 0.154777
H27   H     H_    0.348134 0.526885 0.725350 0.159978
N1    N     N_R   0.202106 0.502421 0.503360 -0.471503
N2    N     N_R   0.797908 0.499810 0.492187 -0.469351
N3    N     N_R   0.500300 0.500930 0.147930 -0.185378
N4    N     N_R   0.500310 0.500890 0.852020 -0.184664
O1    O     O_R   0.500000 0.319640 0.618810 -0.581564
O2    O     O_2   0.797255 0.283099 0.490208 -0.532370
O3    O     O_2   0.204244 0.716805 0.524635 -0.499161
O4    O     O_2   0.797127 0.716516 0.492559 -0.532470
O5    O     O_R   0.500010 0.319680 0.381230 -0.590529
O6    O     O_R   0.430260 0.500000 0.618780 -0.585584
O7    O     O_R   0.430270 0.500040 0.381190 -0.582425
O8    O     O_R   0.499990 0.680320 0.618770 -0.579883
O9    O     O_R   0.500000 0.680360 0.381190 -0.584612
O10   O     O_R   0.569730 0.499960 0.618810 -0.581689
O11   O     O_R   0.569740 0.500000 0.381220 -0.585582
O12   O     O_2   0.202622 0.287970 0.471083 -0.523466
C55   C     C_2   0.124167 0.839099 0.609284 0.930473
O13   O     O_2   0.113425 0.937404 0.554997 -0.611291
O14   O     O_R   0.155927 0.836356 0.722987 -0.719410
H28   H     H_    0.168478 0.921212 0.748433 0.346519

loop_
_geom_bond_atom_site_label_1
_geom_bond_atom_site_label_2
_ccdc_geom_bond_type
C10   C27   A    
Cu1   Cu2   S    
C41   C42   S    
Cu1   O10   S    
Cu2   O11   S    
C21   C26   A    
Cu2   O7    S    
C28   C29   A    
C16   C20   A    
C51   O3    S    
C5    C6    A    
C2    C54   A    
C9    C22   A    
C23   C40   S    
C34   O10   A    
C23   O9    A    
C18   C19   A    
Cu1   O1    S    
C16   C17   A    
C1    C37   S    
C1    O1    A    
C43   H13   S    
C21   C22   A    
C27   C30   A    
C42   H12   S    
C39   H9    S    
C12   O7    A    
C36   C41   A    
C4    C7    A    
C44   N3    A    
C4    C28   A    
C38   H8    S    
C7    C31   A    
C24   C25   A    
C22   H22   S    
Cu1   O8    S    
C2    H11   S    
C10   C14   A    
C8    C54   A    
C39   C40   A    
C6    H21   S    
C25   C26   A    
C5    C45   A    
C47   N4    A    
C30   H26   S    
C37   C38   A    
C50   H20   S    
Cu2   N3    S    
C15   H24   S    
C8    C12   S    
C20   N2    A    
C21   H23   S    
C55   O14   S    
C17   C18   A    
C48   N4    A    
C31   C55   S    
C46   H15   S    
C52   H2    S    
C33   H5    S    
C48   C49   S    
C6    C30   A    
C11   C32   A    
C43   H14   S    
C45   O12   S    
C9    C34   S    
C31   C35   A    
C12   O6    A    
C45   N1    A    
C42   C43   S    
C3    N1    S    
C52   C53   A    
C44   C50   S    
Cu2   O9    S    
C46   C47   A    
C40   C41   A    
Cu1   O6    S    
C14   C15   A    
C4    C5    A    
C19   N2    A    
C10   C13   A    
C8    C53   A    
C3    C52   A    
C9    C24   A    
C1    O5    A    
C20   O2    S    
C29   C35   A    
C32   H3    S    
C13   C17   A    
C53   H27   S    
C32   C33   A    
C2    C3    A    
C7    C51   A    
C50   H19   S    
C11   C13   A    
C38   C39   A    
C26   N2    S    
C55   O13   D    
C34   O11   A    
C23   O8    A    
C49   H17   S    
C25   H6    S    
Cu1   N4    S    
O14   H28   S    
C18   C33   A    
C47   H16   S    
C19   O4    S    
C44   C48   A    
Cu2   O5    S    
C11   C29   A    
C36   C37   A    
C49   C50   S    
C27   C28   A    
C42   H10   S    
C49   H18   S    
C36   C43   S    
C35   H7    S    
C24   H4    S    
C14   H25   S    
C51   N1    A    
C15   C16   A    
C46   N3    A    
C54   H1    S    
