data_mof_unit_59391.cif
_audit_creation_date              2012-12-11T16:18:13-0500
_audit_creation_method            fapswitch 2.2
_symmetry_space_group_name_H-M    P1
_symmetry_Int_Tables_number       1
_space_group_crystal_system       triclinic
_cell_length_a                    14.038697
_cell_length_b                    14.051352
_cell_length_c                    30.092781
_cell_angle_alpha                 97.20916
_cell_angle_beta                  97.05635
_cell_angle_gamma                 61.280513
_cell_volume                      5151.41329552

loop_
_atom_site_label
_atom_site_type_symbol
_atom_type_description
_atom_site_fract_x
_atom_site_fract_y
_atom_site_fract_z
_atom_type_partial_charge
C1    C     C_R   0.385672 0.711341 0.442279 0.558412
C2    C     C_R   0.772154 0.270458 0.376499 -0.141333
C3    C     C_R   0.792831 0.248447 0.331059 0.077266
C4    C     C_R   0.398870 0.381038 0.426469 0.544075
C5    C     C_R   0.809711 0.321833 0.309684 0.063382
C6    C     C_R   0.811635 0.412671 0.334091 0.369530
C7    C     C_R   0.788615 0.435253 0.379054 -0.105085
C8    C     C_R   0.825309 0.396832 0.159885 0.405762
C9    C     C_R   0.858167 0.391078 0.117076 0.135457
C10   C     C_R   0.890503 0.203261 0.105076 -0.178133
C11   C     C_R   0.860818 0.209283 0.148184 -0.197672
C12   C     C_R   0.384947 0.238051 0.222555 0.403560
C13   C     C_R   0.832166 0.304607 0.175956 0.020182
C14   C     C_1   0.822658 0.304933 0.222576 0.062008
C15   C     C_1   0.817618 0.309673 0.262255 0.090676
C16   C     C_R   0.709965 0.405332 0.442396 0.546237
C17   C     C_R   0.894493 0.291834 0.089610 -0.008270
C18   C     C_R   0.362587 0.773982 0.402633 -0.009699
C19   C     C_R   0.440407 0.798965 0.388608 0.130406
C20   C     C_R   0.426255 0.834691 0.345199 0.138833
C21   C     C_R   0.334678 0.845341 0.316852 0.053393
C22   C     C_R   0.251464 0.833392 0.332800 0.103269
C23   C     C_R   0.392506 0.244888 0.269387 -0.085828
C24   C     C_R   0.266478 0.797117 0.375421 -0.160574
C25   C     C_R   0.242954 0.848703 0.154710 0.093420
C26   C     C_R   0.229527 0.868812 0.109410 -0.110177
C27   C     C_R   0.382118 0.907114 0.119342 -0.086391
C28   C     C_R   0.389296 0.712282 0.568072 0.543969
C29   C     C_R   0.397207 0.885954 0.164374 0.399756
C30   C     C_R   0.325671 0.860626 0.182492 0.037468
C31   C     C_1   0.331275 0.856871 0.230062 0.055964
C32   C     C_1   0.332967 0.853809 0.269763 0.060045
C33   C     C_R   0.295181 0.903398 0.092019 -0.079523
C34   C     C_R   0.327612 0.343045 0.293327 -0.020235
C35   C     C_R   0.366679 0.366674 0.593764 -0.034803
C36   C     C_R   0.433828 0.274713 0.618015 0.404840
C37   C     C_R   0.413789 0.273400 0.662102 0.396577
C38   C     C_R   0.326059 0.362599 0.682037 -0.024552
C39   C     C_R   0.254190 0.450247 0.657226 -0.200174
C40   C     C_R   0.402516 0.383586 0.552726 0.565145
C41   C     C_R   0.274050 0.452190 0.613214 -0.200844
C42   C     C_R   0.243864 0.432089 0.843252 -0.078545
C43   C     C_R   0.236829 0.411673 0.887257 0.134317
C44   C     C_R   0.375080 0.223056 0.871677 -0.152340
C45   C     C_R   0.312687 0.329866 0.199513 0.039513
C46   C     C_R   0.381584 0.245185 0.828971 -0.137555
C47   C     C_R   0.313225 0.348007 0.814203 0.000689
C48   C     C_1   0.311254 0.362762 0.768036 -0.008194
C49   C     C_1   0.314635 0.366078 0.728734 0.026543
C50   C     C_R   0.299308 0.303504 0.900364 0.027815
C51   C     C_1   0.764878 0.374532 0.611985 -0.010289
C52   C     C_R   0.713196 0.407661 0.568481 0.543538
C53   C     C_R   0.912657 0.338929 0.720851 0.162267
C54   C     C_R   0.929072 0.329046 0.767681 0.159712
C55   C     C_R   0.773400 0.294359 0.764876 0.110047
C56   C     C_1   0.300847 0.320005 0.151420 0.000168
C57   C     C_R   0.758603 0.303390 0.718430 -0.138843
C58   C     C_R   0.826024 0.327311 0.696522 -0.012683
C59   C     C_R   0.858851 0.307105 0.789629 0.055687
C60   C     C_1   0.879352 0.293024 0.837240 0.009974
C61   C     C_1   0.797441 0.350463 0.649988 -0.053556
C62   C     C_1   0.905917 0.282171 0.876671 -0.002665
C63   C     C_1   0.374136 0.761401 0.613037 -0.003379
C64   C     C_1   0.365195 0.363186 0.380904 -0.010023
C65   C     C_R   0.313048 0.920844 0.720338 0.116303
C66   C     C_R   0.301466 0.938588 0.766776 -0.145583
C67   C     C_1   0.344415 0.352612 0.341249 -0.055052
C68   C     C_R   0.373790 0.745411 0.773284 0.382719
C69   C     C_R   0.385863 0.725345 0.726862 0.147920
C70   C     C_R   0.354876 0.813246 0.700221 0.014921
C71   C     C_R   0.331754 0.851732 0.793075 -0.006243
C72   C     C_1   0.314052 0.874606 0.840160 0.013273
C73   C     C_1   0.364010 0.790479 0.652336 -0.022220
C74   C     C_1   0.293759 0.902816 0.878827 0.006095
C75   C     C_R   0.951214 0.273062 0.048536 0.562155
C76   C     C_R   0.254983 0.434691 0.270365 -0.108258
C77   C     C_R   0.275229 0.270183 0.065475 0.541019
C78   C     C_1   0.290249 0.302987 0.111468 0.005906
C79   C     C_R   0.260300 0.954752 0.049117 0.547274
C80   C     C_R   0.952026 0.269132 0.922097 0.543364
C81   C     C_R   0.277247 0.266858 0.939977 0.535459
C82   C     C_R   0.261691 0.950614 0.922929 0.543609
C83   C     C_R   0.247092 0.427959 0.223439 -0.166341
C84   C     C_3   0.686309 0.176832 0.284381 -0.285295
C85   C     C_3   0.060035 0.907776 0.174763 -0.298596
C86   C     C_3   0.078137 0.963157 0.299965 -0.302838
C87   C     C_3   0.516744 0.883725 0.446151 -0.278179
C88   C     C_3   0.471949 0.967481 0.321355 -0.274809
C89   C     C_R   0.763896 0.366924 0.400032 -0.064609
C90   C     C_3   0.107603 0.607425 0.905695 -0.308332
C91   C     C_3   0.952146 0.474628 0.698490 -0.305477
C92   C     C_3   0.991010 0.433809 0.823344 -0.296699
C93   C     C_3   0.613462 0.367052 0.806264 -0.267212
C94   C     C_3   0.330308 0.078154 0.705436 -0.254868
C95   C     C_3   0.538414 0.561950 0.698132 -0.294237
C96   C     C_3   0.951491 0.498558 0.121816 -0.244391
Cr1   Cr    Cr6+3 0.581000 0.584320 0.508140 1.042163
Cr2   Cr    Cr6+3 0.339110 0.576430 0.496080 1.026212
Cr3   Cr    Cr6+3 0.579910 0.339270 0.495810 1.060709
Cr4   Cr    Cr6+3 0.082090 0.079210 0.982490 1.025605
Cr5   Cr    Cr6+3 0.082460 0.324610 0.994920 1.033141
Cr6   Cr    Cr6+3 0.323630 0.087860 0.996130 1.039056
F1    F     F_    0.477395 0.896901 0.190943 -0.580047
F2    F     F_    0.522673 0.189196 0.600373 -0.580659
F3    F     F_    0.483402 0.187612 0.686157 -0.629902
F4    F     F_    0.447850 0.142014 0.199722 -0.600531
F5    F     F_    0.402252 0.661510 0.798970 -0.659347
F6    F     F_    0.794284 0.490195 0.187068 -0.597501
F7    F     F_    0.829038 0.483220 0.313618 -0.596501
H1    H     H_    0.205714 0.511463 0.288710 0.138544
H2    H     H_    0.220500 0.523850 0.595475 0.163488
H3    H     H_    0.436393 0.180239 0.806611 0.138784
H4    H     H_    0.424637 0.140188 0.880964 0.144207
H5    H     H_    0.691822 0.294913 0.699530 0.151688
H6    H     H_    0.265867 0.020925 0.782398 0.137829
H7    H     H_    0.450112 0.174294 0.286962 0.114614
H8    H     H_    0.783277 0.509772 0.396475 0.158127
H9    H     H_    0.754024 0.216284 0.392217 0.144505
H10   H     H_    0.823249 0.088743 0.325352 0.247972
H11   H     H_    0.625160 0.202167 0.309558 0.143517
H12   H     H_    0.865284 0.138007 0.160585 0.125784
H13   H     H_    0.692982 0.101750 0.264752 0.176936
H14   H     H_    0.658200 0.241651 0.260872 0.169846
H15   H     H_    0.200100 0.778525 0.200606 0.270230
H16   H     H_    0.009788 0.878362 0.188473 0.153487
H17   H     H_    0.023216 0.935768 0.140953 0.148804
H18   H     H_    0.058990 0.977282 0.197260 0.144643
H19   H     H_    0.119600 0.805834 0.312385 0.252573
H20   H     H_    0.008070 0.968666 0.276767 0.153884
H21   H     H_    0.115737 0.005359 0.285747 0.158119
H22   H     H_    0.047542 0.004745 0.333062 0.151463
H23   H     H_    0.917303 0.126425 0.085028 0.148783
H24   H     H_    0.606629 0.746272 0.404162 0.252228
H25   H     H_    0.505497 0.948700 0.425286 0.144954
H26   H     H_    0.589296 0.864843 0.470033 0.152277
H27   H     H_    0.444435 0.913166 0.465838 0.157409
H28   H     H_    0.585655 0.811550 0.340347 0.271296
H29   H     H_    0.513620 0.001089 0.347247 0.118953
H30   H     H_    0.382491 0.020009 0.322583 0.143044
H31   H     H_    0.495223 0.970152 0.287782 0.225293
H32   H     H_    0.197839 0.489374 0.951198 0.257975
H33   H     H_    0.058087 0.660469 0.933620 0.146636
H34   H     H_    0.163518 0.863398 0.088482 0.155390
H35   H     H_    0.050816 0.613640 0.875732 0.143252
H36   H     H_    0.164893 0.636803 0.899146 0.160930
H37   H     H_    0.001829 0.319794 0.667341 0.259941
H38   H     H_    0.873628 0.516925 0.678263 0.149926
H39   H     H_    0.015726 0.483325 0.683504 0.143964
H40   H     H_    0.943756 0.513692 0.733208 0.161120
H41   H     H_    0.086233 0.314675 0.775395 0.281979
H42   H     H_    0.019778 0.486515 0.811369 0.124218
H43   H     H_    0.031720 0.408501 0.856975 0.194723
H44   H     H_    0.901780 0.482618 0.826618 0.145970
H45   H     H_    0.204624 0.781821 0.386279 0.143452
H46   H     H_    0.675831 0.222386 0.766565 0.281669
H47   H     H_    0.558734 0.420430 0.779737 0.177826
H48   H     H_    0.644641 0.413351 0.830809 0.172187
H49   H     H_    0.565670 0.341862 0.824238 0.163104
H50   H     H_    0.264071 0.997692 0.660067 0.258375
H51   H     H_    0.294204 0.146944 0.683514 0.169026
H52   H     H_    0.418514 0.028691 0.700148 0.197254
H53   H     H_    0.319686 0.113084 0.740782 0.149419
H54   H     H_    0.402591 0.569498 0.721930 0.288700
H55   H     H_    0.589448 0.546757 0.730387 0.160122
H56   H     H_    0.434091 0.933354 0.106760 0.179382
H57   H     H_    0.557885 0.610665 0.678050 0.158687
H58   H     H_    0.558113 0.482948 0.678755 0.145406
H59   H     H_    0.786488 0.553956 0.106754 0.285670
H60   H     H_    0.946067 0.521329 0.158484 0.191222
H61   H     H_    0.952238 0.564709 0.105446 0.139255
H62   H     H_    0.029136 0.422916 0.116063 0.161862
H63   H     H_    0.190080 0.498852 0.205879 0.123204
H64   H     H_    0.194354 0.511710 0.830780 0.116193
H65   H     H_    0.185752 0.519137 0.672493 0.138471
N1    N     N_2   0.791258 0.155563 0.306668 -0.541774
N2    N     N_2   0.276076 0.011995 0.694198 -0.517723
N3    N     N_2   0.424238 0.617248 0.706565 -0.502106
N4    N     N_2   0.859179 0.483493 0.102934 -0.475303
N5    N     N_2   0.170476 0.820457 0.172036 -0.513768
N6    N     N_2   0.155956 0.849964 0.304829 -0.527485
N7    N     N_2   0.532471 0.786756 0.418043 -0.489394
N8    N     N_2   0.505387 0.855553 0.328952 -0.490258
N9    N     N_2   0.167295 0.496171 0.918113 -0.509274
N10   N     N_2   0.983567 0.360431 0.698665 -0.517950
N11   N     N_2   0.018299 0.337767 0.792581 -0.515683
N12   N     N_2   0.702576 0.271556 0.786385 -0.518313
O1    O     O_R   0.688580 0.499770 0.460490 -0.508280
O2    O     O_R   0.346150 0.177650 0.050510 -0.487174
O3    O     O_R   0.314200 0.996600 0.036060 -0.495545
O4    O     O_R   0.480400 0.672610 0.462660 -0.456947
O5    O     O_R   0.168690 0.969990 0.933130 -0.503368
O6    O     O_R   0.991920 0.175870 0.937430 -0.489718
O7    O     O_R   0.974010 0.342590 0.941330 -0.505945
O8    O     O_R   0.182630 0.317940 0.955040 -0.484014
O9    O     O_R   0.347320 0.174720 0.953250 -0.520518
O10   O     O_R   0.315290 0.993890 0.945900 -0.496459
O11   O     O_3   0.162730 0.163890 0.991180 -0.250060
O12   O     O_R   0.348600 0.476260 0.536540 -0.514359
O13   O     O_R   0.315310 0.685650 0.451800 -0.525109
O14   O     O_R   0.346220 0.474990 0.446280 -0.492277
O15   O     O_R   0.492270 0.312460 0.441630 -0.515322
O16   O     O_R   0.669740 0.350480 0.455640 -0.502950
O17   O     O_R   0.691150 0.501150 0.557860 -0.510943
O18   O     O_R   0.482790 0.673890 0.552920 -0.495186
O19   O     O_R   0.317880 0.687030 0.549170 -0.504962
O20   O     O_R   0.494840 0.313840 0.539010 -0.434163
O21   O     O_R   0.672120 0.351750 0.545910 -0.481204
O22   O     O_3   0.500010 0.500010 0.500010 -0.257179
O23   O     O_R   0.167510 0.972920 0.030390 -0.518759
O24   O     O_R   0.990840 0.178580 0.027590 -0.509766
O25   O     O_R   0.972840 0.345510 0.038590 -0.478246
O26   O     O_R   0.181550 0.320660 0.045200 -0.514019

loop_
_geom_bond_atom_site_label_1
_geom_bond_atom_site_label_2
_ccdc_geom_bond_type
C75   O24   A    
C8    C13   A    
C46   H3    S    
C82   O5    A    
C27   C29   A    
C52   O21   A    
C7    H8    S    
C85   H16   S    
C35   C36   A    
C51   C61   T    
Cr6   O9    S    
C19   N7    S    
H41   N11   S    
C91   H38   S    
C2    H9    S    
C39   C41   A    
C38   C49   S    
Cr4   O6    S    
C53   C54   A    
Cr5   O25   S    
C84   H14   S    
C80   O7    A    
C12   C23   A    
C75   O25   A    
C1    C18   S    
C29   C30   A    
C4    O15   A    
Cr2   O13   S    
C18   C24   A    
C62   C80   S    
C36   C37   A    
Cr1   O17   S    
C90   H36   S    
C55   C59   A    
C69   C70   A    
C30   C31   S    
Cr5   O11   S    
C86   H22   S    
C10   C17   A    
C44   C50   A    
C65   C70   A    
C7    C89   A    
Cr4   O23   S    
Cr6   O3    S    
C56   C78   T    
C29   F1    S    
C60   C62   T    
C18   C19   A    
C55   N12   S    
Cr4   O24   S    
C88   H31   S    
H15   N5    S    
C77   O26   A    
H10   N1    S    
C23   H7    S    
C95   N3    S    
C66   C71   A    
C45   C56   S    
C44   C46   A    
C8    C9    A    
C54   N11   S    
H54   N3    S    
C47   C48   S    
Cr2   O19   S    
C92   H44   S    
H19   N6    S    
C68   F5    S    
Cr5   O7    S    
C84   N1    S    
C94   H53   S    
C82   O10   A    
C85   N5    S    
C69   N3    S    
Cr4   O11   S    
C58   C61   S    
C81   O8    A    
C59   C60   S    
C96   H61   S    
C13   C14   S    
Cr3   O15   S    
C86   H21   S    
C28   O19   A    
C80   O6    A    
C87   H25   S    
Cr2   O22   S    
C85   H17   S    
C11   H12   S    
C74   C82   S    
C39   H65   S    
C16   O16   A    
C8    F6    S    
C76   C83   A    
C91   H39   S    
C24   H45   S    
C6    C7    A    
C57   C58   A    
C54   C59   A    
Cr5   O26   S    
C38   C39   A    
C21   C32   S    
C40   O20   A    
C66   H6    S    
Cr2   O12   S    
Cr3   O20   S    
C51   C52   S    
C28   O18   A    
C64   C67   T    
C87   H26   S    
C45   C83   A    
C72   C74   T    
C53   N10   S    
C91   H40   S    
C92   N11   S    
C68   C69   A    
H28   N8    S    
C63   C73   T    
C25   C26   A    
C77   C78   S    
C16   O1    A    
Cr6   O2    S    
Cr3   O21   S    
H32   N9    S    
C2    C89   A    
C88   H30   S    
C37   F3    S    
C37   C38   A    
C1    O4    A    
C81   O9    A    
C26   C33   A    
C88   N8    S    
C31   C32   T    
C4    O14   A    
C84   H11   S    
C23   C34   A    
C83   H63   S    
C20   C21   A    
C70   C73   S    
C86   N6    S    
C86   H20   S    
C1    O13   A    
C93   H48   S    
C96   H62   S    
C94   H52   S    
C88   H29   S    
C90   H33   S    
C27   H56   S    
C22   N6    S    
C48   C49   T    
C44   H4    S    
C92   H42   S    
C96   H60   S    
C55   C57   A    
C65   N2    S    
C79   O3    A    
C6    F7    S    
C22   C24   A    
Cr6   O11   S    
Cr4   O5    S    
C42   C43   A    
Cr1   O18   S    
C26   H34   S    
C95   H57   S    
Cr5   O8    S    
C42   H64   S    
C20   N8    S    
C3    N1    S    
C25   C30   A    
C79   O23   A    
Cr1   O1    S    
C46   C47   A    
Cr1   O4    S    
C94   H51   S    
C87   H27   S    
C93   H47   S    
C33   C79   S    
C12   C45   A    
C3    C5    A    
H46   N12   S    
C95   H58   S    
C34   C67   S    
C87   N7    S    
C53   C58   A    
C25   N5    S    
C43   C50   A    
C57   H5    S    
H24   N7    S    
Cr2   O14   S    
C4    C64   S    
H37   N10   S    
Cr3   O22   S    
H50   N2    S    
C52   O17   A    
C21   C22   A    
C19   C20   A    
C2    C3    A    
Cr6   O10   S    
C71   C72   S    
Cr3   O16   S    
C95   H55   S    
C93   N12   S    
C12   F4    S    
C11   C13   A    
C36   F2    S    
C5    C6    A    
C40   O12   A    
C68   C71   A    
H59   N4    S    
C43   N9    S    
C35   C40   S    
C9    C17   A    
C42   C47   A    
Cr1   O22   S    
C93   H49   S    
C35   C41   A    
C10   H23   S    
C5    C15   S    
C85   H18   S    
C10   C11   A    
C28   C63   S    
C92   H43   S    
C16   C89   S    
C90   N9    S    
C76   H1    S    
C65   C66   A    
C41   H2    S    
C34   C76   A    
C27   C33   A    
C17   C75   S    
C77   O2    A    
C14   C15   T    
C96   N4    S    
C91   N10   S    
C84   H13   S    
C90   H35   S    
C9    N4    S    
C50   C81   S    
C94   N2    S    
