data_mof_unit_49806.cif
_audit_creation_date              2012-12-11T17:45:22-0500
_audit_creation_method            fapswitch 2.2
_symmetry_space_group_name_H-M    P1
_symmetry_Int_Tables_number       1
_space_group_crystal_system       triclinic
_cell_length_a                    15.088303
_cell_length_b                    15.029976
_cell_length_c                    15.114895
_cell_angle_alpha                 110.323551
_cell_angle_beta                  109.016624
_cell_angle_gamma                 109.53349
_cell_volume                      2623.30471688

loop_
_atom_site_label
_atom_site_type_symbol
_atom_type_description
_atom_site_fract_x
_atom_site_fract_y
_atom_site_fract_z
_atom_type_partial_charge
C1    C     C_R   0.967936 0.243612 0.057091 -0.128747
C2    C     C_R   0.323494 0.786167 0.327558 0.051656
C3    C     C_R   0.304951 0.501340 0.942311 0.026283
C4    C     C_R   0.941136 0.498218 0.303028 0.081700
C5    C     C_R   0.686492 0.406933 0.933979 -0.145120
C6    C     C_R   0.019943 0.591914 0.782668 -0.105724
C7    C     C_R   0.791214 0.196192 0.699982 -0.141994
C8    C     C_R   0.003401 0.802309 0.100053 -0.145223
C9    C     C_R   0.094454 0.806946 0.010700 -0.150161
C10   C     C_R   0.704858 0.194285 0.793982 -0.138711
C11   C     C_R   0.777456 0.591248 0.024694 -0.143169
C12   C     C_R   0.314577 0.757821 0.225236 -0.134600
C13   C     C_R   0.940014 0.408927 0.685684 -0.139172
C14   C     C_R   0.674967 0.498614 0.953282 0.008641
C15   C     C_R   0.955537 0.502757 0.679099 0.044727
C16   C     C_R   0.702944 0.128846 0.701462 0.065059
C17   C     C_R   0.064671 0.869232 0.075560 0.068050
C18   C     C_R   0.643241 0.173142 0.092099 0.267578
C19   C     C_R   0.690558 0.274983 0.189744 0.256306
C20   C     C_R   0.773709 0.299212 0.287764 0.036715
C21   C     C_R   0.799704 0.218623 0.290245 -0.277734
C22   C     C_R   0.750093 0.117808 0.196579 -0.264016
C23   C     C_R   0.210119 0.409214 0.906950 -0.158615
C24   C     C_R   0.674033 0.094454 0.096592 0.219525
C25   C     C_R   0.849363 0.420447 0.482908 -0.256010
C26   C     C_R   0.936091 0.511257 0.583049 0.067915
C27   C     C_R   0.013009 0.601395 0.588081 0.019175
C28   C     C_R   0.999625 0.598218 0.492885 -0.259530
C29   C     C_R   0.922531 0.501828 0.392468 0.069171
C30   C     C_R   0.845067 0.410864 0.386589 0.076115
C31   C     C_R   0.139021 0.793903 0.748163 -0.203875
C32   C     C_R   0.237187 0.871847 0.845656 -0.106285
C33   C     C_R   0.318144 0.846295 0.879842 -0.125000
C34   C     C_R   0.995286 0.590009 0.298541 -0.165555
C35   C     C_R   0.301912 0.743100 0.815956 -0.114198
C36   C     C_R   0.203241 0.664025 0.719484 -0.119627
C37   C     C_R   0.120359 0.688343 0.686113 0.110869
C38   C     C_R   0.248610 0.033487 0.521274 -0.120908
C39   C     C_R   0.325598 0.005974 0.510534 -0.124907
C40   C     C_R   0.339255 0.928864 0.536911 0.105398
C41   C     C_R   0.276333 0.880951 0.575913 -0.178551
C42   C     C_R   0.196092 0.905347 0.581826 -0.124318
C43   C     C_R   0.182690 0.981930 0.555182 -0.121351
C44   C     C_R   0.524592 0.974421 0.627098 -0.223942
C45   C     C_R   0.300918 0.592215 0.998606 -0.159703
C46   C     C_R   0.620056 0.011564 0.622308 0.050581
C47   C     C_R   0.620409 0.946532 0.528592 0.033365
C48   C     C_R   0.521007 0.862344 0.435452 -0.245105
C49   C     C_R   0.423651 0.849719 0.433075 0.070207
C50   C     C_R   0.426209 0.906787 0.531613 0.015060
C51   C     C_R   0.731024 0.001312 0.445500 -0.193550
C52   C     C_R   0.833344 0.053819 0.457015 -0.113678
C53   C     C_R   0.925185 0.075510 0.543279 -0.122857
C54   C     C_R   0.914317 0.041435 0.615947 -0.142612
C55   C     C_R   0.812350 0.988406 0.604811 -0.147765
C56   C     C_R   0.913517 0.407722 0.210873 -0.125380
C57   C     C_R   0.720687 0.972492 0.522255 0.116671
C58   C     C_3   0.477977 0.381273 0.880544 -0.415588
C59   C     C_3   0.378803 0.383775 0.881667 -0.400115
C60   C     C_3   0.594845 0.555732 0.063018 -0.450240
C61   C     C_3   0.544961 0.561654 0.887364 -0.393105
C62   C     C_3   0.575223 0.499745 0.944903 0.361368
C63   C     C_3   0.402840 0.503413 0.942023 0.345832
C64   C     C_3   0.500311 0.572422 0.062631 0.098061
C65   C     C_3   0.438646 0.558605 0.880205 -0.475983
C66   C     C_R   0.156407 0.050987 0.796716 -0.151775
C67   C     C_R   0.219790 0.749193 0.312879 -0.118981
C68   C     C_R   0.115807 0.055838 0.868090 -0.187207
C69   C     C_R   0.186644 0.125577 0.981016 0.123085
C70   C     C_R   0.298116 0.185716 0.021419 -0.177380
C71   C     C_R   0.337802 0.180384 0.949750 -0.175009
C72   C     C_R   0.267464 0.114250 0.837531 -0.081269
C73   C     C_R   0.163920 0.039501 0.084158 -0.235024
C74   C     C_R   0.095366 0.984817 0.113528 0.061026
C75   C     C_R   0.041121 0.033608 0.154751 0.023640
C76   C     C_R   0.044544 0.124059 0.147811 -0.248123
C77   C     C_R   0.083307 0.154097 0.083910 0.064439
C78   C     C_R   0.063753 0.248398 0.970450 -0.145514
C79   C     C_R   0.148434 0.113528 0.055797 0.027148
C80   C     C_R   0.855852 0.917880 0.118324 -0.162372
C81   C     C_R   0.787521 0.866630 0.150636 -0.184181
C82   C     C_R   0.831338 0.879683 0.254069 -0.096446
C83   C     C_R   0.942985 0.947568 0.326833 -0.111216
C84   C     C_R   0.010947 0.003838 0.297122 -0.185269
C85   C     C_R   0.968165 0.986246 0.191381 0.118994
C86   C     C_R   0.042841 0.215146 0.040357 0.061854
H1    H     H_    0.930772 0.228805 0.103970 0.101208
H2    H     H_    0.040447 0.675606 0.808566 0.120471
H3    H     H_    0.820340 0.175494 0.644536 0.135087
H4    H     H_    0.984389 0.824286 0.163790 0.132449
H5    H     H_    0.153389 0.836305 0.987206 0.104028
H6    H     H_    0.658587 0.168278 0.830246 0.089742
H7    H     H_    0.797845 0.676056 0.059339 0.118558
H8    H     H_    0.894620 0.324604 0.619562 0.102319
H9    H     H_    0.379244 0.773685 0.206227 0.087442
H10   H     H_    0.863050 0.236069 0.364662 0.152545
H11   H     H_    0.774736 0.059127 0.201508 0.170039
H12   H     H_    0.791917 0.351193 0.480022 0.135944
H13   H     H_    0.062451 0.666118 0.499521 0.129805
H14   H     H_    0.075622 0.813527 0.723807 0.120553
H15   H     H_    0.249859 0.951181 0.896400 0.144303
H16   H     H_    0.392986 0.906248 0.956386 0.100794
H17   H     H_    0.365184 0.723957 0.841998 0.098606
H18   H     H_    0.190383 0.583246 0.671997 0.106644
H19   H     H_    0.122968 0.003245 0.563245 0.092976
H20   H     H_    0.180306 0.324259 0.850614 0.097120
H21   H     H_    0.241085 0.095672 0.504546 0.099247
H22   H     H_    0.376150 0.046194 0.483763 0.111540
H23   H     H_    0.287587 0.823140 0.598830 0.129230
H24   H     H_    0.145102 0.866175 0.608348 0.120582
H25   H     H_    0.522640 0.016349 0.700057 0.128087
H26   H     H_    0.520301 0.814567 0.362321 0.117231
H27   H     H_    0.661601 0.990850 0.381980 0.118082
H28   H     H_    0.841837 0.080351 0.400799 0.124996
H29   H     H_    0.004895 0.119480 0.554357 0.101045
H30   H     H_    0.985391 0.061471 0.684321 0.118311
H31   H     H_    0.015183 0.673174 0.348836 0.107489
H32   H     H_    0.806221 0.968304 0.665604 0.113947
H33   H     H_    0.495635 0.333268 0.918133 0.149208
H34   H     H_    0.460459 0.338382 0.795034 0.162874
H35   H     H_    0.311544 0.338318 0.795891 0.150712
H36   H     H_    0.352526 0.340268 0.921672 0.188093
H37   H     H_    0.606400 0.504769 0.099144 0.183848
H38   H     H_    0.611889 0.648160 0.932783 0.151572
H39   H     H_    0.533353 0.522709 0.803960 0.163936
H40   H     H_    0.373625 0.512355 0.793404 0.175038
H41   H     H_    0.357080 0.677055 0.029265 0.083528
H42   H     H_    0.453294 0.643839 0.916431 0.144004
H43   H     H_    0.670184 0.637517 0.117117 0.135569
H44   H     H_    0.528899 0.660493 0.087534 0.066444
H45   H     H_    0.299694 0.111348 0.783009 0.135263
H46   H     H_    0.102043 0.995782 0.710184 0.105699
H47   H     H_    0.030060 0.003362 0.835920 0.118445
H48   H     H_    0.354307 0.234198 0.108390 0.130539
H49   H     H_    0.423134 0.229142 0.981533 0.130415
H50   H     H_    0.215007 0.010567 0.063249 0.122911
H51   H     H_    0.003889 0.160345 0.181285 0.129878
H52   H     H_    0.866731 0.322421 0.182560 0.112059
H53   H     H_    0.821976 0.901694 0.035733 0.128672
H54   H     H_    0.700985 0.815116 0.094975 0.108581
H55   H     H_    0.778815 0.837491 0.278023 0.114538
H56   H     H_    0.976670 0.955906 0.405946 0.116454
H57   H     H_    0.097120 0.056395 0.353766 0.111899
H58   H     H_    0.194165 0.748158 0.370956 0.120409
H59   H     H_    0.119461 0.244309 0.941987 0.121084
H60   H     H_    0.624570 0.321110 0.883148 0.103404
N1    N     N_R   0.947080 0.293830 0.002870 -0.039778
N2    N     N_R   0.054040 0.556820 0.847890 -0.041179
N3    N     N_R   0.848290 0.293830 0.791110 -0.042119
N4    N     N_R   0.995680 0.706170 0.053910 -0.042031
N5    N     N_R   0.052920 0.706170 0.997130 -0.042401
N6    N     N_R   0.791050 0.293830 0.847890 -0.037610
N7    N     N_R   0.846330 0.556820 0.053910 -0.036727
N8    N     N_R   0.997640 0.443180 0.791110 -0.040482
N9    N     N_R   0.208950 0.706170 0.152110 -0.039129
N10   N     N_R   0.153670 0.443180 0.946090 -0.034090
N11   N     N_R   0.002360 0.556820 0.208890 -0.041492
N12   N     N_R   0.210070 0.556820 0.002870 -0.030578
N13   N     N_R   0.945960 0.443180 0.152110 -0.041931
N14   N     N_R   0.151710 0.706170 0.208890 -0.043436
N15   N     N_R   0.004320 0.293830 0.946090 -0.040221
N16   N     N_R   0.789930 0.443180 0.997130 -0.034556
Ni1   Ni    Ni4+2 0.869690 0.369690 0.000000 0.214748
Ni2   Ni    Ni4+2 0.130310 0.630310 0.000000 0.217753
Ni3   Ni    Ni4+2 0.000970 0.369690 0.869780 0.215285
Ni4   Ni    Ni4+2 0.999030 0.630310 0.130220 0.215549
C87   C     C_3   0.631745 0.986877 0.996215 -0.376616
C88   C     C_3   0.704835 0.000440 0.946041 -0.904020
H61   H     H_    0.704459 0.058321 0.916430 0.257539
H62   H     H_    0.789614 0.032711 0.007172 0.256086
H63   H     H_    0.675631 0.919615 0.876191 0.250664
H64   H     H_    0.628696 0.922969 0.018140 0.177247
H65   H     H_    0.547389 0.954499 0.934181 0.202452
C89   C     C_3   0.562006 0.148372 0.983732 -1.073675
H66   H     H_    0.574827 0.105725 0.917288 0.254021
H67   H     H_    0.478729 0.094710 0.963992 0.260584
H68   H     H_    0.569742 0.223634 0.982640 0.254904
C90   C     C_3   0.655732 0.358085 0.188795 -1.045649
H69   H     H_    0.566821 0.318355 0.155093 0.252134
H70   H     H_    0.692776 0.429060 0.271293 0.258997
H71   H     H_    0.678947 0.390482 0.139239 0.254996
C91   C     C_3   0.480913 0.566380 0.156060 -0.359127
C92   C     C_3   0.427196 0.452145 0.139830 -0.881925
H72   H     H_    0.340097 0.404610 0.077279 0.263773
H73   H     H_    0.468967 0.408015 0.116987 0.255101
H74   H     H_    0.432325 0.459396 0.217210 0.247644
H75   H     H_    0.560841 0.617397 0.232674 0.189393
H76   H     H_    0.432342 0.604996 0.171532 0.190685

loop_
_geom_bond_atom_site_label_1
_geom_bond_atom_site_label_2
_ccdc_geom_bond_type
C59   H35   S    
C81   H54   S    
C66   C68   A    
C63   C65   S    
C58   C62   S    
N7    Ni4   S    
C73   C74   A    
C54   C55   A    
C3    C23   A    
C35   C36   A    
C90   H71   S    
C92   H72   S    
C2    C12   A    
C9    H5    S    
C80   C85   A    
C90   H69   S    
C20   C30   S    
C76   H51   S    
C26   C27   A    
C51   H27   S    
C61   H38   S    
C18   C24   A    
C68   H47   S    
C45   H41   S    
C6    N2    A    
C56   N13   A    
C35   H17   S    
C92   H73   S    
C71   H49   S    
C38   C39   A    
C11   C14   A    
C40   C50   S    
C14   C62   S    
C38   H21   S    
C6    H2    S    
C60   C62   S    
C18   C19   A    
C41   C42   A    
C1    H1    S    
C89   H66   S    
C78   H59   S    
C10   N6    A    
C6    C15   A    
C7    N3    A    
C75   C85   S    
C88   H63   S    
C66   C72   A    
C83   C84   A    
C68   C69   A    
C54   H30   S    
N8    Ni3   S    
C67   N14   A    
C51   C57   A    
N14   Ni4   S    
C4    C29   S    
N12   Ni2   S    
C87   H65   S    
C64   C91   S    
C11   H7    S    
C59   H36   S    
C88   H62   S    
C10   H6    S    
N11   N13   A    
C22   H11   S    
C41   H23   S    
C21   C22   A    
C4    C56   A    
C61   C62   S    
N2    N8    A    
C82   H55   S    
C67   H58   S    
C44   C46   A    
C81   C82   A    
C53   H29   S    
C66   H46   S    
C77   C79   A    
C65   H40   S    
C39   H22   S    
C4    C34   A    
C74   C75   A    
C33   H16   S    
N2    Ni2   S    
C65   H42   S    
C24   C87   S    
N3    Ni3   S    
C76   C77   A    
C2    C67   A    
N1    N15   A    
C92   H74   S    
C16   C46   S    
C39   C40   A    
C15   C26   S    
C84   H57   S    
C25   C26   A    
C53   C54   A    
C23   H20   S    
C3    C45   A    
C51   C52   A    
C61   H39   S    
N11   Ni4   S    
C60   H37   S    
C8    N4    A    
C75   C76   A    
C34   N11   A    
C29   C30   A    
C2    C49   S    
C61   C65   S    
C47   C57   S    
C56   H52   S    
C47   C48   A    
C89   H68   S    
C73   H50   S    
C43   H19   S    
C58   H34   S    
C73   C79   A    
C12   H9    S    
C69   C79   S    
C91   H76   S    
C31   H14   S    
C84   C85   A    
C19   C90   S    
C5    C14   A    
C70   C71   A    
N1    Ni1   S    
C18   C89   S    
C28   H13   S    
C9    C17   A    
C88   H61   S    
C48   H26   S    
C64   H44   S    
C77   C86   S    
C49   C50   A    
C52   H28   S    
C55   C57   A    
C17   C74   S    
N13   Ni1   S    
N3    N6    A    
C8    H4    S    
C42   C43   A    
C12   N9    A    
C87   C88   S    
C7    H3    S    
C52   C53   A    
C72   H45   S    
N16   Ni1   S    
C44   C50   A    
C25   C30   A    
C46   C47   A    
C28   C29   A    
C5    H60   S    
N9    N14   A    
N4    N5    A    
C31   C32   A    
C7    C16   A    
C45   N12   A    
C80   C81   A    
C34   H31   S    
C60   H43   S    
C83   H56   S    
C90   H70   S    
C87   H64   S    
C21   H10   S    
C3    C63   S    
N9    Ni2   S    
C80   H53   S    
C13   H8    S    
C59   C63   S    
C8    C17   A    
C36   H18   S    
N7    N16   A    
C60   C64   S    
C9    N5    A    
C5    N16   A    
C19   C20   A    
C13   C15   A    
C58   C59   S    
C38   C43   A    
C10   C16   A    
C32   C33   A    
C78   C86   A    
N10   Ni3   S    
C27   C37   S    
C48   C49   A    
N10   N12   A    
C58   H33   S    
C33   C35   A    
C22   C24   A    
C91   H75   S    
C42   H24   S    
C69   C70   A    
C89   H67   S    
C13   N8    A    
N6    Ni1   S    
C1    N1    A    
C11   N7    A    
C63   C64   S    
C44   H25   S    
C31   C37   A    
C25   H12   S    
C1    C86   A    
C71   C72   A    
C20   C21   A    
C78   N15   A    
C36   C37   A    
N5    Ni2   S    
C27   C28   A    
C70   H48   S    
C32   H15   S    
C40   C41   A    
C82   C83   A    
C23   N10   A    
N15   Ni3   S    
C91   C92   S    
C55   H32   S    
N4    Ni4   S    
