data_mof_unit_60494.cif
_audit_creation_date              2012-12-10T20:04:52-0500
_audit_creation_method            fapswitch 2.2
_symmetry_space_group_name_H-M    P1
_symmetry_Int_Tables_number       1
_space_group_crystal_system       triclinic
_cell_length_a                    38.667302
_cell_length_b                    32.088976
_cell_length_c                    21.347934
_cell_angle_alpha                 89.916744
_cell_angle_beta                  123.91626
_cell_angle_gamma                 90.151693
_cell_volume                      21981.4194405

loop_
_atom_site_label
_atom_site_type_symbol
_atom_type_description
_atom_site_fract_x
_atom_site_fract_y
_atom_site_fract_z
_atom_type_partial_charge
C1    C     C_R   0.919335 0.999913 0.419196 0.904075
C2    C     C_R   0.273595 0.973431 0.818287 -0.269648
C3    C     C_R   0.965420 0.228055 0.936235 0.129415
C4    C     C_R   0.529150 0.729013 0.069754 0.131050
C5    C     C_R   0.473674 0.728873 0.932702 0.129226
C6    C     C_R   0.996784 0.206765 0.002207 0.102760
C7    C     C_R   0.500822 0.706771 0.001573 0.121436
C8    C     C_1   0.501608 0.838197 0.000768 -0.040342
C9    C     C_1   0.995431 0.338053 0.999655 -0.040145
C10   C     C_3   0.989850 0.962217 0.760740 -0.200962
C11   C     C_3   0.011377 0.962455 0.240826 -0.206153
C12   C     C_3   0.489349 0.462244 0.760172 -0.201903
C13   C     C_R   0.226874 0.476464 0.182720 -0.236800
C14   C     C_3   0.510637 0.462271 0.240023 -0.205528
C15   C     C_1   0.999306 0.162267 0.000714 0.003224
C16   C     C_1   0.500281 0.662246 0.001321 0.015901
C17   C     C_1   0.000145 0.124981 0.999726 -0.220896
C18   C     C_1   0.500081 0.624923 0.000849 -0.226314
C19   C     C_1   0.500906 0.875450 0.000698 -0.186658
C20   C     C_1   0.997434 0.375296 0.998758 -0.186479
C21   C     C_3   0.999479 0.000877 0.810446 -0.133462
C22   C     C_3   0.000440 0.000684 0.189522 -0.134933
C23   C     C_3   0.499523 0.500776 0.810443 -0.134107
C24   C     C_R   0.773644 0.474381 0.819563 -0.269475
C25   C     C_3   0.500520 0.500718 0.189562 -0.134102
C26   C     C_3   0.971640 0.028805 0.741323 0.186699
C27   C     C_3   0.027291 0.029723 0.257484 0.189513
C28   C     C_3   0.472101 0.529109 0.741708 0.187256
C29   C     C_3   0.528013 0.529153 0.258157 0.188917
C30   C     C_3   0.010474 0.039090 0.740737 0.135437
C31   C     C_3   0.988142 0.038561 0.257658 0.135593
C32   C     C_3   0.511138 0.538844 0.741400 0.134004
C33   C     C_3   0.489089 0.538835 0.258607 0.135953
C34   C     C_3   0.038325 0.011362 0.810580 -0.207433
C35   C     C_R   0.706378 0.001626 0.205168 0.080831
C36   C     C_3   0.961241 0.009729 0.188982 -0.205177
C37   C     C_3   0.538530 0.510687 0.810839 -0.206392
C38   C     C_3   0.461540 0.510606 0.189304 -0.205851
C39   C     C_3   0.028242 0.973246 0.759273 0.166936
C40   C     C_3   0.972622 0.972077 0.241822 0.166600
C41   C     C_3   0.527945 0.472721 0.758965 0.166393
C42   C     C_3   0.472131 0.472703 0.241326 0.166983
C43   C     C_3   0.797734 0.052012 0.385760 -0.387611
C44   C     C_3   0.772821 0.079388 0.405502 -0.896810
C45   C     C_3   0.201800 0.050743 0.618383 -0.386794
C46   C     C_R   0.293644 0.998564 0.794860 0.091551
C47   C     C_3   0.226425 0.078279 0.597939 -0.896445
C48   C     C_3   0.297771 0.552014 0.385697 -0.388581
C49   C     C_3   0.272707 0.578397 0.406633 -0.897198
C50   C     C_3   0.701689 0.548776 0.615790 -0.386909
C51   C     C_3   0.726235 0.575422 0.593999 -0.896137
C52   C     C_3   0.447751 0.203669 0.036897 -0.377151
C53   C     C_3   0.421175 0.229448 0.055121 -0.905116
C54   C     C_3   0.551996 0.204138 0.962596 -0.377271
C55   C     C_3   0.578123 0.230145 0.943396 -0.904278
C56   C     C_3   0.947800 0.703667 0.037083 -0.376967
C57   C     C_R   0.206327 0.501499 0.205252 0.081011
C58   C     C_3   0.921262 0.729446 0.055398 -0.904330
C59   C     C_3   0.051942 0.704138 0.962442 -0.376937
C60   C     C_3   0.078051 0.730144 0.943164 -0.904267
C61   C     C_3   0.933855 0.206003 0.862147 -0.381586
C62   C     C_3   0.907086 0.173006 0.869807 -0.815719
C63   C     C_3   0.059422 0.208722 0.143479 -0.371820
C64   C     C_3   0.044082 0.172692 0.170199 -0.849605
C65   C     C_3   0.440006 0.709118 0.857043 -0.377655
C66   C     C_3   0.452028 0.668566 0.835598 -0.865976
C67   C     C_3   0.561601 0.710500 0.147281 -0.384564
C68   C     C_R   0.793644 0.498627 0.794924 0.091511
C69   C     C_3   0.554347 0.666300 0.165406 -0.867779
C70   C     C_3   0.921135 0.975808 0.620014 -0.397379
C71   C     C_3   0.889463 0.962311 0.637354 -0.863357
C72   C     C_3   0.079551 0.978859 0.381147 -0.397116
C73   C     C_3   0.112308 0.967854 0.365281 -0.862212
C74   C     C_3   0.420915 0.476880 0.619457 -0.397156
C75   C     C_3   0.388808 0.464011 0.636102 -0.863387
C76   C     C_3   0.579114 0.476999 0.380611 -0.396878
C77   C     C_3   0.611654 0.465503 0.364405 -0.863165
C78   C     C_3   0.940273 0.059344 0.738598 -0.375517
C79   C     C_R   0.728573 0.025932 0.270172 -0.181466
C80   C     C_3   0.915897 0.084060 0.665136 -0.889675
C81   C     C_3   0.057607 0.061319 0.258894 -0.377453
C82   C     C_3   0.080687 0.087337 0.330908 -0.893003
C83   C     C_3   0.441123 0.560123 0.739022 -0.379211
C84   C     C_3   0.416754 0.584548 0.665264 -0.890042
C85   C     C_3   0.559091 0.560037 0.260367 -0.377931
C86   C     C_3   0.582567 0.585649 0.332851 -0.894826
C87   C     C_3   0.025537 0.081285 0.730731 -0.356892
C88   C     C_3   0.035900 0.111987 0.793476 -0.902965
C89   C     C_3   0.971713 0.080110 0.266272 -0.357745
C90   C     C_R   0.271031 0.023406 0.730967 -0.179618
C91   C     C_3   0.960336 0.110393 0.202433 -0.904271
C92   C     C_3   0.526874 0.580801 0.732012 -0.356457
C93   C     C_3   0.537852 0.611363 0.795299 -0.900887
C94   C     C_3   0.473681 0.580792 0.268145 -0.357133
C95   C     C_3   0.462608 0.611140 0.204526 -0.902244
C96   C     C_3   0.060355 0.942151 0.767544 -0.386799
C97   C     C_3   0.083673 0.921261 0.844841 -0.869304
C98   C     C_3   0.941578 0.939864 0.235159 -0.379370
C99   C     C_3   0.917647 0.919015 0.157821 -0.871821
C100  C     C_3   0.559587 0.441125 0.766788 -0.385803
C101  C     C_R   0.228518 0.525826 0.270224 -0.181989
C102  C     C_3   0.582764 0.420019 0.843905 -0.871664
C103  C     C_3   0.440504 0.441075 0.233993 -0.380570
C104  C     C_3   0.416580 0.420385 0.156519 -0.870441
C105  C     C_3   0.791420 0.944606 0.202376 -0.390546
C106  C     C_3   0.818863 0.966299 0.181190 -0.840397
C107  C     C_3   0.213322 0.943276 0.812615 -0.401808
C108  C     C_3   0.166755 0.942659 0.779759 -0.860221
C109  C     C_3   0.291230 0.444644 0.201700 -0.392061
C110  C     C_3   0.318261 0.466534 0.179882 -0.839739
C111  C     C_3   0.713470 0.445232 0.815389 -0.401428
C112  C     C_R   0.080678 0.999977 0.581140 0.908803
C113  C     C_R   0.770985 0.522537 0.729790 -0.179685
C114  C     C_3   0.666806 0.444170 0.781736 -0.861568
C115  C     C_R   0.772347 0.025659 0.314368 0.129819
C116  C     C_R   0.227349 0.023634 0.688870 0.121500
C117  C     C_R   0.272338 0.525517 0.314407 0.130289
C118  C     C_R   0.727290 0.522705 0.687660 0.121677
C119  C     C_R   0.793163 0.999787 0.291667 0.063650
C120  C     C_R   0.206758 0.997968 0.712885 0.084666
C121  C     C_R   0.293123 0.499689 0.291579 0.063736
C122  C     C_R   0.706754 0.497960 0.712941 0.084769
C123  C     C_R   0.770462 0.974876 0.225805 0.154135
C124  C     C_R   0.419348 0.499909 0.419196 0.904542
C125  C     C_R   0.230091 0.972555 0.778772 0.160204
C126  C     C_R   0.270394 0.474782 0.225623 0.154620
C127  C     C_R   0.730125 0.473469 0.780054 0.160126
C128  C     C_1   0.661961 0.001462 0.161835 -0.043498
C129  C     C_1   0.338048 0.999191 0.837820 -0.043265
C130  C     C_1   0.161950 0.501390 0.161912 -0.043802
C131  C     C_1   0.838049 0.499264 0.837835 -0.043032
C132  C     C_1   0.837798 0.999153 0.336490 -0.050729
C133  C     C_1   0.162164 0.998366 0.667700 -0.047044
C134  C     C_1   0.337792 0.499094 0.336327 -0.050636
C135  C     C_R   0.580679 0.499976 0.581168 0.908352
C136  C     C_1   0.662164 0.498365 0.667847 -0.046845
C137  C     C_1   0.875135 0.999500 0.374393 -0.214465
C138  C     C_1   0.124837 0.999516 0.627974 -0.222421
C139  C     C_1   0.375082 0.499484 0.374280 -0.214747
C140  C     C_1   0.624836 0.499508 0.628085 -0.222175
C141  C     C_R   0.000880 0.000107 0.622658 0.878538
C142  C     C_R   0.999058 0.000133 0.377286 0.877559
C143  C     C_R   0.500982 0.500093 0.622752 0.878294
C144  C     C_R   0.499147 0.500138 0.377368 0.877582
C145  C     C_1   0.624740 0.000929 0.125046 -0.183538
C146  C     C_3   0.000840 0.000692 0.690090 -0.196651
C147  C     C_1   0.375281 0.999629 0.874761 -0.184667
C148  C     C_1   0.124700 0.500903 0.125091 -0.184203
C149  C     C_1   0.875276 0.499679 0.874761 -0.184202
C150  C     C_R   0.999962 0.919379 0.999973 0.911763
C151  C     C_R   0.499961 0.419379 0.999972 0.911573
C152  C     C_R   0.999842 0.000299 0.878052 0.899494
C153  C     C_R   0.000137 0.000186 0.121954 0.901344
C154  C     C_R   0.499851 0.500259 0.878043 0.900858
C155  C     C_R   0.500147 0.500205 0.121958 0.900177
C156  C     C_R   0.000066 0.080777 0.999271 0.896302
C157  C     C_3   0.999073 0.000639 0.309867 -0.196696
C158  C     C_R   0.500027 0.580747 0.000239 0.900574
C159  C     C_R   0.500125 0.919576 0.000128 0.903453
C160  C     C_R   0.999600 0.419509 0.999772 0.902030
C161  C     C_R   0.580488 0.000224 0.080649 0.901553
C162  C     C_R   0.419519 0.999994 0.919328 0.902114
C163  C     C_R   0.080517 0.500221 0.080633 0.901817
C164  C     C_R   0.919516 0.500008 0.919327 0.901809
C165  C     C_R   0.500010 0.080570 0.999973 0.904528
C166  C     C_R   0.000008 0.580571 0.999974 0.904521
C167  C     C_R   0.474566 0.228285 0.017852 0.150732
C168  C     C_3   0.500959 0.500598 0.690194 -0.196788
C169  C     C_R   0.525199 0.228518 0.981759 0.150675
C170  C     C_R   0.974612 0.728286 0.017950 0.150564
C171  C     C_R   0.025191 0.728518 0.981689 0.150567
C172  C     C_R   0.499916 0.206792 0.999843 0.023266
C173  C     C_R   0.999896 0.706793 0.999852 0.023249
C174  C     C_R   0.024688 0.772245 0.982056 -0.182471
C175  C     C_R   0.975103 0.772020 0.017650 -0.182406
C176  C     C_R   0.524721 0.272244 0.982129 -0.182514
C177  C     C_R   0.475079 0.272021 0.017546 -0.182357
C178  C     C_3   0.962284 0.990172 0.690968 0.151482
C179  C     C_3   0.499193 0.500676 0.309978 -0.196492
C180  C     C_3   0.037965 0.991537 0.309424 0.152235
C181  C     C_3   0.462243 0.490610 0.690805 0.153844
C182  C     C_3   0.537872 0.490731 0.309270 0.151117
C183  C     C_R   0.999871 0.793486 0.999856 0.059429
C184  C     C_R   0.499863 0.293485 0.999843 0.059328
C185  C     C_1   0.499951 0.162066 0.999869 -0.098351
C186  C     C_1   0.999954 0.662067 0.999869 -0.098256
C187  C     C_1   0.999871 0.837905 0.999869 -0.049422
C188  C     C_1   0.499874 0.337904 0.999860 -0.049443
C189  C     C_1   0.999890 0.875179 0.999895 -0.194139
C190  C     C_R   0.726937 0.976616 0.182663 -0.236517
C191  C     C_1   0.499888 0.375178 0.999892 -0.194058
C192  C     C_1   0.499976 0.124779 0.999890 -0.185592
C193  C     C_1   0.999974 0.624780 0.999890 -0.185626
C194  C     C_R   0.474716 0.772464 0.934314 -0.253680
C195  C     C_R   0.529433 0.772605 0.066986 -0.263468
C196  C     C_R   0.964598 0.271752 0.937345 -0.240260
C197  C     C_R   0.022794 0.272758 0.068101 -0.244951
C198  C     C_R   0.502152 0.793819 0.000560 0.122316
C199  C     C_R   0.993782 0.293644 0.001981 0.110919
C200  C     C_R   0.024833 0.229153 0.069865 0.132617
H1    H     H_    0.981793 0.930982 0.771502 0.140105
H2    H     H_    0.550897 0.790360 0.117627 0.144194
H3    H     H_    0.599253 0.441318 0.319722 0.259336
H4    H     H_    0.621088 0.493277 0.346585 0.262437
H5    H     H_    0.639721 0.452917 0.416555 0.248693
H6    H     H_    0.591350 0.502031 0.423720 0.193167
H7    H     H_    0.573081 0.449260 0.404343 0.215368
H8    H     H_    0.937134 0.101926 0.655680 0.262247
H9    H     H_    0.896209 0.063177 0.616471 0.261831
H10   H     H_    0.895193 0.106528 0.668367 0.249833
H11   H     H_    0.917867 0.041822 0.745556 0.217623
H12   H     H_    0.957060 0.081222 0.786893 0.194186
H13   H     H_    0.942120 0.288901 0.886853 0.142481
H14   H     H_    0.058627 0.105646 0.337312 0.263365
H15   H     H_    0.099755 0.067266 0.381125 0.263675
H16   H     H_    0.101920 0.109464 0.328135 0.248611
H17   H     H_    0.080757 0.044560 0.253218 0.218379
H18   H     H_    0.040047 0.082204 0.209350 0.195803
H19   H     H_    0.437970 0.601183 0.654223 0.263232
H20   H     H_    0.396059 0.563591 0.617257 0.262706
H21   H     H_    0.396894 0.608029 0.668929 0.247233
H22   H     H_    0.418718 0.543080 0.746602 0.218243
H23   H     H_    0.458305 0.582123 0.787022 0.199206
H24   H     H_    0.044934 0.290817 0.117710 0.142521
H25   H     H_    0.560882 0.605383 0.338104 0.263632
H26   H     H_    0.600148 0.565221 0.382973 0.264229
H27   H     H_    0.605193 0.606410 0.331671 0.247060
H28   H     H_    0.581974 0.542672 0.254776 0.219193
H29   H     H_    0.542204 0.581267 0.211127 0.199883
H30   H     H_    0.007306 0.121309 0.789965 0.261707
H31   H     H_    0.058462 0.098203 0.849793 0.260290
H32   H     H_    0.050032 0.140504 0.787167 0.252078
H33   H     H_    0.054107 0.076060 0.731287 0.207184
H34   H     H_    0.001584 0.095068 0.675363 0.217732
H35   H     H_    0.069417 0.019741 0.861137 0.158158
H36   H     H_    0.988610 0.120633 0.205563 0.265242
H37   H     H_    0.938199 0.095776 0.146662 0.261312
H38   H     H_    0.945320 0.138401 0.207687 0.253406
H39   H     H_    0.943409 0.073780 0.266116 0.207074
H40   H     H_    0.995289 0.094740 0.321101 0.218999
H41   H     H_    0.509426 0.621296 0.791815 0.263300
H42   H     H_    0.560120 0.597220 0.851420 0.260333
H43   H     H_    0.552580 0.639561 0.789498 0.253246
H44   H     H_    0.555289 0.575080 0.732272 0.206727
H45   H     H_    0.503105 0.594982 0.676940 0.217921
H46   H     H_    0.929904 0.016891 0.138064 0.158803
H47   H     H_    0.490873 0.620512 0.206864 0.262024
H48   H     H_    0.439752 0.596974 0.148686 0.260416
H49   H     H_    0.448572 0.639630 0.210803 0.253670
H50   H     H_    0.445411 0.575153 0.268429 0.207618
H51   H     H_    0.497731 0.595008 0.323065 0.218769
H52   H     H_    0.100506 0.944887 0.890258 0.261932
H53   H     H_    0.061604 0.903912 0.853070 0.258976
H54   H     H_    0.106780 0.898949 0.848996 0.245315
H55   H     H_    0.044295 0.917941 0.722998 0.220316
H56   H     H_    0.082917 0.958806 0.759810 0.200637
H57   H     H_    0.569728 0.518598 0.861567 0.158583
H58   H     H_    0.899848 0.942530 0.112657 0.260398
H59   H     H_    0.939408 0.902481 0.148019 0.259156
H60   H     H_    0.895312 0.896038 0.155040 0.248571
H61   H     H_    0.958624 0.915755 0.279503 0.218942
H62   H     H_    0.919226 0.955576 0.244376 0.196026
H63   H     H_    0.600144 0.443448 0.889469 0.261901
H64   H     H_    0.560510 0.403220 0.852293 0.259455
H65   H     H_    0.605361 0.397224 0.847598 0.245911
H66   H     H_    0.543153 0.417080 0.722080 0.220360
H67   H     H_    0.582329 0.457402 0.759011 0.201065
H68   H     H_    0.430349 0.518447 0.138609 0.158459
H69   H     H_    0.399421 0.444092 0.111423 0.260698
H70   H     H_    0.438284 0.403308 0.147199 0.258810
H71   H     H_    0.393687 0.397896 0.153051 0.248225
H72   H     H_    0.457052 0.416804 0.278240 0.219002
H73   H     H_    0.418247 0.457230 0.242912 0.195670
H74   H     H_    0.807232 0.998054 0.158585 0.262084
H75   H     H_    0.851437 0.968479 0.231118 0.249427
H76   H     H_    0.819209 0.947651 0.137386 0.243374
H77   H     H_    0.810441 0.922075 0.248862 0.204865
H78   H     H_    0.767543 0.925916 0.152845 0.195065
H79   H     H_    0.708851 0.957887 0.131958 0.146012
H80   H     H_    0.155707 0.974230 0.781552 0.260438
H81   H     H_    0.149027 0.929759 0.721660 0.270684
H82   H     H_    0.161065 0.921782 0.814669 0.243639
H83   H     H_    0.222792 0.910955 0.810152 0.204434
H84   H     H_    0.229282 0.951229 0.873461 0.204442
H85   H     H_    0.305975 0.497991 0.156095 0.261859
H86   H     H_    0.350826 0.469505 0.229818 0.249564
H87   H     H_    0.319002 0.447604 0.136766 0.243375
H88   H     H_    0.310437 0.422129 0.248015 0.205302
H89   H     H_    0.267239 0.425982 0.152224 0.195118
H90   H     H_    0.292206 0.954382 0.868442 0.147616
H91   H     H_    0.655240 0.475785 0.781740 0.260396
H92   H     H_    0.649558 0.430417 0.724309 0.270789
H93   H     H_    0.661155 0.423861 0.817349 0.244354
H94   H     H_    0.723494 0.412782 0.815405 0.204690
H95   H     H_    0.729033 0.454506 0.875548 0.204580
H96   H     H_    0.208738 0.457713 0.132051 0.145719
H97   H     H_    0.020517 0.931527 0.231369 0.141151
H98   H     H_    0.792291 0.456047 0.870649 0.147998
H99   H     H_    0.711240 0.044680 0.285609 0.160560
H100  H     H_    0.288064 0.042352 0.714937 0.160312
H101  H     H_    0.211219 0.544649 0.285532 0.160887
H102  H     H_    0.787965 0.540804 0.712836 0.160421
H103  H     H_    0.753363 0.101976 0.359409 0.260735
H104  H     H_    0.752872 0.059912 0.416322 0.259944
H105  H     H_    0.794667 0.097357 0.457659 0.254286
H106  H     H_    0.817588 0.030983 0.434432 0.208742
H107  H     H_    0.818630 0.072813 0.379415 0.214382
H108  H     H_    0.480812 0.431104 0.770391 0.140500
H109  H     H_    0.246719 0.100345 0.644520 0.260444
H110  H     H_    0.245493 0.058890 0.585070 0.259990
H111  H     H_    0.204422 0.096827 0.546798 0.254097
H112  H     H_    0.181162 0.030218 0.569266 0.209851
H113  H     H_    0.181623 0.071588 0.626395 0.213809
H114  H     H_    0.252688 0.600969 0.360934 0.260392
H115  H     H_    0.253452 0.558205 0.418019 0.260952
H116  H     H_    0.294590 0.596455 0.458732 0.254289
H117  H     H_    0.318303 0.531164 0.434312 0.209152
H118  H     H_    0.317888 0.573434 0.378499 0.214347
H119  H     H_    0.519084 0.431160 0.229826 0.140792
H120  H     H_    0.746475 0.598073 0.639464 0.260471
H121  H     H_    0.745351 0.555425 0.582093 0.259985
H122  H     H_    0.704186 0.593294 0.541956 0.254124
H123  H     H_    0.681124 0.527591 0.567732 0.209824
H124  H     H_    0.681418 0.570147 0.622656 0.213776
H125  H     H_    0.441314 0.249245 0.105606 0.259856
H126  H     H_    0.398751 0.249089 0.006043 0.260855
H127  H     H_    0.403103 0.208175 0.067702 0.256632
H128  H     H_    0.426352 0.183126 0.988296 0.212167
H129  H     H_    0.468427 0.183416 0.086400 0.215032
H130  H     H_    0.956397 0.789935 0.031108 0.159928
H131  H     H_    0.557691 0.249819 0.892927 0.259902
H132  H     H_    0.600706 0.249928 0.992176 0.260719
H133  H     H_    0.596009 0.209023 0.930357 0.256748
H134  H     H_    0.573631 0.183863 0.011392 0.212126
H135  H     H_    0.531312 0.183623 0.913472 0.215185
H136  H     H_    0.941434 0.749241 0.105892 0.259749
H137  H     H_    0.898810 0.749091 0.006329 0.260810
H138  H     H_    0.903206 0.708176 0.068039 0.256569
H139  H     H_    0.926378 0.683129 0.988470 0.212164
H140  H     H_    0.968507 0.683411 0.086577 0.214972
H141  H     H_    0.043399 0.790330 0.968656 0.159906
H142  H     H_    0.057595 0.749821 0.892695 0.259829
H143  H     H_    0.100660 0.749925 0.991947 0.260627
H144  H     H_    0.095923 0.709025 0.930068 0.256609
H145  H     H_    0.073608 0.683860 0.011228 0.212028
H146  H     H_    0.031234 0.683623 0.913305 0.215093
H147  H     H_    0.920426 0.141028 0.875556 0.254269
H148  H     H_    0.904717 0.179440 0.918836 0.258100
H149  H     H_    0.874904 0.172778 0.817466 0.235933
H150  H     H_    0.911737 0.229897 0.819328 0.192604
H151  H     H_    0.950422 0.191246 0.837599 0.192207
H152  H     H_    0.456340 0.289934 0.030939 0.159879
H153  H     H_    0.010583 0.176168 0.149374 0.259838
H154  H     H_    0.048930 0.142193 0.150850 0.250034
H155  H     H_    0.062824 0.171498 0.232976 0.244998
H156  H     H_    0.084971 0.197288 0.137607 0.196331
H157  H     H_    0.074232 0.232740 0.189815 0.193600
H158  H     H_    0.485636 0.667987 0.856839 0.261074
H159  H     H_    0.443763 0.641146 0.857000 0.258114
H160  H     H_    0.433509 0.665171 0.773125 0.244647
H161  H     H_    0.410855 0.704169 0.855295 0.199513
H162  H     H_    0.431708 0.731822 0.810717 0.198772
H163  H     H_    0.543440 0.290328 0.968797 0.160018
H164  H     H_    0.521243 0.661640 0.146137 0.258802
H165  H     H_    0.564484 0.642595 0.140692 0.264756
H166  H     H_    0.574044 0.661392 0.227526 0.245431
H167  H     H_    0.593032 0.712195 0.156440 0.201645
H168  H     H_    0.563020 0.731067 0.191110 0.201643
H169  H     H_    0.902271 0.936702 0.679452 0.258086
H170  H     H_    0.880906 0.988811 0.659179 0.262526
H171  H     H_    0.860814 0.950853 0.584764 0.248268
H172  H     H_    0.907973 0.001088 0.577330 0.194721
H173  H     H_    0.927551 0.948872 0.595404 0.215526
H174  H     H_    0.453439 0.790216 0.883680 0.142724
H175  H     H_    0.100625 0.942910 0.321979 0.258990
H176  H     H_    0.120848 0.995593 0.345737 0.262026
H177  H     H_    0.140828 0.956405 0.417980 0.248326
H178  H     H_    0.091270 0.004318 0.423391 0.194095
H179  H     H_    0.074197 0.951141 0.405904 0.214736
H180  H     H_    0.400771 0.437751 0.676883 0.257931
H181  H     H_    0.381028 0.490508 0.659236 0.262817
H182  H     H_    0.359818 0.453634 0.582956 0.248026
H183  H     H_    0.408266 0.502325 0.577117 0.195124
H184  H     H_    0.426917 0.449783 0.594549 0.215036
O1    O     O_R   0.939010 0.034440 0.439030 -0.618420
O2    O     O_R   0.439000 0.999980 0.991570 -0.616025
O3    O     O_R   0.061000 0.499980 0.008430 -0.615678
O4    O     O_R   0.939000 0.499980 0.991570 -0.616082
O5    O     O_R   0.500000 0.061040 0.052440 -0.617765
O6    O     O_R   0.500000 0.061040 0.947560 -0.617791
O7    O     O_R   0.000000 0.561040 0.052440 -0.617761
O8    O     O_R   0.000000 0.561040 0.947560 -0.617781
O9    O     O_R   0.939030 0.965580 0.439000 -0.618707
O10   O     O_R   0.060970 0.965580 0.561000 -0.618658
O11   O     O_R   0.439030 0.465580 0.439000 -0.618626
O12   O     O_R   0.060990 0.034440 0.560970 -0.618991
O13   O     O_R   0.560970 0.465580 0.561000 -0.618660
O14   O     O_R   0.000010 0.034440 0.593030 -0.634211
O15   O     O_R   0.999990 0.034440 0.406970 -0.633603
O16   O     O_R   0.500010 0.534440 0.593030 -0.634146
O17   O     O_R   0.499990 0.534440 0.406970 -0.633658
O18   O     O_R   0.000020 0.965580 0.593000 -0.630783
O19   O     O_R   0.999980 0.965580 0.407000 -0.630817
O20   O     O_R   0.500020 0.465580 0.593000 -0.630817
O21   O     O_R   0.499980 0.465580 0.407000 -0.630892
O22   O     O_R   0.034440 0.939060 0.034360 -0.616181
O23   O     O_R   0.439010 0.534440 0.439030 -0.618344
O24   O     O_R   0.965560 0.939060 0.965640 -0.616032
O25   O     O_R   0.534440 0.439060 0.034360 -0.616186
O26   O     O_R   0.465560 0.439060 0.965640 -0.616181
O27   O     O_R   0.034440 0.000050 0.941370 -0.622547
O28   O     O_R   0.965560 0.000050 0.058630 -0.621841
O29   O     O_R   0.534440 0.500050 0.941370 -0.622211
O30   O     O_R   0.465560 0.500050 0.058630 -0.622349
O31   O     O_R   0.965570 0.000070 0.872530 -0.637552
O32   O     O_R   0.034430 0.000070 0.127470 -0.636090
O33   O     O_R   0.465570 0.500070 0.872530 -0.636894
O34   O     O_R   0.560990 0.534440 0.560970 -0.618990
O35   O     O_R   0.534430 0.500070 0.127470 -0.636695
O36   O     O_R   0.034450 0.061050 0.034440 -0.620860
O37   O     O_R   0.965550 0.061050 0.965560 -0.623300
O38   O     O_R   0.534450 0.561050 0.034440 -0.621689
O39   O     O_R   0.465550 0.561050 0.965560 -0.621890
O40   O     O_R   0.500030 0.939050 0.052570 -0.616025
O41   O     O_R   0.499970 0.939050 0.947430 -0.615691
O42   O     O_R   0.000030 0.439050 0.052570 -0.615117
O43   O     O_R   0.999970 0.439050 0.947430 -0.615590
O44   O     O_R   0.561000 0.000050 0.113470 -0.616889
O45   O     O_R   0.439000 0.000050 0.886530 -0.616723
O46   O     O_R   0.061000 0.500050 0.113470 -0.616210
O47   O     O_R   0.939000 0.500050 0.886530 -0.616830
O48   O     O_R   0.561000 0.999980 0.008430 -0.615733
Zn1   Zn    Zn3+2 0.000000 0.045990 0.500000 0.924597
Zn2   Zn    Zn3+2 0.499980 0.000060 0.929880 0.961448
Zn3   Zn    Zn3+2 0.000020 0.500060 0.070120 0.961394
Zn4   Zn    Zn3+2 0.999980 0.500060 0.929880 0.961123
Zn5   Zn    Zn3+2 0.500000 0.545990 0.500000 0.924892
Zn6   Zn    Zn3+2 0.000000 0.954030 0.500000 0.929059
Zn7   Zn    Zn3+2 0.500000 0.454030 0.500000 0.929098
Zn8   Zn    Zn3+2 0.045990 0.000050 0.045940 0.939054
Zn9   Zn    Zn3+2 0.954010 0.000050 0.954060 0.937560
Zn10  Zn    Zn3+2 0.545990 0.500050 0.045940 0.938744
Zn11  Zn    Zn3+2 0.454010 0.500050 0.954060 0.938754
Zn12  Zn    Zn3+2 0.500020 0.000060 0.070120 0.960679

loop_
_geom_bond_atom_site_label_1
_geom_bond_atom_site_label_2
_ccdc_geom_bond_type
C88   H30   S    
C21   C26   S    
C105  H78   S    
C186  C193  T    
C48   H118  S    
C74   H183  S    
C166  C193  S    
C60   H143  S    
C136  C140  T    
C197  H24   S    
C62   H147  S    
C46   C129  S    
C74   C181  S    
C171  C173  A    
C12   C23   S    
C144  O21   A    
C141  O18   A    
C188  C191  T    
C175  C183  A    
C124  O23   A    
C37   H57   S    
C84   H21   S    
C196  C199  A    
C177  H152  S    
C40   C98   S    
C1    C137  S    
C128  C145  T    
C34   H35   S    
C29   C33   S    
C105  C123  S    
C120  C133  S    
C194  H174  S    
C21   C152  S    
C197  C199  A    
C104  H69   S    
O16   Zn5   S    
C142  O19   A    
C24   C127  A    
C61   H151  S    
O23   Zn5   S    
C90   C116  A    
C49   H115  S    
C195  C198  A    
C83   H23   S    
C153  O32   A    
C26   C178  S    
C59   C60   S    
C111  H94   S    
C28   C83   S    
C54   C169  S    
C43   H107  S    
C156  O37   A    
C59   C171  S    
C14   C182  S    
C76   H6    S    
C45   C47   S    
C10   C21   S    
C25   C29   S    
C165  O5    A    
C27   C31   S    
C8    C19   T    
C163  O3    A    
C40   C157  S    
C28   C32   S    
C85   H29   S    
C27   C180  S    
C120  C125  A    
O24   Zn9   S    
O9    Zn6   S    
C99   H58   S    
C132  C137  T    
C23   C37   S    
C50   H124  S    
C44   H105  S    
C68   C131  S    
C43   C44   S    
C77   H5    S    
C12   C181  S    
C110  H86   S    
C36   C40   S    
O39   Zn11  S    
C91   H37   S    
O12   Zn1   S    
C41   C100  S    
C85   H28   S    
C107  C125  S    
C31   C157  S    
O19   Zn6   S    
C88   H32   S    
C35   C190  A    
C22   C27   S    
O35   Zn10  S    
O43   Zn4   S    
C131  C149  T    
C77   H4    S    
C78   H12   S    
O41   Zn2   S    
C185  C192  T    
C80   H10   S    
C105  C106  S    
C90   H100  S    
C176  C184  A    
C13   H96   S    
C142  O15   A    
C69   H165  S    
C106  H75   S    
C72   C73   S    
C147  C162  S    
C119  C123  A    
C177  C184  A    
C22   C36   S    
O8    Zn4   S    
C114  H92   S    
C33   C38   S    
C87   H33   S    
C44   H103  S    
C93   H42   S    
C64   H154  S    
C104  H71   S    
O7    Zn3   S    
C73   H176  S    
C32   C92   S    
C145  C161  S    
C12   H108  S    
C169  C176  A    
C56   H140  S    
C129  C147  T    
C82   H15   S    
C66   H160  S    
C154  O29   A    
C98   C99   S    
C20   C160  S    
O21   Zn7   S    
C31   C36   S    
C67   C69   S    
C30   C87   S    
O32   Zn8   S    
C175  H130  S    
C5    C194  A    
C59   H146  S    
C166  O8    A    
C124  C139  S    
C8    C198  S    
C107  H84   S    
C152  O27   A    
C3    C6    A    
C42   C103  S    
C85   C86   S    
C158  O38   A    
C26   C78   S    
C100  H66   S    
C47   H110  S    
C72   H179  S    
O2    Zn12  S    
O14   Zn1   S    
C13   C57   A    
C165  C192  S    
C146  C178  S    
C118  C122  A    
C122  C127  A    
C98   H62   S    
C84   H20   S    
C95   H47   S    
C69   H164  S    
C113  H102  S    
C96   H56   S    
C107  C108  S    
C89   C91   S    
C29   C85   S    
O15   Zn1   S    
C53   H125  S    
C141  O14   A    
C96   C97   S    
C86   H27   S    
C89   H40   S    
C94   C95   S    
C4    C7    A    
C14   H119  S    
C94   H50   S    
C160  O43   A    
C11   H97   S    
C176  H163  S    
C111  H95   S    
C29   C182  S    
C30   C34   S    
C34   C39   S    
C57   C130  S    
O29   Zn10  S    
C156  O36   A    
C79   H99   S    
C134  C139  T    
O27   Zn8   S    
C23   C28   S    
C163  O46   A    
O37   Zn9   S    
C116  C120  A    
C54   H134  S    
O36   Zn8   S    
C25   C38   S    
C66   H158  S    
C83   C84   S    
C99   H59   S    
C172  C185  S    
C63   H157  S    
C174  H141  S    
C81   H17   S    
C149  C164  S    
C32   C37   S    
C123  C190  A    
C45   H113  S    
C114  H93   S    
C80   H8    S    
C26   C30   S    
C115  C119  A    
C58   H138  S    
C55   H133  S    
C72   C180  S    
C70   H173  S    
O11   Zn7   S    
C52   C53   S    
C162  O2    A    
C97   H53   S    
C151  O26   A    
C54   C55   S    
C56   C170  S    
C50   C118  S    
C74   H184  S    
C45   H112  S    
C62   H148  S    
C48   C117  S    
C57   C101  A    
C151  O25   A    
C1    O1    A    
C75   H182  S    
O47   Zn4   S    
C93   H41   S    
C155  O30   A    
C45   C116  S    
C194  C198  A    
O44   Zn12  S    
C35   C79   A    
C56   C58   S    
C158  O39   A    
C37   C41   S    
C61   C62   S    
C104  H70   S    
O4    Zn3   S    
C63   C64   S    
C2    C125  A    
C109  C126  S    
C71   H170  S    
C86   H25   S    
C60   H142  S    
C102  H63   S    
O46   Zn3   S    
C49   H114  S    
C9    C199  S    
C22   C153  S    
C87   C88   S    
C63   H156  S    
C52   H128  S    
C33   C179  S    
O30   Zn11  S    
C71   H171  S    
C109  H89   S    
O28   Zn9   S    
C159  O40   A    
C55   H132  S    
C112  C138  S    
C79   C115  A    
C52   C167  S    
C135  O34   A    
C150  O24   A    
C53   H127  S    
C41   C168  S    
O17   Zn5   S    
C65   H162  S    
C105  H77   S    
C63   C200  S    
C47   H111  S    
O5    Zn12  S    
C72   H178  S    
C109  H88   S    
C51   H120  S    
C31   C89   S    
C102  H65   S    
C70   C71   S    
C121  C134  S    
C68   C113  A    
C179  C182  S    
O48   Zn2   S    
C133  C138  T    
C33   C94   S    
C48   H117  S    
C77   H3    S    
C170  C175  A    
C135  C140  S    
C171  C174  A    
C190  H79   S    
C67   H168  S    
C106  H76   S    
C103  H73   S    
O34   Zn5   S    
C93   H43   S    
C5    C7    A    
C160  O42   A    
O22   Zn8   S    
C21   C34   S    
C44   H104  S    
C10   C39   S    
C157  C180  S    
C197  C200  A    
C12   C41   S    
C73   H175  S    
C183  C187  S    
C154  O33   A    
C135  O13   A    
C42   C179  S    
C67   H167  S    
C50   C51   S    
C60   H144  S    
C49   H116  S    
C141  C146  S    
C82   H16   S    
C13   C126  A    
C48   C49   S    
C167  C177  A    
C142  C157  S    
C143  O16   A    
C71   H169  S    
C164  O47   A    
C59   H145  S    
C15   C17   T    
C165  O6    A    
O38   Zn10  S    
C161  O44   A    
C107  H83   S    
C110  H87   S    
C174  C183  A    
C92   H45   S    
C150  O22   A    
C167  C172  A    
C46   C90   A    
C50   H123  S    
C3    C196  A    
O42   Zn3   S    
C47   H109  S    
C101  C117  A    
O31   Zn9   S    
C109  C110  S    
C150  C189  S    
C6    C200  A    
C2    H90   S    
C110  H85   S    
C91   H38   S    
C92   C93   S    
C111  C114  S    
C78   C80   S    
C164  O4    A    
C14   C25   S    
C35   C128  S    
O10   Zn6   S    
C10   H1    S    
C24   C68   A    
C75   H180  S    
C52   H129  S    
C112  O10   A    
C88   H31   S    
C23   C154  S    
C103  C104  S    
C11   C180  S    
C155  O35   A    
C17   C156  S    
C78   H11   S    
C80   H9    S    
C170  C173  A    
C4    C195  A    
O40   Zn12  S    
C25   C155  S    
C36   H46   S    
C69   H166  S    
C89   H39   S    
C106  H74   S    
C94   H51   S    
C95   H49   S    
C81   C82   S    
C195  H2    S    
C2    C46   A    
C153  O28   A    
C114  H91   S    
C87   H34   S    
C18   C158  S    
C99   H60   S    
C64   H153  S    
C38   C42   S    
C73   H177  S    
O25   Zn10  S    
C53   H126  S    
C168  C181  S    
C1    O9    A    
C56   H139  S    
C54   H135  S    
C38   H68   S    
C117  C121  A    
C9    C20   T    
C43   C115  S    
C6    C15   S    
C82   H14   S    
C83   H22   S    
C66   H159  S    
C144  O17   A    
C43   H106  S    
C159  O41   A    
C101  H101  S    
C76   H7    S    
C14   C42   S    
C151  C191  S    
C166  O7    A    
C11   C40   S    
C76   C182  S    
C30   C146  S    
C97   H52   S    
C3    C61   S    
C143  C168  S    
C173  C186  S    
C74   C75   S    
O18   Zn6   S    
C130  C148  T    
C10   C178  S    
C27   C81   S    
C76   C77   S    
C5    C65   S    
C62   H149  S    
C162  O45   A    
C70   C178  S    
O1    Zn1   S    
C91   H36   S    
C184  C188  S    
O13   Zn7   S    
C28   C181  S    
C84   H19   S    
C95   H48   S    
C24   H98   S    
C112  O12   A    
C124  O11   A    
C144  C179  S    
C122  C136  S    
C19   C159  S    
C100  C102  S    
C119  C132  S    
O6    Zn2   S    
C39   C146  S    
C111  C127  S    
C86   H26   S    
C169  C172  A    
C102  H64   S    
C108  H82   S    
C51   H121  S    
C7    C16   S    
C61   H150  S    
C148  C163  S    
C64   H155  S    
C96   H55   S    
C4    C67   S    
O3    Zn4   S    
C100  H67   S    
O26   Zn11  S    
C11   C22   S    
C58   H136  S    
C55   H131  S    
C103  H72   S    
C32   C168  S    
C152  O31   A    
C121  C126  A    
O33   Zn11  S    
C196  H13   S    
C92   H44   S    
C98   H61   S    
O45   Zn2   S    
O20   Zn7   S    
C81   H18   S    
C65   H161  S    
C143  O20   A    
C39   C96   S    
C187  C189  T    
C108  H81   S    
C113  C118  A    
C16   C18   T    
C65   C66   S    
C58   H137  S    
C161  O48   A    
C70   H172  S    
C108  H80   S    
C51   H122  S    
C97   H54   S    
C75   H181  S    
