data_mof_unit_8250.cif
_audit_creation_date              2012-12-10T17:03:38-0500
_audit_creation_method            fapswitch 2.2
_symmetry_space_group_name_H-M    P1
_symmetry_Int_Tables_number       1
_space_group_crystal_system       triclinic
_cell_length_a                    10.055418
_cell_length_b                    10.683739
_cell_length_c                    13.09078
_cell_angle_alpha                 89.799727
_cell_angle_beta                  71.204511
_cell_angle_gamma                 88.968591
_cell_volume                      1331.12243561

loop_
_atom_site_label
_atom_site_type_symbol
_atom_type_description
_atom_site_fract_x
_atom_site_fract_y
_atom_site_fract_z
_atom_type_partial_charge
C1    C     C_R   0.500922 0.737348 0.494632 0.921872
C2    C     C_R   0.383880 0.566097 0.813427 -0.179038
C3    C     C_2   0.622439 0.064617 0.430674 0.032158
C4    C     C_R   0.424339 0.519431 0.701676 0.878789
C5    C     C_2   0.509324 0.130063 0.492705 -0.351607
C6    C     C_2   0.624481 0.930171 0.446304 -0.262099
C7    C     C_2   0.504394 0.867976 0.472888 -0.325114
C8    C     C_2   0.090137 0.405875 0.467376 -0.046548
C9    C     C_2   0.943343 0.409351 0.460512 -0.114733
C10   C     C_R   0.503050 0.262715 0.496078 0.991575
C11   C     C_R   0.576993 0.495848 0.295835 0.925043
C12   C     C_R   0.448868 0.579100 0.974705 0.030572
C13   C     C_R   0.800333 0.550297 0.009302 -0.193689
C14   C     C_R   0.622144 0.501787 0.178215 -0.128926
C15   C     C_R   0.242390 0.589143 0.874193 -0.224638
C16   C     C_R   0.206924 0.621866 0.983746 0.275129
C17   C     C_R   0.308420 0.607126 0.035142 -0.226416
C18   C     C_2   0.402526 0.410605 0.161185 0.407359
C19   C     C_3   0.029888 0.784678 0.004980 -0.809080
C20   C     C_2   0.745622 0.119167 0.347356 0.402160
C21   C     C_R   0.488330 0.586917 0.862430 0.095009
C22   C     C_R   0.553284 0.552643 0.022366 0.012527
C23   C     C_R   0.696077 0.571053 0.961869 0.157427
C24   C     C_R   0.732217 0.609006 0.854596 -0.251975
C25   C     C_R   0.629426 0.616386 0.804901 -0.164165
C26   C     C_R   0.520460 0.499955 0.125473 -0.066544
C27   C     C_R   0.763081 0.522873 0.118809 -0.172121
H1    H     H_    0.843915 0.517572 0.156872 0.187155
H2    H     H_    0.909597 0.558521 0.961800 0.174945
H3    H     H_    0.161323 0.585226 0.836380 0.153915
H4    H     H_    0.279779 0.626900 0.120531 0.184034
H5    H     H_    0.661274 0.649594 0.722621 0.170877
H6    H     H_    0.415807 0.318100 0.125023 0.062362
H7    H     H_    0.047190 0.665710 0.125652 0.229685
H8    H     H_    0.920698 0.810590 0.054434 0.249920
H9    H     H_    0.033218 0.776597 0.919627 0.241649
H10   H     H_    0.101200 0.859896 0.012373 0.248485
H11   H     H_    0.844682 0.067282 0.321565 0.045137
H12   H     H_    0.420855 0.085575 0.551232 0.125346
H13   H     H_    0.724585 0.882502 0.435362 0.168067
H14   H     H_    0.406411 0.912377 0.472636 0.155842
H15   H     H_    0.151498 0.320421 0.441599 0.169367
H16   H     H_    0.093287 0.581913 0.517363 0.151237
H17   H     H_    0.911594 0.330186 0.422760 0.179297
H18   H     H_    0.879572 0.570055 0.540153 0.149671
H19   H     H_    0.840155 0.629229 0.808329 0.135358
N1    N     N_2   0.148270 0.498670 0.498870 -0.185070
N2    N     N_2   0.852610 0.498640 0.498840 -0.198090
N3    N     N_2   0.069961 0.667049 0.042956 -0.326926
O1    O     O_R   0.386950 0.680940 0.500020 -0.627621
O2    O     O_2   0.736465 0.217858 0.302615 -0.585059
O3    O     O_R   0.613110 0.680900 0.499980 -0.628302
O4    O     O_R   0.330780 0.500000 0.653640 -0.614155
O5    O     O_R   0.556930 0.499960 0.653610 -0.618639
O6    O     O_R   0.386890 0.319100 0.500020 -0.625470
O7    O     O_R   0.613050 0.319060 0.499980 -0.578178
O8    O     O_R   0.443070 0.500040 0.346390 -0.561294
O9    O     O_R   0.669220 0.500000 0.346360 -0.591073
O10   O     O_2   0.290239 0.440011 0.227827 -0.574796
Zn1   Zn    Zn3+2 0.349000 0.500030 0.500020 0.964607
Zn2   Zn    Zn3+2 0.651000 0.499970 0.499980 0.954789

loop_
_geom_bond_atom_site_label_1
_geom_bond_atom_site_label_2
_ccdc_geom_bond_type
C12   C17   A    
C8    C9    S    
C2    C4    S    
C23   C24   A    
C6    C7    D    
C10   O6    A    
O5    Zn2   S    
C16   N3    S    
C14   C27   A    
C11   O9    A    
C10   O7    A    
C1    O1    A    
C19   N3    S    
C18   C26   S    
O3    Zn2   S    
C3    C6    S    
O1    Zn1   S    
C3    C5    D    
O9    Zn2   S    
C5    H12   S    
O8    Zn1   S    
C8    N1    D    
C24   H19   S    
C5    C10   S    
C19   H8    S    
O6    Zn1   S    
C14   C26   A    
C2    C15   A    
N2    Zn2   S    
C11   O8    A    
C2    C21   A    
C27   H1    S    
C13   H2    S    
C18   H6    S    
O4    Zn1   S    
C8    H15   S    
C20   O2    D    
C9    N2    D    
C19   H9    S    
C7    H14   S    
C17   H4    S    
C1    O3    A    
C6    H13   S    
C4    O4    A    
C15   C16   A    
C12   C22   A    
C18   O10   D    
C3    C20   S    
C20   H11   S    
C24   C25   A    
C13   C23   A    
C15   H3    S    
C22   C26   A    
H18   N2    S    
C11   C14   S    
C21   C25   A    
O7    Zn2   S    
C13   C27   A    
H7    N3    S    
C19   H10   S    
C4    O5    A    
N1    Zn1   S    
C1    C7    S    
H16   N1    S    
C12   C21   A    
C22   C23   A    
C16   C17   A    
C9    H17   S    
C25   H5    S    
