data_mof_unit_65940.cif
_audit_creation_date              2012-10-26T21:25:35-0400
_audit_creation_method            fapswitch 2.2
_symmetry_space_group_name_H-M    P1
_symmetry_Int_Tables_number       1
_space_group_crystal_system       triclinic
_cell_length_a                    16.004586
_cell_length_b                    14.756742
_cell_length_c                    14.368093
_cell_angle_alpha                 89.999974
_cell_angle_beta                  89.988953
_cell_angle_gamma                 90.0
_cell_volume                      3393.3921522

loop_
_atom_site_label
_atom_site_type_symbol
_atom_type_description
_atom_site_fract_x
_atom_site_fract_y
_atom_site_fract_z
_atom_type_partial_charge
C1    C     C_1   0.251666 0.500000 0.500025 -0.027096
C2    C     C_R   0.659222 0.500000 0.499974 0.549066
C3    C     C_R   0.499998 0.500000 0.330558 0.541490
C4    C     C_R   0.500001 0.500000 0.669442 0.541490
C5    C     C_1   0.500000 0.802740 0.500000 0.124170
C6    C     C_1   0.500000 0.197259 0.500000 0.124170
C7    C     C_1   0.499998 0.500000 0.228388 -0.036731
C8    C     C_1   0.500002 0.500000 0.771612 -0.036731
C9    C     C_1   0.499998 0.500000 0.143116 -0.037856
C10   C     C_1   0.500002 0.500000 0.856884 -0.037856
C11   C     C_1   0.499999 0.500000 0.042635 0.001945
C12   C     C_1   0.748334 0.500000 0.499975 -0.027097
C13   C     C_1   0.500001 0.500000 0.957365 0.001945
C14   C     C_R   0.558467 0.952090 0.553014 -0.109024
C15   C     C_R   0.441532 0.047910 0.446986 -0.109024
C16   C     C_R   0.441532 0.952090 0.446986 -0.109024
C17   C     C_R   0.558467 0.047910 0.553014 -0.109024
C18   C     C_R   0.956393 0.582246 0.499943 -0.104968
C19   C     C_R   0.043607 0.417754 0.500057 -0.104968
C20   C     C_R   0.043607 0.582246 0.499954 -0.104968
C21   C     C_R   0.956393 0.417754 0.500046 -0.104968
C22   C     C_R   0.912806 0.500000 0.499989 0.038567
C23   C     C_R   0.087194 0.500000 0.500011 0.038567
C24   C     C_1   0.823364 0.500000 0.499979 -0.057421
C25   C     C_1   0.176636 0.500000 0.500021 -0.057421
C26   C     C_R   0.500000 0.902870 0.500000 0.002794
C27   C     C_R   0.500000 0.097130 0.500000 0.002794
C28   C     C_R   0.340778 0.500000 0.500026 0.549066
Cu1   Cu    Cu3+1 0.500000 0.589220 0.500000 0.983165
Cu2   Cu    Cu3+1 0.500000 0.410780 0.500000 0.983165
H1    H     H_    0.604318 0.083624 0.594589 0.111622
H2    H     H_    0.395682 0.916375 0.405411 0.111622
H3    H     H_    0.395682 0.083624 0.405411 0.111623
H4    H     H_    0.604318 0.916375 0.594589 0.111623
H5    H     H_    0.076981 0.646131 0.499918 0.113476
H6    H     H_    0.923019 0.353869 0.500082 0.113476
H7    H     H_    0.923019 0.646131 0.499899 0.113476
H8    H     H_    0.076981 0.353869 0.500101 0.113476
N1    N     N_1   0.500000 0.276710 0.500000 -0.185656
N2    N     N_1   0.500000 0.723290 0.500000 -0.185656
O1    O     O_R   0.380310 0.575320 0.500020 -0.484754
O2    O     O_R   0.619690 0.424680 0.499980 -0.484754
O3    O     O_R   0.619690 0.575320 0.499980 -0.484754
O4    O     O_R   0.380310 0.424680 0.500020 -0.484754
O5    O     O_R   0.500000 0.575360 0.376050 -0.474571
O6    O     O_R   0.500000 0.424640 0.623950 -0.474571
O7    O     O_R   0.500000 0.575360 0.623950 -0.474570
O8    O     O_R   0.500000 0.424640 0.376050 -0.474570

loop_
_geom_bond_atom_site_label_1
_geom_bond_atom_site_label_2
_ccdc_geom_bond_type
C14   H4    S    
C1    C28   S    
C19   C23   A    
C10   C13   S    
Cu1   Cu2   S    
C19   H8    S    
C16   H2    S    
C9    C11   S    
C3    O8    A    
C15   C27   A    
C6    C27   S    
C20   C23   A    
C2    O3    A    
C4    C8    S    
C2    C12   S    
C28   O4    A    
C3    O5    A    
C21   H6    S    
C4    O6    A    
C21   C22   A    
C14   C26   A    
C1    C25   T    
C11   C13   T    
C14   C17   A    
Cu2   O4    S    
C2    O2    A    
Cu1   N2    S    
Cu2   O8    S    
C19   C21   A    
C18   H7    S    
Cu1   O7    S    
Cu2   N1    S    
C3    C7    S    
C23   C25   S    
C16   C26   A    
C17   H1    S    
C22   C24   S    
C15   C16   A    
C17   C27   A    
C28   O1    A    
C18   C20   A    
C8    C10   T    
C5    N2    T    
C7    C9    T    
C12   C24   T    
C6    N1    T    
Cu2   O2    S    
Cu1   O1    S    
C18   C22   A    
C20   H5    S    
Cu2   O6    S    
Cu1   O3    S    
C5    C26   S    
Cu1   O5    S    
C15   H3    S    
C4    O7    A    
