data_mof_unit_63758.cif
_audit_creation_date              2012-10-26T17:25:10-0400
_audit_creation_method            fapswitch 2.2
_symmetry_space_group_name_H-M    P1
_symmetry_Int_Tables_number       1
_space_group_crystal_system       triclinic
_cell_length_a                    21.407368
_cell_length_b                    25.055401
_cell_length_c                    25.027526
_cell_angle_alpha                 100.471569
_cell_angle_beta                  115.196518
_cell_angle_gamma                 64.767104
_cell_volume                      10987.7477884

loop_
_atom_site_label
_atom_site_type_symbol
_atom_type_description
_atom_site_fract_x
_atom_site_fract_y
_atom_site_fract_z
_atom_type_partial_charge
C1    C     C_R   0.999977 0.919901 0.419843 0.548674
C2    C     C_3   0.080483 0.696035 0.255260 -0.215326
C3    C     C_3   0.999719 0.708872 0.208401 0.054143
C4    C     C_R   0.879408 0.999915 0.500021 0.560287
C5    C     C_3   0.950084 0.711358 0.240084 -0.213768
C6    C     C_3   0.950126 0.759817 0.288594 -0.214028
C7    C     C_1   0.999706 0.662776 0.162302 -0.057825
C8    C     C_1   0.999845 0.837440 0.337139 -0.069217
C9    C     C_1   0.999907 0.875085 0.374895 -0.024063
C10   C     C_3   0.196594 0.055292 0.489600 -0.116912
C11   C     C_3   0.235139 0.018642 0.447221 -0.106642
C12   C     C_3   0.756368 0.001817 0.556126 -0.111945
C13   C     C_3   0.310866 0.000261 0.500121 0.044200
C14   C     C_3   0.273366 0.036928 0.542494 -0.122935
C15   C     C_3   0.264737 0.981977 0.553041 -0.123704
C16   C     C_R   0.000051 0.080086 0.580135 0.559321
C17   C     C_3   0.303235 0.945346 0.510680 -0.118979
C18   C     C_3   0.226347 0.963722 0.457763 -0.113345
C19   C     C_3   0.188950 0.000345 0.500137 0.040129
C20   C     C_3   0.955693 0.206333 0.746606 0.176380
C21   C     C_3   0.959717 0.270862 0.680798 -0.201146
C22   C     C_3   0.957747 0.319352 0.729174 -0.215473
C23   C     C_3   0.759204 0.049197 0.526235 -0.105000
C24   C     C_1   0.999824 0.375251 0.875111 -0.004698
C25   C     C_3   0.996896 0.208769 0.708716 0.037958
C26   C     C_3   0.956951 0.255225 0.795123 -0.174130
C27   C     C_3   0.998536 0.291299 0.791503 0.010083
C28   C     C_R   0.120612 0.000163 0.500095 0.549234
C29   C     C_3   0.079626 0.248405 0.799459 -0.232321
C30   C     C_3   0.078721 0.199524 0.751438 -0.271058
C31   C     C_1   0.999412 0.337491 0.837487 -0.057996
C32   C     C_1   0.998359 0.162595 0.662675 -0.008196
C33   C     C_1   0.999423 0.124890 0.625015 0.022663
C34   C     C_3   0.811170 0.999695 0.500134 0.038455
C35   C     C_R   0.419967 0.080074 0.419902 0.560801
C36   C     C_R   0.620828 0.999804 0.500137 0.552788
C37   C     C_R   0.580158 0.919847 0.580184 0.549140
C38   C     C_R   0.379342 0.000042 0.500046 0.558416
C39   C     C_R   0.079805 0.420116 0.079820 0.542853
C40   C     C_3   0.744174 0.997452 0.444188 -0.117958
C41   C     C_R   0.999833 0.580107 0.079799 0.555348
C42   C     C_R   0.919983 0.580086 0.919993 0.558625
C43   C     C_R   0.999876 0.420174 0.919928 0.547474
C44   C     C_3   0.211821 0.248870 0.296459 0.125822
C45   C     C_3   0.080524 0.744494 0.303768 -0.213617
C46   C     C_3   0.272608 0.180005 0.227704 0.128919
C47   C     C_3   0.222888 0.229066 0.179611 -0.179814
C48   C     C_1   0.124424 0.375192 0.124654 -0.009945
C49   C     C_3   0.288256 0.208113 0.290625 0.047127
C50   C     C_3   0.164451 0.297489 0.247654 -0.196100
C51   C     C_3   0.206819 0.291219 0.208277 -0.015450
C52   C     C_3   0.691059 0.046984 0.470313 -0.112624
C53   C     C_3   0.282753 0.296206 0.248062 -0.231797
C54   C     C_3   0.329578 0.248692 0.297350 -0.253319
C55   C     C_1   0.161603 0.337439 0.162287 -0.061333
C56   C     C_3   0.968669 0.818769 0.229498 -0.213712
C57   C     C_1   0.335626 0.162337 0.337140 0.054415
C58   C     C_1   0.374414 0.124834 0.374989 0.058352
C59   C     C_3   0.774287 0.808240 0.757460 -0.164719
C60   C     C_3   0.745300 0.731625 0.683055 -0.212978
C61   C     C_3   0.793020 0.683018 0.731490 0.066641
C62   C     C_1   0.875378 0.625248 0.875611 0.088599
C63   C     C_3   0.709699 0.792263 0.709531 -0.079605
C64   C     C_3   0.689337 0.999629 0.500166 0.039567
C65   C     C_3   0.821690 0.762604 0.809327 0.446563
C66   C     C_3   0.792569 0.710439 0.793277 0.057028
C67   C     C_3   0.968626 0.770306 0.180984 -0.207001
C68   C     C_3   0.707490 0.735063 0.783042 0.081463
C69   C     C_3   0.661353 0.787623 0.739089 -0.203254
C70   C     C_1   0.838053 0.663467 0.838558 0.115331
C71   C     C_1   0.663137 0.837781 0.662984 -0.058965
C72   C     C_1   0.625181 0.875163 0.625082 -0.007990
C73   C     C_3   0.741366 0.950123 0.474045 -0.123947
C74   C     C_3   0.809402 0.952338 0.530036 -0.122713
C75   C     C_1   0.999745 0.625044 0.124631 -0.002403
C76   C     C_3   0.999789 0.791384 0.290999 0.058755
Cl1   Cl    Cl    0.357643 0.132950 0.217410 -0.617459
Cl2   Cl    Cl    0.918911 0.734667 0.820122 -0.439422
Cl3   Cl    Cl    0.883771 0.639442 0.729522 -0.528464
Cl4   Cl    Cl    0.687434 0.751605 0.848198 -0.508358
Cu1   Cu    Cu3+1 0.041320 0.958650 0.541310 0.970986
Cu2   Cu    Cu3+1 0.958680 0.041350 0.458690 0.980800
Cu3   Cu    Cu3+1 0.500040 0.041270 0.541360 0.977182
Cu4   Cu    Cu3+1 0.500060 0.958620 0.458750 0.983096
Cu5   Cu    Cu3+1 0.062630 0.500130 0.999860 1.020473
Cu6   Cu    Cu3+1 0.937130 0.500110 0.999890 1.009489
H1    H     H_    0.641196 0.085716 0.445843 0.126103
H2    H     H_    0.891540 0.720809 0.207498 0.132111
H3    H     H_    0.224415 0.033684 0.403910 0.132265
H4    H     H_    0.740503 0.995652 0.398339 0.130116
H5    H     H_    0.151672 0.100359 0.480977 0.136685
H6    H     H_    0.293683 0.066967 0.577291 0.134583
H7    H     H_    0.275718 0.966991 0.596456 0.131674
H8    H     H_    0.348264 0.900327 0.519321 0.120496
H9    H     H_    0.205682 0.933752 0.423077 0.116678
H10   H     H_    0.899129 0.285714 0.790870 0.188533
H11   H     H_    0.992180 0.273316 0.657094 0.113932
H12   H     H_    0.003508 0.841558 0.229814 0.130132
H13   H     H_    0.902171 0.279188 0.647178 0.192406
H14   H     H_    0.898406 0.348658 0.721552 0.158016
H15   H     H_    0.733009 0.909449 0.452680 0.133603
H16   H     H_    0.984904 0.347179 0.725850 0.134192
H17   H     H_    0.107902 0.155532 0.773027 0.123152
H18   H     H_    0.110708 0.200144 0.726405 0.132543
H19   H     H_    0.110240 0.227737 0.844001 0.133127
H20   H     H_    0.987421 0.162766 0.769270 0.124277
H21   H     H_    0.985526 0.234271 0.839421 0.107551
H22   H     H_    0.110564 0.273170 0.796464 0.142054
H23   H     H_    0.003442 0.769931 0.158108 0.140806
H24   H     H_    0.109008 0.295355 0.219340 0.190146
H25   H     H_    0.859012 0.913478 0.554514 0.139174
H26   H     H_    0.243152 0.150801 0.221785 0.207382
H27   H     H_    0.169002 0.223908 0.152218 0.134763
H28   H     H_    0.250534 0.224608 0.149200 0.178200
H29   H     H_    0.339480 0.270827 0.341233 0.104124
H30   H     H_    0.385783 0.222379 0.295853 0.187615
H31   H     H_    0.272865 0.340845 0.268456 0.127032
H32   H     H_    0.224958 0.271379 0.340101 0.124499
H33   H     H_    0.152666 0.341764 0.268951 0.108799
H34   H     H_    0.910431 0.780862 0.147285 0.142670
H35   H     H_    0.315002 0.290539 0.220920 0.157840
H36   H     H_    0.760079 0.003594 0.601985 0.140038
H37   H     H_    0.810295 0.809869 0.736754 0.157710
H38   H     H_    0.700263 0.719483 0.647301 0.118270
H39   H     H_    0.780541 0.734859 0.662490 0.194422
H40   H     H_    0.766472 0.650407 0.719076 0.124081
H41   H     H_    0.640954 0.829651 0.762208 0.216248
H42   H     H_    0.610856 0.781248 0.704735 0.116250
H43   H     H_    0.750514 0.853868 0.773430 0.173884
H44   H     H_    0.767944 0.089738 0.547640 0.158173
H45   H     H_    0.971386 0.739448 0.332173 0.124496
H46   H     H_    0.685960 0.699799 0.762204 0.120300
H47   H     H_    0.117405 0.694266 0.233783 0.128386
H48   H     H_    0.117465 0.765889 0.305480 0.122848
H49   H     H_    0.910493 0.852491 0.218990 0.131353
H50   H     H_    0.778256 0.201864 0.726403 0.377572
H51   H     H_    0.172658 0.139119 0.344086 0.369509
H52   H     H_    0.735973 0.869239 0.907202 0.383614
H53   H     H_    0.891601 0.792432 0.279197 0.125203
H54   H     H_    0.971325 0.667825 0.260476 0.124053
H55   H     H_    0.104242 0.723835 0.347633 0.124267
H56   H     H_    0.104183 0.652213 0.275939 0.121492
O1    O     O_R   0.034890 0.904800 0.474600 -0.504869
O2    O     O_R   0.007210 0.439780 0.060160 -0.502404
O3    O     O_R   0.052870 0.560410 0.060140 -0.499144
O4    O     O_R   0.965100 0.974640 0.404830 -0.502327
O5    O     O_R   0.946890 0.560400 0.060170 -0.498776
O6    O     O_R   0.992540 0.560460 0.939590 -0.478931
O7    O     O_R   0.886560 0.560450 0.939620 -0.498564
O8    O     O_R   0.052860 0.439850 0.939580 -0.500671
O9    O     O_R   0.946880 0.439830 0.939610 -0.502216
O10   O     O_R   0.943320 0.965090 0.534890 -0.507262
O11   O     O_R   0.873530 0.034930 0.465120 -0.505849
O12   O     O_R   0.439770 0.025360 0.404880 -0.487513
O13   O     O_R   0.034900 0.025360 0.595170 -0.501159
O14   O     O_R   0.965110 0.095200 0.525400 -0.499328
O15   O     O_R   0.126470 0.965070 0.534880 -0.513410
O16   O     O_R   0.056680 0.034910 0.465110 -0.509306
O17   O     O_R   0.439750 0.095160 0.474640 -0.507063
O18   O     O_2   0.810056 0.270588 0.677273 -0.296527
O19   O     O_2   0.859068 0.164260 0.657300 -0.287593
O20   O     O_3   0.830061 0.198878 0.751266 -0.512445
O21   O     O_2   0.092528 0.254448 0.312289 -0.261398
O22   O     O_2   0.124866 0.186098 0.236098 -0.294295
O23   O     O_R   0.591620 0.034840 0.534930 -0.509066
O24   O     O_3   0.207996 0.155903 0.346189 -0.536883
O25   O     O_2   0.844837 0.758333 0.925179 -0.230703
O26   O     O_2   0.870045 0.833673 0.898056 -0.223193
O27   O     O_3   0.731821 0.851158 0.867842 -0.513310
O28   O     O_R   0.591640 0.965040 0.465170 -0.510373
O29   O     O_R   0.560340 0.974530 0.595230 -0.501112
O30   O     O_R   0.560360 0.904730 0.525470 -0.507916
O31   O     O_R   0.408470 0.034850 0.534940 -0.509785
O32   O     O_R   0.408490 0.965050 0.465180 -0.508748
O33   O     O_R   0.113190 0.439800 0.060140 -0.507352
S1    S     S_3+6 0.860969 0.210623 0.704738 -0.016476
S2    S     S_3+6 0.156420 0.210808 0.296276 -0.021696
S3    S     S_3+6 0.818823 0.801140 0.877767 0.082285

loop_
_geom_bond_atom_site_label_1
_geom_bond_atom_site_label_2
_ccdc_geom_bond_type
C44   C49   S    
C68   Cl4   S    
C48   C55   T    
C66   C68   S    
C11   C18   S    
C56   C76   S    
C12   C74   S    
C36   O28   A    
C47   H28   S    
C73   C74   S    
C36   C64   S    
Cu5   O6    S    
C56   H12   S    
C42   O6    A    
Cu6   O5    S    
C37   O30   A    
Cu1   Cu2   S    
C57   C58   T    
Cu6   O2    S    
H50   O20   S    
Cu5   Cu6   S    
C15   C19   S    
Cu3   O23   S    
C12   C23   S    
C26   C27   S    
C35   C58   S    
C34   C40   S    
C46   H26   S    
C60   H39   S    
Cu5   O3    S    
C3    C7    S    
C47   H27   S    
C5    C6    S    
Cu2   O16   S    
C53   H31   S    
C38   O32   A    
C27   C29   S    
C20   C25   S    
C49   C54   S    
C50   H24   S    
C49   C57   S    
C40   C73   S    
C62   C70   T    
C68   H46   S    
C18   C19   S    
C6    H53   S    
C60   H38   S    
C42   O7    A    
Cu5   O8    S    
C28   O15   A    
C5    H2    S    
Cu4   O12   S    
C61   C66   S    
C67   H23   S    
C63   C69   S    
C69   H42   S    
C8    C9    T    
C54   H30   S    
C30   H17   S    
C16   O14   A    
C64   C73   S    
C35   O12   A    
C29   H22   S    
C61   H40   S    
C67   H34   S    
C42   C62   S    
Cu2   O14   S    
C25   C32   S    
C73   H15   S    
C4    O11   A    
C13   C14   S    
H52   O27   S    
C26   H10   S    
C18   H9    S    
O18   S1    D    
C29   H19   S    
C1    O4    A    
Cu4   O32   S    
H51   O24   S    
Cu2   O4    S    
C37   O29   A    
C50   C51   S    
C20   H20   S    
C2    C45   S    
C59   H37   S    
C4    O10   A    
C4    C34   S    
C2    H47   S    
C22   H14   S    
C27   C31   S    
C50   H33   S    
C1    C9    S    
Cu1   O15   S    
C12   H36   S    
C39   O33   A    
C52   C64   S    
Cu6   O7    S    
C74   H25   S    
O19   S1    D    
C68   C69   S    
C38   O31   A    
C47   C51   S    
Cu4   O30   S    
C40   C52   S    
C23   H44   S    
Cu3   O29   S    
C60   C61   S    
C51   C53   S    
C26   H21   S    
O21   S2    D    
C29   C30   S    
C1    O1    A    
C16   C33   S    
C41   C75   S    
C21   H11   S    
C11   H3    S    
Cu3   Cu4   S    
C41   O5    A    
C44   H32   S    
C10   C19   S    
C23   C34   S    
C54   H29   S    
C16   O13   A    
C28   O16   A    
C17   C18   S    
C45   H48   S    
Cu3   O17   S    
O24   S2    S    
C6    C76   S    
C19   C28   S    
C14   H6    S    
C13   C38   S    
C43   O8    A    
C45   H55   S    
C34   C74   S    
C10   H5    S    
C22   C27   S    
Cu3   O31   S    
C8    C76   S    
C10   C14   S    
C2    H56   S    
C46   C49   S    
C56   C67   S    
O27   S3    S    
C56   H49   S    
C43   O9    A    
C5    H54   S    
C44   C50   S    
C25   C30   S    
C15   C17   S    
C12   C64   S    
C21   C25   S    
C46   C47   S    
C59   H43   S    
C65   Cl2   S    
C59   C63   S    
C52   H1    S    
C3    C67   S    
O20   S1    S    
C63   C71   S    
C6    H45   S    
C3    C5    S    
Cu1   O13   S    
C44   S2    S    
C15   H7    S    
C46   Cl1   S    
C7    C75   T    
Cu2   O11   S    
C53   C54   S    
Cu1   O10   S    
Cu4   O28   S    
C22   H16   S    
C13   C17   S    
C32   C33   T    
C2    C3    S    
C24   C31   T    
C71   C72   T    
C53   H35   S    
Cu6   O9    S    
C59   C65   S    
C11   C13   S    
C23   C52   S    
C66   C70   S    
C20   C26   S    
C61   Cl3   S    
C21   H13   S    
C45   C76   S    
C36   O23   A    
Cu5   O33   S    
C51   C55   S    
C35   O17   A    
C60   C63   S    
C10   C11   S    
Cu1   O1    S    
O25   S3    D    
C41   O3    A    
C39   O2    A    
C69   H41   S    
C65   C66   S    
C65   S3    S    
C37   C72   S    
C30   H18   S    
C24   C43   S    
C14   C15   S    
C17   H8    S    
C40   H4    S    
C21   C22   S    
O26   S3    D    
O22   S2    D    
C20   S1    S    
C39   C48   S    
