data_mof_unit_14171.cif
_audit_creation_date              2013-03-05T15:50:02-0500
_audit_creation_method            fapswitch 2.2
_symmetry_space_group_name_H-M    P1
_symmetry_Int_Tables_number       1
_space_group_crystal_system       triclinic
_cell_length_a                    8.189277
_cell_length_b                    12.692076
_cell_length_c                    17.350009
_cell_angle_alpha                 94.879985
_cell_angle_beta                  95.816476
_cell_angle_gamma                 97.933517
_cell_volume                      1767.88398062

loop_
_atom_site_label
_atom_site_type_symbol
_atom_site_description
_atom_site_fract_x
_atom_site_fract_y
_atom_site_fract_z
_atom_type_partial_charge
P1    P     P_3+3 0.990420 0.746550 0.559720 0.454129
O1    O     O_2   0.163080 0.763400 0.536930 -0.362607
O2    O     O_3   0.893330 0.628980 0.538660 -0.402547
O3    O     O_3   0.379830 0.697590 0.399610 -0.375192
O4    O     O_2   0.289461 0.882946 0.440989 -0.396971
O5    O     O_3   0.025208 0.775553 0.660998 -0.579084
O6    O     O_3   0.366985 0.857299 0.298399 -0.538037
H1    H     H_    0.339625 0.700347 0.249194 0.146599
C1    C     C_3   0.416614 0.810548 0.166383 -0.119528
H2    H     H_    0.477125 0.894601 0.167664 0.138929
P2    P     P_3+3 0.330880 0.415450 0.326700 0.479096
P3    P     P_3+3 0.919980 0.637153 0.260028 0.518235
O7    O     O_2   0.161570 0.447940 0.314920 -0.373502
O8    O     O_3   0.953630 0.643360 0.361440 -0.394909
O9    O     O_2   0.047031 0.572314 0.225922 -0.329317
O10   O     O_3   0.285275 0.277477 0.305324 -0.567416
O11   O     O_3   0.971430 0.765801 0.232293 -0.460606
C2    C     C_3   0.923191 0.841258 0.286390 0.468071
H3    H     H_    0.029605 0.871737 0.331141 0.135859
H4    H     H_    0.816870 0.808771 0.316498 0.015282
C3    C     C_3   0.872641 0.933718 0.243920 -0.989976
H5    H     H_    0.833893 0.994232 0.285621 0.226292
H6    H     H_    0.977927 0.971606 0.215374 0.299618
C4    C     C_3   0.774510 0.303606 0.295289 0.171998
H7    H     H_    0.642409 0.315154 0.286504 0.103922
H8    H     H_    0.850602 0.379322 0.322317 0.131139
C5    C     C_3   0.834837 0.272496 0.216787 -0.115827
H9    H     H_    0.797180 0.185343 0.199575 0.161612
H10   H     H_    0.972654 0.288048 0.222697 0.157460
Ba1   Ba    Ba6+2 0.158660 0.552610 0.463110 1.559372
C6    C     C_3   0.057038 0.684343 0.696082 0.404249
H11   H     H_    0.164804 0.654306 0.673406 0.100153
H12   H     H_    0.947744 0.620865 0.685201 0.129368
C7    C     C_3   0.094817 0.714592 0.783461 -0.921436
H13   H     H_    0.210554 0.773071 0.796220 0.275384
H14   H     H_    0.110563 0.642957 0.813993 0.222451
H15   H     H_    0.990763 0.750800 0.805894 0.271138
C8    C     C_3   0.260772 0.228519 0.373286 0.301280
H16   H     H_    0.141472 0.244889 0.392395 0.081578
H17   H     H_    0.361686 0.257093 0.420927 0.149105
C9    C     C_3   0.255843 0.108577 0.355652 -0.696266
H18   H     H_    0.132596 0.073388 0.325454 0.195744
H19   H     H_    0.276494 0.071861 0.410774 0.204385
P4    P     P_3+3 0.819870 0.253440 0.440220 0.464035
O12   O     O_2   0.647210 0.236530 0.463040 -0.374121
O13   O     O_3   0.916960 0.371010 0.461280 -0.391484
O14   O     O_3   0.430470 0.302400 0.600330 -0.374566
O15   O     O_3   0.785946 0.217151 0.339594 -0.603552
P5    P     P_3+3 0.883044 0.359283 0.740146 0.504890
O16   O     O_3   0.388290 0.554800 0.590630 -0.394800
O17   O     O_3   0.856660 0.356630 0.638500 -0.392871
O18   O     O_2   0.753714 0.423234 0.773195 -0.348854
O19   O     O_3   0.828617 0.229679 0.765597 -0.457587
Ba2   Ba    Ba6+2 0.651510 0.447380 0.536830 1.554944
P6    P     P_3+3 0.418951 0.834844 0.395512 0.446116
C10   C     C_3   0.420762 0.778068 0.249377 0.299354
H20   H     H_    0.550247 0.767841 0.268743 -0.029900
H21   H     H_    0.488095 0.759710 0.131568 0.067679
O20   O     O_3   0.422000 0.445190 0.409310 -0.399558
C11   C     C_3   0.565474 0.774978 0.644372 0.374227
H22   H     H_    0.695952 0.762842 0.640786 0.095978
H23   H     H_    0.488538 0.743193 0.588628 0.129817
C12   C     C_3   0.557573 0.893935 0.655790 -0.873913
H24   H     H_    0.618954 0.927599 0.714105 0.270384
H25   H     H_    0.620036 0.935267 0.610577 0.219992
H26   H     H_    0.426291 0.907511 0.651816 0.267143
P7    P     P_3+3 0.474041 0.588408 0.687403 0.442657
O21   O     O_2   0.648720 0.552000 0.685060 -0.364878
O22   O     O_3   0.507341 0.727442 0.708490 -0.560768
H27   H     H_    0.767667 0.903939 0.198406 0.256320
C13   C     C_3   0.878370 0.155290 0.711172 0.460811
H28   H     H_    0.771930 0.124243 0.666610 0.140943
H29   H     H_    0.983749 0.188903 0.680955 0.022063
C14   C     C_3   0.931842 0.063027 0.753017 -0.961540
H30   H     H_    0.954922 0.998292 0.710017 0.233445
H31   H     H_    0.047035 0.091327 0.792730 0.245095
H32   H     H_    0.834806 0.031060 0.788545 0.302014
P8    P     P_3+3 0.389228 0.164315 0.603858 0.445891
C15   C     C_3   0.383360 0.212586 0.750380 0.296018
H33   H     H_    0.252543 0.220198 0.731224 -0.026831
O23   O     O_2   0.513993 0.114097 0.556467 -0.400576
O24   O     O_3   0.442035 0.137303 0.699864 -0.520556
H34   H     H_    0.459963 0.292314 0.752130 0.149994
H35   H     H_    0.308940 0.220798 0.867053 0.088039
C16   C     C_3   0.389077 0.176338 0.832327 -0.115720
H36   H     H_    0.339179 0.089741 0.828582 0.143484
C17   C     C_R   0.076687 0.183969 0.531955 -0.528062
C18   C     C_R   0.729102 0.816437 0.471455 -0.511224
C19   C     C_R   0.697694 0.996498 0.443078 -0.219014
C20   C     C_R   0.633318 0.887780 0.439089 0.223393
C21   C     C_R   0.886222 0.851058 0.511612 0.272088
C22   C     C_R   0.951222 0.963157 0.518787 -0.063565
C23   C     C_R   0.855672 0.037119 0.483412 -0.059042
C24   C     C_R   0.920593 0.149384 0.490853 0.296675
C25   C     C_R   0.173464 0.112252 0.562825 0.212037
C26   C     C_R   0.109481 0.003548 0.558794 -0.207856
H37   H     H_    0.621244 0.048459 0.416074 0.175045
H38   H     H_    0.186011 0.951623 0.586032 0.181687
H39   H     H_    0.127479 0.267898 0.536537 0.174852
H40   H     H_    0.678017 0.732633 0.467636 0.176273
H41   H     H_    0.532976 0.571755 0.857200 0.158497
H42   H     H_    0.720845 0.601644 0.104014 0.175001
C27   C     C_R   0.606303 0.536182 0.278917 -0.533995
C28   C     C_R   0.446288 0.483391 0.255122 0.301809
C29   C     C_R   0.382431 0.474538 0.176230 -0.159481
C30   C     C_R   0.480067 0.518520 0.121388 0.057681
C31   C     C_R   0.642949 0.569582 0.145913 -0.182614
C32   C     C_R   0.706202 0.576871 0.224701 0.233878
C33   C     C_R   0.412309 0.526638 0.835986 -0.205938
C34   C     C_R   0.357313 0.515723 0.756147 0.283156
C35   C     C_R   0.094926 0.418660 0.780375 0.223195
C36   C     C_R   0.148757 0.428770 0.860502 -0.253840
C37   C     C_R   0.309028 0.481974 0.888471 0.043347
C38   C     C_1   0.366209 0.494593 0.970934 0.074016
C39   C     C_1   0.416963 0.505744 0.039594 0.105495
C40   C     C_R   0.201883 0.458514 0.728668 -0.518713
H43   H     H_    0.065989 0.396989 0.900584 0.192888
H44   H     H_    0.259076 0.431651 0.157498 0.174834
H45   H     H_    0.655921 0.541427 0.339565 0.180423
H46   H     H_    0.159788 0.451220 0.667010 0.170278
N1    N     N_R   0.766183 0.330383 0.155313 0.245620
O25   O     O_R   0.610708 0.304825 0.127678 -0.379916
O26   O     O_R   0.865297 0.390502 0.117542 -0.352582
N2    N     N_R   0.246785 0.799075 0.128800 0.299499
O27   O     O_R   0.182067 0.883308 0.111531 -0.339371
O28   O     O_R   0.167202 0.704520 0.103659 -0.349503
C41   C     C_1   0.383929 0.086382 0.305522 0.438290
N3    N     N_1   0.484637 0.070534 0.265571 -0.067731
N4    N     N_R   0.557921 0.195722 0.871789 0.306035
O29   O     O_R   0.631942 0.115724 0.890748 -0.329672
O30   O     O_R   0.627220 0.292850 0.896535 -0.322352

loop_
_geom_bond_atom_site_label_1
_geom_bond_atom_site_label_2
_geom_bond_distance
_ccdc_geom_bond_type
C8    H17   1.107028 S    
C12   H25   1.108820 S    
C23   C24   1.440571 A    
C5    H10   1.111252 S    
C2    C3    1.520144 S    
C9    H18   1.105101 S    
C9    C41   1.470006 S    
C35   C36   1.404747 A    
C4    C5    1.534203 S    
O6    P6    1.752469 S    
P2    C28   1.836893 S    
H1    C10   1.110260 S    
C38   C39   1.211024 T    
C5    N1    1.455782 S    
C16   H36   1.112509 S    
N4    O30   1.301355 A    
Ba1   Ba2   4.521293 S    
O16   Ba2   2.894686 S    
C14   H31   1.107373 S    
C11   C12   1.517113 S    
P1    Ba1   3.386606 S    
C4    H8    1.109285 S    
C7    H13   1.110647 S    
P6    C20   1.850347 S    
C36   H43   1.083300 S    
O2    Ba2   2.819573 S    
Ba2   O21   2.795903 S    
C30   C31   1.407025 A    
H41   C33   1.083552 S    
C7    H15   1.110715 S    
C17   C24   1.393680 A    
C22   C26   1.413516 A    
C1    N2    1.457662 S    
C10   H20   1.107867 S    
C11   H23   1.111328 S    
P1    O1    1.498532 D    
C28   C29   1.404352 A    
C16   N4    1.458336 S    
C25   C26   1.399847 A    
P2    Ba1   3.357724 S    
C26   H38   1.075822 S    
P5    O17   1.751752 S    
C14   H32   1.108552 S    
C17   C25   1.392679 A    
P3    O11   1.749285 S    
C31   C32   1.402571 A    
C6    H12   1.107542 S    
C27   C32   1.393848 A    
C1    H2    1.109919 S    
C2    H4    1.109382 S    
C33   C37   1.406228 A    
P5    C35   1.835741 S    
O5    C6    1.396292 S    
Ba1   O16   2.750260 S    
C12   H26   1.108343 S    
P1    C21   1.881658 S    
C3    H5    1.110547 S    
C9    H19   1.106872 S    
O6    C10   1.407556 S    
O8    Ba1   2.745305 S    
P2    O20   1.538516 S    
C36   C37   1.408773 A    
P4    O13   1.585308 S    
C17   H39   1.081951 S    
Ba2   O20   2.749671 S    
C14   H30   1.111095 S    
P7    O21   1.566070 D    
C4    O15   1.400354 S    
O7    Ba1   2.795710 S    
H35   C16   1.112041 S    
C8    C9    1.521162 S    
C21   C22   1.438915 A    
P3    C32   1.832747 S    
C2    H3    1.109342 S    
C40   H46   1.082318 S    
C19   H37   1.074007 S    
C11   H22   1.107519 S    
P1    O2    1.585310 S    
O2    Ba1   2.884708 S    
C15   O24   1.407705 S    
P2    O10   1.739103 S    
P8    O24   1.752496 S    
P7    C34   1.833629 S    
C6    H11   1.103039 S    
P3    O9    1.545391 D    
P8    C25   1.846147 S    
P5    O18   1.546135 D    
Ba1   O20   2.895515 S    
O13   Ba2   2.885539 S    
O11   C2    1.407431 S    
C6    C7    1.521371 S    
H42   C31   1.083356 S    
C1    C10   1.529548 S    
C4    H7    1.108685 S    
N1    O25   1.300772 A    
C18   H40   1.081804 S    
O14   Ba2   2.775984 S    
C18   C20   1.394224 A    
O12   Ba2   2.860747 S    
C3    H6    1.110214 S    
O3    P6    1.736098 S    
C29   H44   1.083495 S    
C41   N3    1.157158 T    
O19   C13   1.407685 S    
C34   C40   1.392002 A    
C15   C16   1.529397 S    
P4    O12   1.498753 D    
N2    O28   1.301024 A    
C37   C38   1.447921 S    
O16   P7    1.746619 S    
C1    H21   1.110627 S    
P1    O5    1.750394 S    
O4    P6    1.544709 D    
C27   H45   1.081991 S    
P3    O8    1.746466 S    
C12   H24   1.105881 S    
C13   C14   1.520489 S    
C29   C30   1.406287 A    
C30   C39   1.447872 S    
Ba1   O13   2.818996 S    
C3    H27   1.107875 S    
O1    Ba1   2.860097 S    
O17   Ba2   2.745896 S    
C35   C40   1.393569 A    
N4    O29   1.301103 A    
C13   H28   1.108865 S    
C33   C34   1.401625 A    
C15   H34   1.110900 S    
P2    O7    1.499669 D    
P8    O23   1.545034 D    
C8    H16   1.103426 S    
C18   C21   1.394362 A    
C11   O22   1.403724 S    
P5    O19   1.749441 S    
C22   C23   1.440019 A    
C7    H14   1.106504 S    
C19   C23   1.414300 A    
N1    O26   1.300917 A    
P4    C24   1.883506 S    
C15   H33   1.108756 S    
P4    Ba2   3.387153 S    
C13   H29   1.108921 S    
C27   C28   1.391925 A    
O14   P8    1.745964 S    
P7    O22   1.749062 S    
C19   C20   1.400811 A    
O3    Ba1   2.776624 S    
P4    O15   1.751264 S    
O10   C8    1.398202 S    
N2    O27   1.300908 A    
C5    H9    1.113031 S    
