data_mof_unit_24545.cif
_audit_creation_date              2012-10-26T17:11:25-0400
_audit_creation_method            fapswitch 2.2
_symmetry_space_group_name_H-M    P1
_symmetry_Int_Tables_number       1
_space_group_crystal_system       triclinic
_cell_length_a                    27.981727
_cell_length_b                    18.742822
_cell_length_c                    16.819211
_cell_angle_alpha                 90.000056
_cell_angle_beta                  62.532021
_cell_angle_gamma                 90.0
_cell_volume                      7826.54888044

loop_
_atom_site_label
_atom_site_type_symbol
_atom_type_description
_atom_site_fract_x
_atom_site_fract_y
_atom_site_fract_z
_atom_type_partial_charge
C1    C     C_R   0.294867 0.727909 0.329619 0.572738
C2    C     C_R   0.597435 0.999723 0.512659 0.031550
C3    C     C_R   0.692447 0.712485 0.902398 -0.001561
C4    C     C_R   0.928022 0.900861 0.065073 0.561193
C5    C     C_R   0.072521 0.098508 0.934553 0.564981
C6    C     C_R   0.072500 0.901450 0.934562 0.559425
C7    C     C_R   0.927339 0.098379 0.065534 0.562120
C8    C     C_R   0.427501 0.401449 0.065437 0.559429
C9    C     C_R   0.572661 0.598379 0.934466 0.562126
C10   C     C_R   0.571978 0.400861 0.934926 0.561195
C11   C     C_R   0.427481 0.598510 0.065446 0.564997
C12   C     C_R   0.025306 0.617330 0.580956 0.019039
C13   C     C_R   0.902566 0.499722 0.487339 0.031551
C14   C     C_R   0.974855 0.384299 0.418842 0.020644
C15   C     C_R   0.928223 0.617305 0.566600 0.015544
C16   C     C_R   0.071684 0.383993 0.433775 0.012380
C17   C     C_R   0.571777 0.117305 0.433398 0.015541
C18   C     C_R   0.428317 0.883993 0.566221 0.012371
C19   C     C_R   0.474694 0.117330 0.419042 0.019041
C20   C     C_R   0.525145 0.884300 0.581156 0.020639
C21   C     C_R   0.986820 0.672446 0.622230 0.022910
C22   C     C_R   0.013950 0.330315 0.375691 0.026755
C23   C     C_R   0.940262 0.675413 0.608822 0.035642
C24   C     C_R   0.097002 0.500878 0.514243 0.031956
C25   C     C_R   0.060359 0.326939 0.389341 0.029887
C26   C     C_R   0.559738 0.175413 0.391177 0.035643
C27   C     C_R   0.439643 0.826938 0.610654 0.029885
C28   C     C_R   0.513181 0.172447 0.377769 0.022912
C29   C     C_R   0.486051 0.830316 0.624307 0.026758
C30   C     C_R   0.964136 0.559039 0.533503 0.011127
C31   C     C_R   0.035623 0.442063 0.467453 0.008523
C32   C     C_R   0.012848 0.559493 0.539679 0.014981
C33   C     C_R   0.986992 0.441708 0.461076 0.014119
C34   C     C_R   0.487153 0.059493 0.460318 0.014981
C35   C     C_R   0.576399 0.881776 0.578470 -0.110434
C36   C     C_R   0.513009 0.941708 0.538921 0.014119
C37   C     C_R   0.535865 0.059039 0.466495 0.011127
C38   C     C_R   0.464377 0.942063 0.532544 0.008521
C39   C     C_R   0.451494 0.000898 0.493065 0.006399
C40   C     C_R   0.548857 0.000004 0.505599 0.008547
C41   C     C_R   0.951144 0.500004 0.494399 0.008547
C42   C     C_R   0.048507 0.500898 0.506932 0.006398
C43   C     C_R   0.370124 0.939609 0.509568 0.002419
C44   C     C_R   0.630386 0.060843 0.488814 -0.000444
C45   C     C_R   0.613636 0.937929 0.542098 0.001319
C46   C     C_R   0.423728 0.119047 0.420454 -0.111214
C47   C     C_R   0.386711 0.062550 0.456362 0.002136
C48   C     C_R   0.886364 0.437929 0.457901 0.001317
C49   C     C_R   0.113289 0.562550 0.543637 0.002136
C50   C     C_R   0.129876 0.439609 0.490430 0.002416
C51   C     C_R   0.869614 0.560843 0.511185 -0.000444
C52   C     C_R   0.326083 0.936734 0.488958 -0.017179
C53   C     C_R   0.674374 0.063447 0.509574 -0.019017
C54   C     C_R   0.666310 0.935647 0.536055 -0.023971
C55   C     C_R   0.334020 0.064567 0.462519 -0.021827
C56   C     C_R   0.833690 0.435647 0.463944 -0.023971
C57   C     C_R   0.381209 0.884498 0.555522 -0.102965
C58   C     C_R   0.165981 0.564567 0.537480 -0.021828
C59   C     C_R   0.173917 0.436734 0.511041 -0.017181
C60   C     C_R   0.825626 0.563447 0.490425 -0.019017
C61   C     C_R   0.307010 0.000264 0.470805 -0.151312
C62   C     C_R   0.693435 0.999846 0.527574 -0.154109
C63   C     C_R   0.806565 0.499845 0.472425 -0.154109
C64   C     C_R   0.192990 0.500264 0.529195 -0.151313
C65   C     C_3   0.490997 0.780264 0.690936 -0.386161
C66   C     C_3   0.506053 0.225061 0.315362 -0.367978
C67   C     C_3   0.402922 0.761986 0.641125 -0.381951
C68   C     C_R   0.619204 0.116257 0.443266 -0.103584
C69   C     C_3   0.595038 0.241719 0.365147 -0.387432
C70   C     C_3   0.097082 0.261990 0.358866 -0.381960
C71   C     C_3   0.904963 0.741719 0.634851 -0.387437
C72   C     C_3   0.009003 0.280260 0.309064 -0.386173
C73   C     C_3   0.993949 0.725060 0.684635 -0.367973
C74   C     C_2   0.292335 0.866112 0.868868 0.578579
C75   C     C_2   0.706257 0.131865 0.133494 0.575644
C76   C     C_2   0.713767 0.864756 0.124062 0.593332
C77   C     C_2   0.289697 0.133439 0.873300 0.597093
C78   C     C_2   0.786235 0.364751 0.875932 0.593326
C79   C     C_R   0.118792 0.384498 0.444476 -0.102966
C80   C     C_2   0.210311 0.633452 0.126696 0.597080
C81   C     C_2   0.207679 0.366113 0.131107 0.578577
C82   C     C_2   0.793744 0.631864 0.866507 0.575644
C83   C     C_2   0.119203 0.833928 0.046464 0.600546
C84   C     C_2   0.879422 0.163699 0.954380 0.599552
C85   C     C_2   0.886997 0.825529 0.950230 0.593074
C86   C     C_2   0.119404 0.163977 0.046542 0.596131
C87   C     C_2   0.613002 0.325528 0.049770 0.593075
C88   C     C_2   0.380618 0.664009 0.953444 0.596111
C89   C     C_2   0.380806 0.333914 0.953530 0.600545
C90   C     C_R   0.880797 0.616256 0.556733 -0.103580
C91   C     C_2   0.620579 0.663698 0.045620 0.599551
C92   C     C_R   0.923601 0.381775 0.421529 -0.110431
C93   C     C_R   0.705215 0.272323 0.670376 0.570486
C94   C     C_R   0.076272 0.619047 0.579545 -0.111214
C95   C     C_R   0.223421 0.767696 0.949518 -0.008802
C96   C     C_R   0.774961 0.230247 0.051938 -0.011805
C97   C     C_R   0.780287 0.763614 0.046470 -0.000721
C98   C     C_R   0.222280 0.234213 0.950761 -0.012832
C99   C     C_R   0.719712 0.263614 0.953530 -0.000719
C100  C     C_R   0.277729 0.734225 0.049230 -0.012816
C101  C     C_R   0.276586 0.267686 0.050475 -0.008800
C102  C     C_R   0.725039 0.730248 0.948061 -0.011805
C103  C     C_R   0.270153 0.806676 0.934902 0.086758
C104  C     C_R   0.705336 0.727532 0.670208 0.550018
C105  C     C_R   0.728143 0.191164 0.067196 0.083668
C106  C     C_R   0.734049 0.803445 0.060539 0.089688
C107  C     C_R   0.268563 0.194542 0.937081 0.083170
C108  C     C_R   0.765952 0.303443 0.939458 0.089692
C109  C     C_R   0.231445 0.694555 0.062913 0.083163
C110  C     C_R   0.229857 0.306669 0.065085 0.086744
C111  C     C_R   0.771857 0.691164 0.932805 0.083667
C112  C     C_R   0.296592 0.789107 0.985484 -0.105930
C113  C     C_R   0.701335 0.208504 0.017049 -0.103935
C114  C     C_R   0.706850 0.785519 0.011220 -0.107567
C115  C     C_R   0.294715 0.272396 0.329761 0.550975
C116  C     C_R   0.295208 0.212479 0.987209 -0.104880
C117  C     C_R   0.793151 0.285517 0.988776 -0.107563
C118  C     C_R   0.204798 0.712491 0.012788 -0.104884
C119  C     C_R   0.203417 0.289098 0.014503 -0.105956
C120  C     C_R   0.798664 0.708503 0.982953 -0.103937
C121  C     C_R   0.142119 0.822739 0.948245 0.082095
C122  C     C_R   0.856719 0.175553 0.052464 0.082407
C123  C     C_R   0.861378 0.817920 0.049343 0.092466
C124  C     C_R   0.141753 0.177600 0.948774 0.084592
C125  C     C_R   0.638621 0.317919 0.950657 0.092466
C126  C     C_R   0.794664 0.227532 0.329792 0.550017
C127  C     C_R   0.358258 0.677616 0.051218 0.084583
C128  C     C_R   0.357887 0.322731 0.051751 0.082099
C129  C     C_R   0.643281 0.675552 0.947535 0.082405
C130  C     C_R   0.116037 0.848021 0.898280 -0.017957
C131  C     C_R   0.883439 0.151344 0.101940 -0.016223
C132  C     C_R   0.885480 0.846109 0.100876 -0.013855
C133  C     C_R   0.115863 0.152211 0.898538 -0.013337
C134  C     C_R   0.614520 0.346109 0.899124 -0.013853
C135  C     C_R   0.384141 0.652218 0.101459 -0.013326
C136  C     C_R   0.383966 0.348017 0.101719 -0.017953
C137  C     C_R   0.205285 0.772396 0.670238 0.550977
C138  C     C_R   0.616562 0.651344 0.898060 -0.016220
C139  C     C_R   0.135981 0.828349 0.808498 -0.144348
C140  C     C_R   0.863832 0.171552 0.191460 -0.148592
C141  C     C_R   0.864377 0.828156 0.191413 -0.142176
C142  C     C_R   0.135773 0.172032 0.808788 -0.142692
C143  C     C_R   0.635623 0.328156 0.808587 -0.142176
C144  C     C_R   0.364228 0.672033 0.191212 -0.142688
C145  C     C_R   0.364019 0.328349 0.191502 -0.144345
C146  C     C_R   0.636167 0.671552 0.808539 -0.148589
C147  C     C_R   0.182953 0.788180 0.765918 -0.008426
C148  C     C_R   0.205133 0.227909 0.670381 0.572740
C149  C     C_R   0.816719 0.211385 0.234264 -0.009253
C150  C     C_R   0.817792 0.787166 0.233373 -0.011570
C151  C     C_R   0.182461 0.212770 0.766416 -0.008223
C152  C     C_R   0.682208 0.287166 0.766627 -0.011572
C153  C     C_R   0.317541 0.712773 0.233583 -0.008221
C154  C     C_R   0.317048 0.288178 0.234081 -0.008426
C155  C     C_R   0.683281 0.711385 0.765735 -0.009251
C156  C     C_R   0.210911 0.767850 0.813228 -0.106528
C157  C     C_R   0.788298 0.230966 0.187439 -0.104741
C158  C     C_R   0.791089 0.765023 0.184614 -0.104949
C159  C     C_R   0.794785 0.772323 0.329624 0.570485
C160  C     C_R   0.209826 0.234245 0.814319 -0.101602
C161  C     C_R   0.708911 0.265023 0.815387 -0.104956
C162  C     C_R   0.290178 0.734252 0.185677 -0.101599
C163  C     C_R   0.289093 0.267845 0.186769 -0.106536
C164  C     C_R   0.711701 0.730967 0.812561 -0.104733
C165  C     C_R   0.196520 0.631754 0.527966 0.552236
C166  C     C_R   0.803388 0.368341 0.472487 0.549467
C167  C     C_R   0.799180 0.630905 0.486716 0.555491
C168  C     C_R   0.200633 0.369158 0.513844 0.554746
C169  C     C_R   0.700820 0.130905 0.513283 0.555490
C170  C     C_R   0.402998 0.000878 0.485755 0.031956
C171  C     C_R   0.299367 0.869158 0.486156 0.554747
C172  C     C_R   0.303480 0.131754 0.472034 0.552237
C173  C     C_R   0.696611 0.868341 0.527512 0.549466
C174  C     C_R   0.191232 0.785775 0.903333 -0.001706
C175  C     C_R   0.807553 0.212485 0.097601 -0.001564
C176  C     C_R   0.812091 0.781176 0.093558 0.001057
C177  C     C_R   0.190202 0.216082 0.904415 -0.006976
C178  C     C_R   0.687908 0.281175 0.906443 0.001052
C179  C     C_R   0.309807 0.716094 0.095577 -0.006978
C180  C     C_R   0.308774 0.285766 0.096662 -0.001707
Cu1   Cu    Cu3+1 0.209920 0.785290 0.495070 0.946518
Cu2   Cu    Cu3+1 0.504760 0.500000 0.075850 1.050745
Cu3   Cu    Cu3+1 0.995240 0.000000 0.924150 1.050745
Cu4   Cu    Cu3+1 0.004760 0.000000 0.075850 1.047628
Cu5   Cu    Cu3+1 0.790080 0.214710 0.504930 0.947934
Cu6   Cu    Cu3+1 0.790080 0.785290 0.504930 0.933310
Cu7   Cu    Cu3+1 0.209920 0.214710 0.495070 0.932772
Cu8   Cu    Cu3+1 0.709920 0.285290 0.495070 0.933308
Cu9   Cu    Cu3+1 0.290080 0.714710 0.504930 0.932773
Cu10  Cu    Cu3+1 0.290080 0.285290 0.504930 0.946517
Cu11  Cu    Cu3+1 0.709920 0.714710 0.495070 0.947928
Cu12  Cu    Cu3+1 0.495240 0.500000 0.924150 1.047622
H1    H     H_    0.269765 0.000003 0.465826 0.161065
H2    H     H_    0.850686 0.656668 0.589579 0.150659
H3    H     H_    0.913121 0.336753 0.392943 0.141318
H4    H     H_    0.086629 0.663604 0.609095 0.139448
H5    H     H_    0.169176 0.683102 0.022289 0.168850
H6    H     H_    0.828806 0.315119 0.978725 0.159866
H7    H     H_    0.834346 0.678985 0.972875 0.165152
H8    H     H_    0.167621 0.318261 0.024413 0.164941
H9    H     H_    0.665652 0.178986 0.027129 0.165147
H10   H     H_    0.332390 0.818269 0.975571 0.164930
H11   H     H_    0.330830 0.183088 0.977712 0.168846
H12   H     H_    0.730637 0.000028 0.532692 0.161625
H13   H     H_    0.671196 0.815122 0.021270 0.159871
H14   H     H_    0.115971 0.846720 0.770395 0.161294
H15   H     H_    0.884259 0.153900 0.229204 0.158490
H16   H     H_    0.883161 0.848535 0.230517 0.165228
H17   H     H_    0.116057 0.153146 0.770446 0.162177
H18   H     H_    0.616839 0.348535 0.769483 0.165229
H19   H     H_    0.383941 0.653142 0.229556 0.162175
H20   H     H_    0.384028 0.346723 0.229606 0.161294
H21   H     H_    0.615741 0.653900 0.770796 0.158489
H22   H     H_    0.248689 0.739096 0.779980 0.135637
H23   H     H_    0.769364 0.500028 0.467307 0.161625
H24   H     H_    0.750468 0.259584 0.220890 0.134290
H25   H     H_    0.753297 0.736276 0.217420 0.147160
H26   H     H_    0.247265 0.263758 0.781409 0.145288
H27   H     H_    0.746703 0.236276 0.782580 0.147162
H28   H     H_    0.252739 0.763763 0.218586 0.145285
H29   H     H_    0.251314 0.239091 0.220016 0.135633
H30   H     H_    0.749531 0.759585 0.779110 0.134292
H31   H     H_    0.450696 0.770180 0.747960 0.176715
H32   H     H_    0.509958 0.729291 0.657776 0.120843
H33   H     H_    0.513979 0.804195 0.723116 0.142257
H34   H     H_    0.230235 0.500003 0.534174 0.161065
H35   H     H_    0.544863 0.247755 0.265102 0.177906
H36   H     H_    0.490008 0.197755 0.274112 0.151857
H37   H     H_    0.478325 0.268595 0.354724 0.124775
H38   H     H_    0.419831 0.716400 0.661762 0.135378
H39   H     H_    0.363508 0.776566 0.698004 0.153224
H40   H     H_    0.396624 0.741410 0.584742 0.127222
H41   H     H_    0.575609 0.289032 0.353022 0.125224
H42   H     H_    0.603200 0.258174 0.421149 0.130371
H43   H     H_    0.633661 0.230811 0.304501 0.148556
H44   H     H_    0.080178 0.216407 0.338220 0.135369
H45   H     H_    0.586878 0.836754 0.607059 0.141315
H46   H     H_    0.136496 0.276574 0.301992 0.153210
H47   H     H_    0.103380 0.241410 0.415246 0.127223
H48   H     H_    0.924391 0.789032 0.646972 0.125223
H49   H     H_    0.896799 0.758173 0.578851 0.130372
H50   H     H_    0.866341 0.730813 0.695497 0.148548
H51   H     H_    0.049298 0.270189 0.252036 0.176715
H52   H     H_    0.990057 0.229286 0.342215 0.120847
H53   H     H_    0.986012 0.304174 0.276898 0.142240
H54   H     H_    0.955141 0.747767 0.734887 0.177894
H55   H     H_    0.009985 0.697747 0.725896 0.151865
H56   H     H_    0.413371 0.163606 0.390906 0.139451
H57   H     H_    0.021689 0.768585 0.645269 0.124774
H58   H     H_    0.357253 0.925617 0.790013 0.343886
H59   H     H_    0.641683 0.071895 0.212557 0.354839
H60   H     H_    0.729686 0.944220 0.189449 0.363643
H61   H     H_    0.352717 0.068982 0.800326 0.347715
H62   H     H_    0.770315 0.444220 0.810554 0.363640
H63   H     H_    0.147291 0.568998 0.199674 0.347708
H64   H     H_    0.142765 0.425638 0.209941 0.343890
H65   H     H_    0.858315 0.571885 0.787458 0.354840
H66   H     H_    0.129353 0.873751 0.149052 0.339194
H67   H     H_    0.351204 0.843976 0.588181 0.151196
H68   H     H_    0.941723 0.179088 0.831577 0.339618
H69   H     H_    0.880073 0.857484 0.841488 0.326908
H70   H     H_    0.054718 0.168128 0.168126 0.322910
H71   H     H_    0.619926 0.357483 0.158513 0.326907
H72   H     H_    0.445321 0.668150 0.831878 0.322910
H73   H     H_    0.370660 0.373728 0.850934 0.339192
H74   H     H_    0.558279 0.679086 0.168423 0.339616
H75   H     H_    0.649314 0.156670 0.410421 0.150657
H76   H     H_    0.148796 0.343976 0.411818 0.151192
O1    O     O_R   0.255040 0.869590 0.478480 -0.507093
O2    O     O_R   0.817950 0.203450 0.375560 -0.518283
O3    O     O_R   0.817950 0.796550 0.375560 -0.502504
O4    O     O_R   0.182050 0.203450 0.624440 -0.503564
O5    O     O_R   0.682050 0.296550 0.624440 -0.502503
O6    O     O_R   0.317950 0.703450 0.375560 -0.503565
O7    O     O_R   0.317950 0.296550 0.375560 -0.517683
O8    O     O_R   0.682050 0.703450 0.624440 -0.518284
O9    O     O_R   0.250530 0.763330 0.367210 -0.503661
O10   O     O_R   0.749470 0.236670 0.632790 -0.502333
O11   O     O_R   0.749470 0.763330 0.632790 -0.524668
O12   O     O_R   0.744960 0.130410 0.521520 -0.507017
O13   O     O_R   0.250530 0.236670 0.367210 -0.524004
O14   O     O_R   0.750530 0.263330 0.367210 -0.524669
O15   O     O_R   0.249470 0.736670 0.632790 -0.524003
O16   O     O_R   0.249470 0.263330 0.632790 -0.503663
O17   O     O_R   0.750530 0.736670 0.367210 -0.502335
O18   O     O_R   0.177260 0.690030 0.513710 -0.510830
O19   O     O_R   0.822740 0.309970 0.486290 -0.511279
O20   O     O_R   0.822740 0.690030 0.486290 -0.516394
O21   O     O_R   0.177260 0.309970 0.513710 -0.517860
O22   O     O_R   0.677260 0.190030 0.513710 -0.516394
O23   O     O_R   0.744960 0.869590 0.521520 -0.506205
O24   O     O_R   0.322740 0.809970 0.486290 -0.517861
O25   O     O_R   0.322740 0.190030 0.486290 -0.510830
O26   O     O_R   0.677260 0.809970 0.513710 -0.511278
O27   O     O_R   0.051640 0.926880 0.885090 -0.516351
O28   O     O_R   0.948360 0.073120 0.114910 -0.520595
O29   O     O_R   0.948360 0.926880 0.114910 -0.516498
O30   O     O_R   0.051640 0.073120 0.885090 -0.519143
O31   O     O_R   0.551640 0.426880 0.885090 -0.516498
O32   O     O_R   0.448360 0.573120 0.114910 -0.519145
O33   O     O_R   0.448360 0.426880 0.114910 -0.516351
O34   O     O_R   0.255040 0.130410 0.478480 -0.505608
O35   O     O_R   0.551640 0.573120 0.885090 -0.520594
O36   O     O_R   0.940620 0.926560 0.986760 -0.469269
O37   O     O_R   0.059380 0.073440 0.013240 -0.469923
O38   O     O_R   0.059380 0.926560 0.013240 -0.471060
O39   O     O_R   0.940620 0.073440 0.986760 -0.471416
O40   O     O_R   0.440620 0.426560 0.986760 -0.471061
O41   O     O_R   0.559380 0.573440 0.013240 -0.471417
O42   O     O_R   0.559380 0.426560 0.013240 -0.469270
O43   O     O_R   0.440620 0.573440 0.986760 -0.469922
O44   O     O_2   0.263607 0.899109 0.844718 -0.479175
O45   O     O_R   0.755040 0.369590 0.478480 -0.506206
O46   O     O_R   0.346577 0.885164 0.835005 -0.711135
O47   O     O_2   0.735179 0.099350 0.157644 -0.508666
O48   O     O_R   0.652072 0.112421 0.167691 -0.701630
O49   O     O_2   0.666328 0.882027 0.156205 -0.508968
O50   O     O_R   0.748628 0.904078 0.145740 -0.666888
O51   O     O_2   0.260822 0.101720 0.848363 -0.476624
O52   O     O_R   0.342973 0.111005 0.842949 -0.690762
O53   O     O_2   0.833675 0.382011 0.843774 -0.508973
O54   O     O_R   0.751372 0.404082 0.854267 -0.666881
O55   O     O_2   0.239188 0.601732 0.151630 -0.476638
O56   O     O_R   0.244960 0.630410 0.521520 -0.505607
O57   O     O_R   0.157035 0.611021 0.157050 -0.690763
O58   O     O_2   0.236409 0.399111 0.155253 -0.479172
O59   O     O_R   0.153438 0.385177 0.164960 -0.711124
O60   O     O_2   0.764824 0.599357 0.842343 -0.508676
O61   O     O_R   0.847926 0.612410 0.832325 -0.701623
O62   O     O_2   0.074523 0.810459 0.096682 -0.503141
O63   O     O_R   0.149043 0.870240 0.081290 -0.667521
O64   O     O_2   0.853430 0.131276 0.924219 -0.490887
O65   O     O_R   0.930532 0.190312 0.896767 -0.682601
O66   O     O_2   0.933036 0.804207 0.904680 -0.534064
O67   O     O_R   0.244960 0.369590 0.521520 -0.507093
O68   O     O_R   0.858457 0.856310 0.909201 -0.673086
O69   O     O_2   0.146557 0.133329 0.075864 -0.498566
O70   O     O_R   0.066858 0.185449 0.104631 -0.697414
O71   O     O_2   0.566963 0.304207 0.095320 -0.534065
O72   O     O_R   0.641542 0.356309 0.090800 -0.673083
O73   O     O_2   0.353468 0.633384 0.924097 -0.498597
O74   O     O_R   0.433172 0.685467 0.895377 -0.697400
O75   O     O_2   0.425488 0.310447 0.903319 -0.503142
O76   O     O_R   0.350967 0.370219 0.918697 -0.667531
O77   O     O_2   0.646571 0.631276 0.075780 -0.490892
O78   O     O_R   0.755040 0.630410 0.478480 -0.507018
O79   O     O_R   0.569469 0.690311 0.103233 -0.682598
O80   O     O_R   0.182050 0.796550 0.624440 -0.517683

loop_
_geom_bond_atom_site_label_1
_geom_bond_atom_site_label_2
_ccdc_geom_bond_type
H70   O70   S    
C31   C42   A    
C148  O4    A    
C148  C151  S    
C112  H10   S    
C50   C79   A    
C14   C33   A    
C123  C176  A    
C19   C46   A    
C6    O38   A    
C16   C31   A    
C159  O17   A    
C124  C133  A    
C94   H4    S    
C50   C59   A    
C85   O66   D    
C9    O35   A    
C52   C61   A    
C126  C149  S    
C9    O41   A    
C11   O43   A    
C78   C108  S    
C58   C165  S    
C131  C140  A    
C134  C143  A    
C13   C51   A    
C44   C53   A    
Cu11  O26   S    
C17   C68   A    
C66   H35   S    
C128  C180  A    
C113  H9    S    
Cu1   O1    S    
C145  H20   S    
Cu12  O31   S    
H71   O72   S    
C67   H39   S    
C100  C109  A    
C58   C64   A    
C72   H51   S    
C102  C111  A    
Cu2   Cu12  S    
C43   C170  A    
C109  C118  A    
C172  O25   A    
C163  H29   S    
C159  O3    A    
Cu8   O14   S    
C150  C159  S    
C119  H8    S    
C101  C110  A    
C103  C112  A    
C142  C151  A    
C82   O61   S    
C28   C66   S    
C5    O30   A    
C1    O9    A    
Cu8   O45   S    
C102  C114  A    
C139  H14   S    
C167  O20   A    
Cu9   O24   S    
C9    C138  S    
C77   C107  S    
C65   H33   S    
Cu4   O38   S    
H69   O68   S    
Cu1   O18   S    
Cu5   O2    S    
C91   C129  S    
Cu7   O4    S    
C75   C105  S    
C161  H27   S    
C88   O73   D    
C80   O57   S    
C35   C45   A    
C140  H15   S    
C55   C172  S    
C15   C30   A    
C16   C25   A    
C3    C129  A    
C126  O2    A    
C85   O68   S    
C74   O46   S    
C166  O19   A    
C73   H55   S    
H65   O61   S    
C71   H48   S    
C18   C38   A    
C141  H16   S    
C46   H56   S    
C82   C111  S    
C89   O76   S    
H63   O57   S    
C85   C123  S    
C2    C40   A    
C81   C110  S    
C26   C69   S    
C93   C152  S    
C87   O71   D    
C65   H32   S    
C75   O47   D    
C96   C175  S    
C123  C132  A    
C27   C29   A    
C35   H45   S    
C121  C130  A    
C6    C130  S    
Cu7   O13   S    
C4    C132  S    
C5    C133  S    
C99   C108  A    
C10   C134  S    
C133  C142  A    
C83   O63   S    
C37   C40   A    
C51   C90   A    
C38   C39   A    
C43   C52   A    
H58   O46   S    
Cu8   O5    S    
C21   C73   S    
C120  H7    S    
C69   H41   S    
C68   H75   S    
C10   O31   A    
C20   C35   A    
Cu6   O3    S    
C160  H26   S    
C2    C44   A    
C22   C25   A    
C30   C41   A    
C82   O60   D    
C104  O8    A    
Cu3   O30   S    
C152  C161  A    
C7    O39   A    
C22   C72   S    
C95   C103  A    
C141  C150  A    
C73   H57   S    
C2    C45   A    
C24   C50   A    
C10   O42   A    
C162  H28   S    
C60   C167  S    
C34   C39   A    
Cu2   O32   S    
C96   C117  A    
C99   C178  S    
C6    O27   A    
C76   O49   D    
C77   O52   S    
C84   O65   S    
C57   H67   S    
C93   O5    A    
H60   O50   S    
C79   H76   S    
C1    O6    A    
Cu2   O41   S    
C19   C28   A    
C62   H12   S    
C124  C177  A    
C29   C65   S    
C145  C154  A    
C137  O80   A    
C91   O79   S    
Cu11  O17   S    
C61   H1    S    
C122  C131  A    
C132  C141  A    
C8    O33   A    
C76   C106  S    
Cu3   O39   S    
C108  C117  A    
C71   H50   S    
C110  C119  A    
C7    O28   A    
C86   O69   D    
C127  C179  A    
C14   C22   A    
C69   H43   S    
C168  O67   A    
C101  C180  S    
C86   C124  S    
C138  C146  A    
C55   C61   A    
C144  H19   S    
C104  C155  S    
Cu3   O36   S    
C27   C67   S    
C59   C168  S    
C48   C92   A    
C66   H36   S    
C125  C178  A    
C80   O55   D    
C51   C60   A    
C70   H46   S    
C142  H17   S    
C140  C149  A    
C117  H6    S    
C125  C134  A    
C81   O59   S    
C96   C105  A    
C8    C136  S    
C34   C37   A    
C24   C42   A    
C72   H52   S    
Cu3   O27   S    
C13   C41   A    
C115  O13   A    
C66   H37   S    
C156  C174  A    
C127  C135  A    
C88   C127  S    
C54   C173  S    
C128  C136  A    
H73   O76   S    
C24   C49   A    
C4    O36   A    
Cu6   Cu11  S    
Cu7   Cu10  S    
Cu1   Cu9   S    
C146  C155  A    
C80   C109  S    
C91   O77   D    
C7    C131  S    
C53   C169  S    
C171  O24   A    
Cu7   O34   S    
C168  O21   A    
C12   C94   A    
C88   O74   S    
C130  C139  A    
C104  O11   A    
C143  H18   S    
C23   C71   S    
C11   O32   A    
C126  O14   A    
C73   H54   S    
C54   C62   A    
C98   C107  A    
C72   H53   S    
C11   C135  S    
C18   C57   A    
C121  C174  A    
C90   H2    S    
C89   O75   D    
C84   O64   D    
C169  O12   A    
C70   H44   S    
C1    C153  S    
C147  C156  A    
C93   O10   A    
C97   C106  A    
C143  C152  A    
H74   O79   S    
C100  C112  A    
C83   O62   D    
C115  C154  S    
Cu12  O40   S    
C4    O29   A    
Cu10  O67   S    
C65   H31   S    
C116  H11   S    
Cu2   O33   S    
C105  C113  A    
C46   C47   A    
C157  H24   S    
C150  C158  A    
C137  C147  S    
C99   C113  A    
C114  H13   S    
C8    O40   A    
C153  C162  A    
C16   C79   A    
C33   C41   A    
Cu1   O80   S    
C36   C38   A    
C5    O37   A    
C158  H25   S    
Cu9   O15   S    
Cu10  O16   S    
H72   O74   S    
Cu4   O37   S    
C160  C177  A    
C146  H21   S    
C74   O44   D    
C20   C36   A    
C137  O15   A    
C78   O54   S    
C56   C166  S    
C101  C116  A    
C32   C42   A    
C25   C70   S    
C63   H23   S    
C161  C178  A    
C149  C157  A    
H66   O63   S    
C89   C128  S    
C30   C32   A    
Cu9   O6    S    
Cu3   Cu4   S    
C92   H3    S    
Cu5   O10   S    
Cu4   O28   S    
C64   H34   S    
C98   C119  A    
Cu12  O35   S    
Cu9   O56   S    
C139  C147  A    
C59   C64   A    
C106  C114  A    
C60   C63   A    
C17   C26   A    
Cu11  O78   S    
C95   C174  S    
C39   C170  A    
C76   O50   S    
C84   C122  S    
C122  C175  A    
C77   O51   D    
C144  C153  A    
C129  C138  A    
C67   H38   S    
C31   C33   A    
C49   C94   A    
C87   O72   S    
C75   O48   S    
C15   C23   A    
C173  O23   A    
H64   O59   S    
C97   C176  S    
C12   C32   A    
Cu6   O23   S    
C52   C171  S    
C20   C29   A    
C95   C118  A    
C107  C116  A    
C165  O56   A    
C154  C163  A    
C36   C40   A    
C71   H49   S    
C43   C57   A    
Cu5   Cu8   S    
C12   C21   A    
C78   O53   D    
C49   C58   A    
C86   O70   S    
C111  C120  A    
C165  O18   A    
C69   H42   S    
Cu7   O21   S    
C164  H30   S    
Cu4   O29   S    
C53   C62   A    
H62   O54   S    
C167  O78   A    
Cu2   O42   S    
C56   C63   A    
C17   C37   A    
C83   C121  S    
C98   C177  S    
C14   C92   A    
C162  C179  A    
C157  C175  A    
C3    C164  A    
C3    C102  S    
C158  C176  A    
C135  C144  A    
C172  O34   A    
C45   C54   A    
Cu10  O7    S    
C171  O1    A    
C156  H22   S    
C44   C68   A    
C70   H47   S    
Cu5   O12   S    
Cu11  O8    S    
C87   C125  S    
C47   C170  A    
Cu6   O11   S    
C47   C55   A    
C81   O58   D    
C48   C56   A    
C148  O16   A    
Cu12  O43   S    
C18   C27   A    
C136  C145  A    
C19   C34   A    
C67   H40   S    
C13   C48   A    
Cu8   O22   S    
C155  C164  A    
C166  O45   A    
C173  O26   A    
C26   C28   A    
H59   O48   S    
C151  C160  A    
C97   C120  A    
C21   C23   A    
Cu5   O19   S    
H68   O65   S    
Cu6   O20   S    
C169  O22   A    
C15   C90   A    
Cu1   O9    S    
C100  C179  S    
H61   O52   S    
C115  O7    A    
Cu10  O25   S    
C163  C180  A    
C118  H5    S    
C74   C103  S    
