data_mof_unit_55625.cif
_audit_creation_date              2012-12-11T17:47:22-0500
_audit_creation_method            fapswitch 2.2
_symmetry_space_group_name_H-M    P1
_symmetry_Int_Tables_number       1
_space_group_crystal_system       triclinic
_cell_length_a                    14.933085
_cell_length_b                    14.992397
_cell_length_c                    15.029615
_cell_angle_alpha                 110.564569
_cell_angle_beta                  109.442793
_cell_angle_gamma                 108.91441
_cell_volume                      2573.49039898

loop_
_atom_site_label
_atom_site_type_symbol
_atom_type_description
_atom_site_fract_x
_atom_site_fract_y
_atom_site_fract_z
_atom_type_partial_charge
C1    C     C_R   0.974039 0.249839 0.063204 -0.118734
C2    C     C_R   0.091505 0.805340 0.007238 -0.152304
C3    C     C_R   0.323968 0.777901 0.329094 0.055796
C4    C     C_R   0.703227 0.127690 0.698119 0.058279
C5    C     C_R   0.305574 0.501152 0.941258 0.057554
C6    C     C_R   0.672912 0.498675 0.952390 0.041573
C7    C     C_R   0.926682 0.499339 0.296602 0.074413
C8    C     C_R   0.958794 0.501630 0.675426 0.041563
C9    C     C_R   0.167789 0.041386 0.087037 -0.210997
C10   C     C_R   0.054148 0.133088 0.157654 -0.191035
C11   C     C_R   0.167454 0.063722 0.806407 -0.075704
C12   C     C_R   0.870583 0.921463 0.265923 -0.118479
C13   C     C_R   0.128419 0.062030 0.878367 -0.200946
C14   C     C_R   0.959445 0.984204 0.261161 -0.175081
C15   C     C_R   0.633226 0.166705 0.083667 0.361951
C16   C     C_R   0.295395 0.743058 0.773058 0.362198
C17   C     C_R   0.676054 0.265511 0.180800 -0.231484
C18   C     C_R   0.188653 0.664335 0.685892 -0.203963
C19   C     C_R   0.765564 0.295859 0.278753 0.085229
C20   C     C_R   0.103902 0.689557 0.670118 0.068144
C21   C     C_R   0.808174 0.224917 0.278536 -0.194716
C22   C     C_R   0.127877 0.795448 0.741046 -0.241975
C23   C     C_R   0.315146 0.752834 0.226280 -0.128543
C24   C     C_R   0.704399 0.193255 0.791896 -0.133807
C25   C     C_R   0.763619 0.126125 0.182302 -0.219651
C26   C     C_R   0.234273 0.872753 0.830135 -0.137032
C27   C     C_R   0.676214 0.096813 0.085101 -0.151832
C28   C     C_R   0.317786 0.846661 0.845991 -0.124828
C29   C     C_R   0.840385 0.414643 0.475742 -0.237805
C30   C     C_R   0.962791 0.602879 0.481412 -0.234885
C31   C     C_R   0.927129 0.508235 0.576179 0.065186
C32   C     C_R   0.896803 0.502697 0.381268 0.054802
C33   C     C_R   0.990727 0.603486 0.578559 0.047591
C34   C     C_R   0.828549 0.407590 0.376995 0.050294
C35   C     C_R   0.198100 0.136693 0.992053 0.096477
C36   C     C_R   0.944678 0.975981 0.160879 0.081311
C37   C     C_R   0.345893 0.212308 0.960647 -0.110718
C38   C     C_R   0.749595 0.852871 0.074477 -0.140250
C39   C     C_R   0.264148 0.034903 0.528172 0.396889
C40   C     C_R   0.892814 0.067743 0.534576 0.359348
C41   C     C_R   0.341447 0.004352 0.521250 -0.205365
C42   C     C_R   0.813163 0.006444 0.551284 -0.258712
C43   C     C_R   0.347547 0.922513 0.543814 0.043610
C44   C     C_R   0.704303 0.981181 0.492053 0.078498
C45   C     C_R   0.213459 0.409120 0.908676 -0.138596
C46   C     C_R   0.774998 0.591474 0.026570 -0.151311
C47   C     C_R   0.278708 0.874698 0.577937 -0.100671
C48   C     C_R   0.674160 0.003650 0.406934 -0.161551
C49   C     C_R   0.198470 0.902500 0.580325 -0.190527
C50   C     C_R   0.752407 0.057762 0.386442 -0.189985
C51   C     C_R   0.190355 0.981263 0.554188 -0.206652
C52   C     C_R   0.862334 0.093729 0.452688 -0.176226
C53   C     C_R   0.533801 0.963514 0.631371 -0.181107
C54   C     C_R   0.522001 0.847385 0.435987 -0.233557
C55   C     C_R   0.624973 0.007442 0.620190 0.031913
C56   C     C_R   0.425085 0.834973 0.435896 0.058902
C57   C     C_R   0.621673 0.941681 0.522380 0.059875
C58   C     C_R   0.431638 0.894038 0.537153 0.043554
C59   C     C_R   0.276133 0.138959 0.847315 0.001054
C60   C     C_R   0.765409 0.857912 0.173561 -0.117907
C61   C     C_R   0.038491 0.034208 0.151267 0.049151
C62   C     C_R   0.160215 0.122914 0.066920 0.033868
C63   C     C_R   0.307235 0.211606 0.033163 -0.174856
C64   C     C_R   0.839086 0.910637 0.067678 -0.158238
C65   C     C_R   0.092944 0.984263 0.109946 0.067270
C66   C     C_R   0.096406 0.165983 0.096911 0.051471
C67   C     C_R   0.988554 0.590553 0.295384 -0.149556
C68   C     C_R   0.941881 0.408301 0.683803 -0.100705
C69   C     C_3   0.464470 0.396990 0.889938 -0.158401
C70   C     C_3   0.503678 0.604843 0.971262 -0.149050
C71   C     C_3   0.400205 0.437522 0.826036 -0.076323
C72   C     C_3   0.567119 0.564128 0.034692 -0.170034
C73   C     C_3   0.397502 0.502371 0.928775 0.165870
C74   C     C_3   0.571336 0.499142 0.932807 0.146796
C75   C     C_3   0.460439 0.462234 0.992208 -0.164540
C76   C     C_3   0.509495 0.540187 0.868992 -0.093422
C77   C     C_R   0.302916 0.592210 0.000255 -0.129376
C78   C     C_R   0.683671 0.406864 0.935157 -0.096957
C79   C     C_R   0.904763 0.408866 0.206709 -0.131929
C80   C     C_R   0.024245 0.591743 0.780244 -0.109624
C81   C     C_R   0.219567 0.745037 0.313520 -0.111691
C82   C     C_R   0.791598 0.196920 0.698385 -0.121527
C83   C     C_R   0.069814 0.253644 0.975908 -0.114345
C84   C     C_R   0.001826 0.802832 0.098918 -0.120926
C85   C     C_R   0.052584 0.224411 0.049862 0.046205
C86   C     C_R   0.060515 0.867973 0.070906 0.064325
H1    H     H_    0.938779 0.238264 0.112773 0.103032
H2    H     H_    0.150212 0.833955 0.982948 0.101955
H3    H     H_    0.114012 0.004489 0.719360 0.143253
H4    H     H_    0.883242 0.922050 0.341286 0.144646
H5    H     H_    0.431076 0.267772 0.993018 0.152876
H6    H     H_    0.668488 0.803785 0.002615 0.155201
H7    H     H_    0.645425 0.321426 0.178261 0.143314
H8    H     H_    0.171490 0.583530 0.630593 0.159741
H9    H     H_    0.879360 0.248613 0.351986 0.136861
H10   H     H_    0.063509 0.816218 0.729721 0.131714
H11   H     H_    0.798719 0.073649 0.183123 0.171369
H12   H     H_    0.252351 0.952665 0.887882 0.166736
H13   H     H_    0.044821 0.001171 0.846109 0.128885
H14   H     H_    0.040038 0.034216 0.333471 0.189735
H15   H     H_    0.439917 0.435497 0.046252 0.122504
H16   H     H_    0.532859 0.571857 0.818938 0.160847
H17   H     H_    0.380393 0.766519 0.207510 0.092252
H18   H     H_    0.657610 0.166739 0.827837 0.142590
H19   H     H_    0.362761 0.266766 0.120957 0.130205
H20   H     H_    0.826352 0.904644 0.990038 0.130677
H21   H     H_    0.127733 0.001424 0.555611 0.192156
H22   H     H_    0.923834 0.141739 0.440487 0.160357
H23   H     H_    0.397667 0.044995 0.499485 0.152457
H24   H     H_    0.837759 0.990880 0.618118 0.153417
H25   H     H_    0.284581 0.813655 0.598440 0.146230
H26   H     H_    0.590405 0.983428 0.359220 0.126051
H27   H     H_    0.142431 0.863519 0.602503 0.142824
H28   H     H_    0.726954 0.074711 0.321569 0.163571
H29   H     H_    0.534812 0.004059 0.707145 0.160582
H30   H     H_    0.518370 0.798342 0.360631 0.127034
H31   H     H_    0.217228 0.009908 0.063894 0.125130
H32   H     H_    0.013752 0.170401 0.191872 0.125646
H33   H     H_    0.328875 0.385934 0.740957 0.180145
H34   H     H_    0.636643 0.615229 0.120804 0.121609
H35   H     H_    0.449894 0.311855 0.854746 0.137744
H36   H     H_    0.515709 0.689147 0.004233 0.135417
H37   H     H_    0.187399 0.324921 0.853475 0.168617
H38   H     H_    0.794534 0.676228 0.061550 0.129666
H39   H     H_    0.007191 0.674077 0.342595 0.100221
H40   H     H_    0.894640 0.323541 0.617611 0.107601
H41   H     H_    0.357321 0.676570 0.028206 0.103883
H42   H     H_    0.619778 0.321565 0.885329 0.134412
H43   H     H_    0.852952 0.323603 0.172833 0.132223
H44   H     H_    0.044982 0.675381 0.806202 0.122967
H45   H     H_    0.193212 0.742857 0.371279 0.119128
H46   H     H_    0.821319 0.179505 0.643107 0.132683
H47   H     H_    0.126918 0.250831 0.948469 0.135055
H48   H     H_    0.985265 0.828064 0.164848 0.122899
H49   H     H_    0.306774 0.138379 0.791430 0.148417
H50   H     H_    0.696556 0.812554 0.179029 0.114453
N1    N     N_R   0.947560 0.293820 0.002910 -0.043633
N2    N     N_R   0.052440 0.706180 0.997090 -0.042738
N3    N     N_R   0.208960 0.706170 0.152110 -0.040675
N4    N     N_R   0.791040 0.293830 0.847890 -0.044412
N5    N     N_R   0.154330 0.443160 0.946140 -0.043216
N6    N     N_R   0.845670 0.556840 0.053860 -0.043016
N7    N     N_R   0.002190 0.556820 0.208880 -0.043320
N8    N     N_R   0.997810 0.443180 0.791120 -0.037197
N9    N     N_R   0.210550 0.556810 0.002910 -0.042837
N10   N     N_R   0.789450 0.443190 0.997090 -0.039978
N11   N     N_R   0.945970 0.443180 0.152110 -0.043404
N12   N     N_R   0.054030 0.556820 0.847890 -0.043464
N13   N     N_R   0.151530 0.706170 0.208880 -0.045123
N14   N     N_R   0.848470 0.293830 0.791120 -0.045477
N15   N     N_R   0.004980 0.293810 0.946140 -0.041413
N16   N     N_R   0.995020 0.706190 0.053860 -0.044516
Ni1   Ni    Ni4+2 0.869690 0.369690 0.000000 0.229284
Ni2   Ni    Ni4+2 0.130310 0.630310 0.000000 0.220708
Ni3   Ni    Ni4+2 0.001390 0.369680 0.869810 0.246051
Ni4   Ni    Ni4+2 0.998610 0.630320 0.130190 0.212737
H51   H     H_    0.644090 0.021327 0.010156 0.165692
H52   H     H_    0.399832 0.906851 0.914950 0.171977
Br1   Br    Br    0.526162 0.131654 0.945414 -0.721439
Br2   Br    Br    0.410690 0.709417 0.792403 -0.653332
H53   H     H_    0.791341 0.341828 0.473891 0.135136
H54   H     H_    0.013640 0.676913 0.487102 0.123232
Br3   Br    Br    0.263013 0.152690 0.506524 -0.601812
Br4   Br    Br    0.044297 0.132772 0.633785 -0.697330

loop_
_geom_bond_atom_site_label_1
_geom_bond_atom_site_label_2
_ccdc_geom_bond_type
C16   C28   A    
C49   H27   S    
C1    H1    S    
C68   H40   S    
C16   Br2   S    
C9    H31   S    
N6    N10   A    
C3    C23   A    
N8    N12   A    
C67   N7    A    
C66   C85   S    
C24   H18   S    
C65   C86   S    
C39   C41   A    
C45   H37   S    
N7    N11   A    
N10   Ni1   S    
C84   H48   S    
N12   Ni2   S    
C23   N3    A    
C19   C21   A    
N13   Ni4   S    
C84   C86   A    
C40   Br4   S    
C67   H39   S    
C14   C36   A    
C71   C76   S    
C4    C24   A    
C47   H25   S    
C6    C78   A    
C51   H21   S    
C79   H43   S    
C38   H6    S    
C2    C86   A    
C69   C71   S    
C70   H36   S    
C43   C58   S    
C17   C19   A    
C39   C51   A    
C23   H17   S    
N16   Ni4   S    
C49   C51   A    
C54   H30   S    
C3    C81   A    
C50   C52   A    
C31   C33   A    
C2    H2    S    
N15   Ni3   S    
C63   H19   S    
C60   H50   S    
C38   C64   A    
C77   H41   S    
N5    N9    A    
N4    Ni1   S    
N2    Ni2   S    
C53   C55   A    
C78   H42   S    
C41   H23   S    
C45   N5    A    
C73   C75   S    
C46   H38   S    
C42   C44   A    
C72   C75   S    
C11   C59   A    
C37   C63   A    
C6    C74   S    
C83   N15   A    
C10   C66   A    
C1    C85   A    
C54   C56   A    
C80   H44   S    
C37   H5    S    
C9    C62   A    
C2    N2    A    
C29   H53   S    
C47   C49   A    
C64   H20   S    
C71   C73   S    
C62   C66   A    
C27   H51   S    
N5    Ni3   S    
C79   N11   A    
C21   H9    S    
N3    Ni2   S    
N2    N16   A    
C40   C52   A    
C5    C45   A    
C29   C34   A    
N3    N13   A    
C24   N4    A    
C50   H28   S    
C32   C34   A    
C13   H13   S    
C15   Br1   S    
C10   H32   S    
C3    C56   S    
C11   H3    S    
C15   C27   A    
C69   H35   S    
C44   C57   S    
C72   H34   S    
C70   C73   S    
C28   H52   S    
N1    Ni1   S    
C69   C74   S    
C37   C59   A    
C14   H14   S    
C48   C50   A    
C82   N14   A    
C74   C76   S    
C26   H12   S    
C38   C60   A    
N9    Ni2   S    
C84   N16   A    
C72   C74   S    
C83   C85   A    
C12   C14   A    
C8    C68   A    
N14   Ni3   S    
C55   C57   A    
C4    C55   S    
C70   C76   S    
C18   H8    S    
C10   C61   A    
C17   H7    S    
C20   C33   S    
C82   H46   S    
C36   C61   S    
N4    N14   A    
C1    N1    A    
C7    C79   A    
C25   H11   S    
C15   C17   A    
C21   C25   A    
C75   H15   S    
C7    C32   S    
C6    C46   A    
C30   C33   A    
C48   H26   S    
C8    C31   S    
C22   H10   S    
C41   C43   A    
C20   C22   A    
C40   C42   A    
C19   C34   S    
C12   H4    S    
C68   N8    A    
C70   C72   S    
C53   C58   A    
C13   C35   A    
C25   C27   A    
C26   C28   A    
C71   H33   S    
N8    Ni3   S    
C42   H24   S    
C29   C31   A    
C44   C48   A    
C39   Br3   S    
C30   C32   A    
C11   C13   A    
N7    Ni4   S    
C77   N9    A    
C43   C47   A    
C81   N13   A    
C59   H49   S    
C46   N6    A    
C56   C58   A    
C69   C75   S    
C35   C62   S    
C18   C20   A    
C5    C73   S    
N11   Ni1   S    
C9    C65   A    
C83   H47   S    
C81   H45   S    
C78   N10   A    
C7    C67   A    
C12   C60   A    
C61   C65   A    
C80   N12   A    
C4    C82   A    
C52   H22   S    
C16   C18   A    
C22   C26   A    
C8    C80   A    
C30   H54   S    
N1    N15   A    
C35   C63   A    
C76   H16   S    
N6    Ni4   S    
C36   C64   A    
C5    C77   A    
C53   H29   S    
C54   C57   A    
