data_mof_unit_58478.cif
_audit_creation_date              2012-10-26T19:28:26-0400
_audit_creation_method            fapswitch 2.2
_symmetry_space_group_name_H-M    P1
_symmetry_Int_Tables_number       1
_space_group_crystal_system       triclinic
_cell_length_a                    14.830065
_cell_length_b                    14.644386
_cell_length_c                    14.333767
_cell_angle_alpha                 76.644852
_cell_angle_beta                  102.309945
_cell_angle_gamma                 115.319521
_cell_volume                      2714.5626671

loop_
_atom_site_label
_atom_site_type_symbol
_atom_type_description
_atom_site_fract_x
_atom_site_fract_y
_atom_site_fract_z
_atom_type_partial_charge
C1    C     C_R   0.880403 0.312018 0.512617 0.543221
C2    C     C_R   0.497312 0.128429 0.462141 -0.125246
C3    C     C_R   0.605939 0.896901 0.570272 -0.127116
C4    C     C_R   0.395119 0.104159 0.434944 -0.128098
C5    C     C_R   0.727379 0.683556 0.359453 -0.165411
C6    C     C_R   0.272997 0.317181 0.642022 -0.164799
C7    C     C_R   0.799137 0.642925 0.372012 0.113898
C8    C     C_R   0.201025 0.357631 0.628676 0.113010
C9    C     C_R   0.714441 0.508910 0.492367 0.098325
C10   C     C_R   0.285516 0.490661 0.507561 0.089162
C11   C     C_R   0.630465 0.537496 0.469561 -0.025964
C12   C     C_R   0.119939 0.687930 0.489146 0.555337
C13   C     C_R   0.369781 0.462628 0.531397 -0.025790
C14   C     C_R   0.644823 0.633920 0.411405 0.004385
C15   C     C_R   0.355616 0.366601 0.590196 0.005420
C16   C     C_R   0.000184 0.499863 0.668712 0.552192
C17   C     C_R   0.999835 0.500158 0.331287 0.552320
C18   C     C_R   0.535481 0.477804 0.505199 0.003660
C19   C     C_R   0.464900 0.522478 0.496185 0.003620
C20   C     C_R   0.493876 0.626891 0.457180 -0.131872
C21   C     C_R   0.506592 0.373538 0.544833 -0.131976
C22   C     C_R   0.578415 0.680158 0.409436 -0.004289
C23   C     C_R   0.640932 0.075740 0.506097 0.048881
C24   C     C_R   0.422280 0.320534 0.592888 -0.006428
C25   C     C_1   0.000568 0.499800 0.771204 -0.016954
C26   C     C_1   0.999495 0.500251 0.228792 -0.014387
C27   C     C_1   0.000516 0.499847 0.856660 -0.026634
C28   C     C_1   0.999581 0.500216 0.143339 -0.025807
C29   C     C_1   0.000216 0.499972 0.957305 0.008423
C30   C     C_1   0.999901 0.500094 0.042696 0.008339
C31   C     C_R   0.812505 0.202735 0.519158 -0.013399
C32   C     C_R   0.188857 0.797056 0.482595 -0.007129
C33   C     C_R   0.780306 0.024707 0.588431 0.014163
C34   C     C_R   0.360319 0.924825 0.495455 0.034011
C35   C     C_R   0.221006 0.975524 0.413592 0.014772
C36   C     C_R   0.845650 0.128611 0.575418 -0.113429
C37   C     C_R   0.155825 0.871429 0.426357 -0.117833
C38   C     C_R   0.713509 0.172620 0.470884 0.002063
C39   C     C_R   0.288558 0.827349 0.530259 0.001497
C40   C     C_3   0.305091 0.783559 0.637509 -0.270273
C41   C     C_3   0.316359 0.680941 0.660625 -0.402802
C42   C     C_3   0.696394 0.230885 0.369558 -0.266748
C43   C     C_3   0.644858 0.160618 0.292850 -0.425726
C44   C     C_3   0.818950 0.942123 0.639898 -0.278054
C45   C     C_R   0.676030 0.998645 0.556118 0.047061
C46   C     C_3   0.932669 0.978405 0.670352 -0.439271
C47   C     C_3   0.182272 0.058054 0.362228 -0.277621
C48   C     C_3   0.068877 0.021386 0.329560 -0.439218
C49   C     C_1   0.598263 0.784925 0.364307 0.187685
C50   C     C_1   0.402839 0.216110 0.638961 0.185845
C51   C     C_1   0.276576 0.561747 0.421251 0.249914
C52   C     C_1   0.723643 0.437546 0.578330 0.253097
C53   C     C_1   0.121270 0.308653 0.688442 0.245540
C54   C     C_1   0.878913 0.692284 0.312271 0.246973
C55   C     C_R   0.325181 0.001977 0.446459 0.046124
C56   C     C_R   0.535353 0.051977 0.491454 0.037652
C57   C     C_R   0.465981 0.949216 0.512006 0.034671
C58   C     C_R   0.503902 0.872911 0.544014 -0.126443
Cu1   Cu    Cu3+1 0.081740 0.475690 0.523180 0.953116
Cu2   Cu    Cu3+1 0.918260 0.524310 0.476820 0.962784
H1    H     H_    0.628690 0.833987 0.600324 0.105640
H2    H     H_    0.264188 0.247484 0.693059 0.119267
H3    H     H_    0.329161 0.659433 0.597106 0.165495
H4    H     H_    0.380828 0.684739 0.717989 0.126255
H5    H     H_    0.247943 0.619122 0.688605 0.179532
H6    H     H_    0.372334 0.840272 0.674666 0.158907
H7    H     H_    0.241357 0.775011 0.672767 0.138219
H8    H     H_    0.565169 0.112104 0.302659 0.173437
H9    H     H_    0.646194 0.207687 0.219889 0.143520
H10   H     H_    0.685165 0.110905 0.296063 0.180955
H11   H     H_    0.656122 0.279807 0.367691 0.144242
H12   H     H_    0.372009 0.167073 0.406701 0.106963
H13   H     H_    0.769875 0.284932 0.344973 0.152539
H14   H     H_    0.973745 0.018211 0.606560 0.151463
H15   H     H_    0.957698 0.029734 0.725314 0.170510
H16   H     H_    0.951449 0.911171 0.703225 0.149458
H17   H     H_    0.781426 0.902275 0.705842 0.151339
H18   H     H_    0.797758 0.885444 0.590775 0.149184
H19   H     H_    0.045550 0.970494 0.274462 0.171256
H20   H     H_    0.026391 0.980989 0.392367 0.150971
H21   H     H_    0.050053 0.088498 0.296173 0.149378
H22   H     H_    0.201790 0.113683 0.412031 0.149345
H23   H     H_    0.451959 0.669104 0.464094 0.109283
H24   H     H_    0.221187 0.099220 0.297278 0.151026
H25   H     H_    0.548367 0.331164 0.538332 0.112008
H26   H     H_    0.078059 0.847251 0.394790 0.154402
H27   H     H_    0.923402 0.152854 0.607027 0.154963
H28   H     H_    0.455243 0.793584 0.548989 0.119933
H29   H     H_    0.545819 0.207898 0.460676 0.110841
H30   H     H_    0.736328 0.753612 0.308938 0.119281
N1    N     N_R   0.795420 0.560790 0.441960 -0.255388
N2    N     N_R   0.204580 0.439210 0.558040 -0.259263
N3    N     N_1   0.614063 0.868741 0.328455 -0.308806
N4    N     N_1   0.387349 0.132564 0.675580 -0.297787
N5    N     N_1   0.269985 0.618798 0.351857 -0.292021
N6    N     N_1   0.730460 0.380308 0.647499 -0.293478
N7    N     N_1   0.057945 0.269091 0.737497 -0.321693
N8    N     N_1   0.942281 0.732151 0.263272 -0.321755
O1    O     O_R   0.977910 0.338120 0.530560 -0.495446
O2    O     O_R   0.022090 0.661880 0.469440 -0.498707
O3    O     O_R   0.839850 0.379180 0.491410 -0.493780
O4    O     O_R   0.160150 0.620820 0.508590 -0.491259
O5    O     O_R   0.069040 0.479460 0.643530 -0.487592
O6    O     O_R   0.930960 0.520540 0.356470 -0.478784
O7    O     O_R   0.930990 0.520530 0.604380 -0.471379
O8    O     O_R   0.069010 0.479470 0.395620 -0.470914

loop_
_geom_bond_atom_site_label_1
_geom_bond_atom_site_label_2
_ccdc_geom_bond_type
C11   C18   A    
C23   C45   A    
C27   C29   S    
C18   C21   A    
Cu1   O1    S    
C19   C20   A    
C4    H12   S    
C35   C47   S    
C1    O1    A    
C46   H16   S    
C23   C56   A    
C56   C57   A    
C17   C26   S    
C48   H19   S    
C44   H17   S    
C35   C37   A    
C17   O6    A    
C38   C42   S    
C11   C14   A    
C47   H22   S    
C1    C31   S    
C33   C36   A    
C33   C45   A    
C48   H21   S    
C18   C19   A    
C32   C39   A    
C6    C15   A    
C43   H8    S    
C40   H7    S    
C34   C57   A    
C8    N2    A    
C5    H30   S    
C10   N2    A    
Cu1   Cu2   S    
C43   H9    S    
C40   H6    S    
C12   C32   S    
C33   C44   S    
C9    N1    A    
C9    C52   S    
C10   C51   S    
C46   H15   S    
C44   C46   S    
C3    H1    S    
C36   H27   S    
C24   C50   S    
C21   H25   S    
Cu1   O8    S    
C13   C19   A    
C35   C55   A    
C34   C39   A    
C37   H26   S    
C39   C40   S    
C5    C7    A    
C50   N4    T    
C41   H5    S    
C53   N7    T    
C47   H24   S    
C3    C45   A    
C2    H29   S    
C2    C4    A    
C12   O4    A    
C29   C30   T    
C16   O5    A    
C47   C48   S    
C7    N1    A    
C32   C37   A    
C9    C11   A    
C5    C14   A    
C16   O7    A    
C22   C49   S    
C40   C41   S    
C20   C22   A    
C43   H10   S    
C13   C15   A    
C4    C55   A    
C14   C22   A    
C20   H23   S    
C42   C43   S    
C41   H3    S    
Cu2   O3    S    
C1    O3    A    
C46   H14   S    
Cu2   N1    S    
C16   C25   S    
C15   C24   A    
C42   H13   S    
Cu1   O4    S    
Cu2   O2    S    
C10   C13   A    
C58   H28   S    
C8    C53   S    
C6    C8    A    
C25   C27   T    
C23   C38   A    
C26   C28   T    
C41   H4    S    
C31   C38   A    
Cu1   O5    S    
C6    H2    S    
C44   H18   S    
C2    C56   A    
C17   O8    A    
C48   H20   S    
C57   C58   A    
C28   C30   S    
C42   H11   S    
C52   N6    T    
Cu1   N2    S    
C12   O2    A    
C3    C58   A    
C34   C55   A    
C21   C24   A    
C31   C36   A    
C54   N8    T    
C7    C54   S    
C49   N3    T    
Cu2   O6    S    
Cu2   O7    S    
C51   N5    T    
