data_mof_unit_23136.cif
_audit_creation_date              2012-12-10T17:51:29-0500
_audit_creation_method            fapswitch 2.2
_symmetry_space_group_name_H-M    P1
_symmetry_Int_Tables_number       1
_space_group_crystal_system       triclinic
_cell_length_a                    9.951265
_cell_length_b                    10.652816
_cell_length_c                    16.83977
_cell_angle_alpha                 92.582718
_cell_angle_beta                  85.563045
_cell_angle_gamma                 90.063178
_cell_volume                      1778.00404264

loop_
_atom_site_label
_atom_site_type_symbol
_atom_type_description
_atom_site_fract_x
_atom_site_fract_y
_atom_site_fract_z
_atom_type_partial_charge
C1    C     C_R   0.500150 0.739281 0.497828 0.891232
C2    C     C_R   0.527124 0.543181 0.265095 -0.111583
C3    C     C_R   0.379954 0.860625 0.368737 -0.174714
C4    C     C_R   0.481456 0.502035 0.653068 0.935890
C5    C     C_R   0.322954 0.921698 0.307943 -0.120262
C6    C     C_R   0.325405 0.052140 0.307051 -0.134248
C7    C     C_R   0.384240 0.121894 0.367175 -0.189115
C8    C     C_R   0.440333 0.061339 0.430129 0.101441
C9    C     C_R   0.439084 0.929710 0.430628 0.090499
C10   C     C_R   0.500562 0.871496 0.492349 -0.111475
C11   C     C_R   0.564430 0.940053 0.550720 -0.191437
C12   C     C_R   0.344443 0.535287 0.782836 0.609397
C13   C     C_R   0.564775 0.068294 0.550545 -0.213371
C14   C     C_R   0.501284 0.128101 0.491962 -0.089040
C15   C     C_R   0.854095 0.671485 0.608301 0.619483
C16   C     C_R   0.500321 0.260674 0.497517 0.856980
C17   C     C_R   0.923114 0.751285 0.658581 -0.246161
C18   C     C_R   0.061202 0.748058 0.656514 -0.256934
C19   C     C_R   0.132088 0.664731 0.603954 -0.056958
C20   C     C_R   0.067344 0.581931 0.551624 0.101202
C21   C     C_R   0.922633 0.583166 0.552448 0.031118
C22   C     C_R   0.934925 0.421724 0.450518 -0.104803
C23   C     C_R   0.420653 0.644628 0.161097 -0.250128
C24   C     C_R   0.077658 0.421768 0.450558 -0.091234
C25   C     C_R   0.518225 0.505414 0.347380 0.853069
C26   C     C_R   0.470826 0.521755 0.739594 -0.187290
C27   C     C_R   0.589132 0.538388 0.778980 -0.235541
C28   C     C_R   0.581961 0.571729 0.859525 -0.145002
C29   C     C_R   0.456016 0.589637 0.901926 0.097948
C30   C     C_R   0.337803 0.569187 0.863551 -0.244761
C31   C     C_R   0.411941 0.592692 0.234892 -0.221438
C32   C     C_R   0.651749 0.546987 0.220245 -0.273443
C33   C     C_R   0.659551 0.595037 0.144464 0.649069
C34   C     C_R   0.542846 0.640698 0.113872 0.065555
C35   C     C_2   0.444107 0.613474 0.988097 -0.204266
C36   C     C_2   0.543984 0.661906 0.028782 -0.162848
F1    F     F_    0.778863 0.590601 0.099479 -0.683232
F2    F     F_    0.721211 0.687117 0.618793 -0.679930
F3    F     F_    0.227357 0.516599 0.747727 -0.663100
H1    H     H_    0.612001 0.121357 0.597300 0.160044
H2    H     H_    0.282594 0.099415 0.259296 0.142180
H3    H     H_    0.386985 0.222843 0.362957 0.144665
H4    H     H_    0.867970 0.816765 0.700101 0.181557
H5    H     H_    0.113950 0.810318 0.696088 0.184255
H6    H     H_    0.742348 0.511790 0.243372 0.179574
H7    H     H_    0.635405 0.697323 0.998387 0.188809
H8    H     H_    0.240006 0.578968 0.896352 0.170387
H9    H     H_    0.330312 0.683176 0.139537 0.164150
H10   H     H_    0.354072 0.576680 0.019517 0.165182
H11   H     H_    0.675245 0.579919 0.888246 0.168012
H12   H     H_    0.886776 0.357577 0.409986 0.143789
H13   H     H_    0.315014 0.594348 0.268956 0.175272
H14   H     H_    0.237953 0.667983 0.606772 0.220901
H15   H     H_    0.136239 0.357553 0.410040 0.139430
H16   H     H_    0.687818 0.526908 0.747572 0.208583
H17   H     H_    0.611101 0.894398 0.597773 0.205157
H18   H     H_    0.378376 0.759455 0.366190 0.155508
H19   H     H_    0.277918 0.867609 0.260981 0.141565
N1    N     N_R   0.857140 0.501200 0.500750 -0.104047
N2    N     N_R   0.142740 0.501280 0.500770 -0.108804
O1    O     O_R   0.385310 0.683220 0.500000 -0.668083
O2    O     O_R   0.614640 0.683250 0.500010 -0.538101
O3    O     O_R   0.371780 0.500010 0.615800 -0.583903
O4    O     O_R   0.601110 0.500030 0.615800 -0.557350
O5    O     O_R   0.385360 0.316750 0.499990 -0.612665
O6    O     O_R   0.614690 0.316780 0.500000 -0.619130
O7    O     O_R   0.398890 0.499970 0.384200 -0.640320
O8    O     O_R   0.628220 0.499990 0.384200 -0.620924
Zn1   Zn    Zn3+2 0.346870 0.499980 0.499990 0.957578
Zn2   Zn    Zn3+2 0.653130 0.500020 0.500010 0.996162

loop_
_geom_bond_atom_site_label_1
_geom_bond_atom_site_label_2
_ccdc_geom_bond_type
C35   H10   S    
C4    C26   S    
C17   H4    S    
C15   F2    S    
C36   H7    S    
C6    C7    A    
C3    C9    A    
O4    Zn2   S    
C30   H8    S    
C20   N2    A    
C9    C10   A    
C4    O4    A    
C34   C36   S    
C19   C20   A    
C25   O7    A    
C31   H13   S    
C24   N2    A    
C23   C34   A    
C32   C33   A    
C19   H14   S    
C12   F3    S    
C17   C18   A    
C23   H9    S    
C3    C5    A    
C7    C8    A    
O6    Zn2   S    
C13   C14   A    
C1    O2    A    
C11   C13   A    
C4    O3    A    
C26   C27   A    
C29   C30   A    
C25   O8    A    
N2    Zn1   S    
O5    Zn1   S    
C5    H19   S    
C22   C24   A    
O8    Zn2   S    
C28   C29   A    
C33   C34   A    
C21   N1    A    
C2    C25   S    
C27   H16   S    
O3    Zn1   S    
C5    C6    A    
C27   C28   A    
C14   C16   S    
C16   O6    A    
C10   C11   A    
C1    C10   S    
N1    Zn2   S    
C24   H15   S    
C23   C31   A    
C3    H18   S    
C18   H5    S    
C15   C21   A    
C20   C21   A    
O2    Zn2   S    
C8    C9    A    
C2    C32   A    
C18   C19   A    
C32   H6    S    
C7    H3    S    
O1    Zn1   S    
C22   N1    A    
C15   C17   A    
C29   C35   S    
C2    C31   A    
C13   H1    S    
C8    C14   A    
C16   O5    A    
C12   C30   A    
C28   H11   S    
C33   F1    S    
C11   H17   S    
C35   C36   D    
C12   C26   A    
C22   H12   S    
O7    Zn1   S    
C6    H2    S    
C1    O1    A    
