data_mof_unit_18813.cif
_audit_creation_date              2012-12-11T15:21:47-0500
_audit_creation_method            fapswitch 2.2
_symmetry_space_group_name_H-M    P1
_symmetry_Int_Tables_number       1
_space_group_crystal_system       triclinic
_cell_length_a                    8.249635
_cell_length_b                    12.689421
_cell_length_c                    18.997295
_cell_angle_alpha                 94.337723
_cell_angle_beta                  94.139347
_cell_angle_gamma                 97.56216
_cell_volume                      1958.95399867

loop_
_atom_site_label
_atom_site_type_symbol
_atom_type_description
_atom_site_fract_x
_atom_site_fract_y
_atom_site_fract_z
_atom_type_partial_charge
Ba1   Ba    Ba6+2 0.160910 0.552960 0.466220 1.678505
Ba2   Ba    Ba6+2 0.649260 0.447030 0.533730 1.670352
C1    C     C_3   0.358188 0.813765 0.197652 -0.303304
C2    C     C_R   0.732583 0.817056 0.475139 -0.289563
C3    C     C_R   0.702874 0.997069 0.447855 -0.041363
C4    C     C_3   0.879050 0.825874 0.286303 0.401577
C5    C     C_R   0.638976 0.888799 0.445857 -0.032016
C6    C     C_R   0.886381 0.850988 0.510784 0.057168
C7    C     C_R   0.950361 0.962680 0.516501 -0.045007
C8    C     C_R   0.857116 0.036970 0.484130 -0.005521
C9    C     C_R   0.922023 0.148564 0.489240 0.092316
C10   C     C_R   0.169258 0.110690 0.553701 0.047540
C11   C     C_R   0.105458 0.002452 0.552036 -0.067085
C12   C     C_3   0.389098 0.783325 0.272906 0.372180
C13   C     C_R   0.617329 0.539748 0.299120 -0.271962
C14   C     C_R   0.460803 0.488179 0.277445 0.052074
C15   C     C_R   0.402853 0.481718 0.205866 -0.142358
C16   C     C_3   0.806496 0.892509 0.231973 -0.290833
C17   C     C_R   0.504525 0.522295 0.154946 -0.007738
C18   C     C_R   0.666351 0.568630 0.177353 -0.136222
C19   C     C_R   0.722103 0.575260 0.249181 0.019709
C20   C     C_R   0.484920 0.591979 0.034555 -0.070991
C21   C     C_R   0.429961 0.579450 0.962720 -0.084149
C22   C     C_R   0.333926 0.484644 0.932053 0.004670
C23   C     C_3   0.557583 0.772428 0.632380 0.272306
C24   C     C_R   0.290542 0.401689 0.976843 -0.022142
C25   C     C_R   0.346570 0.416419 0.049178 -0.105046
C26   C     C_R   0.444373 0.510483 0.078545 0.051528
C27   C     C_R   0.119196 0.434809 0.828260 -0.065319
C28   C     C_3   0.746875 0.315529 0.321629 0.297269
C29   C     C_R   0.074544 0.423148 0.755298 0.027197
C30   C     C_R   0.340836 0.511677 0.733297 0.037011
C31   C     C_R   0.390568 0.517930 0.805829 -0.121301
C32   C     C_R   0.281034 0.477072 0.854386 0.019110
C33   C     C_R   0.186731 0.458852 0.708188 -0.292594
C34   C     C_3   0.553624 0.891764 0.643222 -0.330916
C35   C     C_3   0.681686 0.280076 0.245269 -0.391019
C36   C     C_3   0.047180 0.683791 0.679348 0.305822
C37   C     C_3   0.082258 0.715146 0.758436 -0.393399
C38   C     C_3   0.164861 0.230936 0.306585 0.711097
C39   C     C_3   0.127436 0.236569 0.226818 -0.332779
C40   C     C_2   0.191518 0.297430 0.951423 0.842904
C41   C     C_3   0.891822 0.160067 0.692606 0.360314
C42   C     C_3   0.930910 0.060427 0.726423 -0.387437
C43   C     C_3   0.413032 0.200729 0.726148 0.299662
C44   C     C_3   0.464583 0.164837 0.798026 -0.295703
C45   C     C_R   0.076283 0.182332 0.524188 -0.210422
H1    H     H_    0.291384 0.718487 0.282117 0.102955
H2    H     H_    0.074782 0.267239 0.337081 0.003203
H3    H     H_    0.233639 0.837013 0.189565 0.179872
H4    H     H_    0.087200 0.314299 0.216648 0.048164
H5    H     H_    0.025842 0.173648 0.205257 0.124487
H6    H     H_    0.237553 0.226024 0.198068 0.105307
H7    H     H_    0.509138 0.753309 0.277715 -0.075163
H8    H     H_    0.367839 0.744745 0.159356 0.051851
H9    H     H_    0.686534 0.757725 0.629695 0.019554
H10   H     H_    0.485519 0.743326 0.581323 0.055013
H11   H     H_    0.612189 0.923138 0.696269 0.124988
H12   H     H_    0.561895 0.228271 0.244011 0.147095
H13   H     H_    0.619650 0.933264 0.602157 0.061423
H14   H     H_    0.424472 0.907797 0.639689 0.141435
H15   H     H_    0.449456 0.882016 0.187352 0.114070
H16   H     H_    0.730878 0.838959 0.189579 0.063334
H17   H     H_    0.795497 0.136637 0.648155 0.058620
H18   H     H_    0.006250 0.196622 0.671287 -0.081921
H19   H     H_    0.945722 0.997090 0.684712 0.078537
H20   H     H_    0.046860 0.078900 0.761070 0.112741
H21   H     H_    0.831097 0.030605 0.758954 0.126868
H22   H     H_    0.284071 0.217459 0.725629 -0.015157
H23   H     H_    0.665831 0.349825 0.215252 0.059402
H24   H     H_    0.494592 0.274761 0.718398 0.106165
H25   H     H_    0.369554 0.102035 0.813014 0.110547
H26   H     H_    0.482206 0.233835 0.838650 0.130144
H27   H     H_    0.958267 0.876116 0.328636 0.156395
H28   H     H_    0.582061 0.131454 0.796327 0.146112
H29   H     H_    0.630196 0.049002 0.421356 0.102823
H30   H     H_    0.179704 0.950457 0.577686 0.091388
H31   H     H_    0.128009 0.265531 0.526140 0.054900
H32   H     H_    0.681906 0.733602 0.472403 0.066636
H33   H     H_    0.513072 0.556072 0.824141 0.077285
H34   H     H_    0.768861 0.234444 0.218581 0.129139
H35   H     H_    0.461317 0.645526 0.931097 0.068520
H36   H     H_    0.557586 0.666352 0.055943 0.064309
H37   H     H_    0.279288 0.444592 0.189729 0.089496
H38   H     H_    0.775760 0.785043 0.312908 -0.122143
H39   H     H_    0.318185 0.351980 0.082547 0.092781
H40   H     H_    0.028370 0.409811 0.864162 0.076206
H41   H     H_    0.749673 0.597230 0.139304 0.079063
H42   H     H_    0.150074 0.451771 0.651971 0.062183
H43   H     H_    0.661715 0.545836 0.354495 0.063337
H44   H     H_    0.727695 0.945940 0.257719 0.114451
H45   H     H_    0.155926 0.654768 0.658190 0.016191
H46   H     H_    0.905430 0.941268 0.207508 0.172786
H47   H     H_    0.650659 0.349584 0.349649 0.036576
H48   H     H_    0.856188 0.376805 0.321986 0.024866
H49   H     H_    0.379510 0.102946 0.387779 0.352293
H50   H     H_    0.129991 0.179289 0.873557 0.310350
H51   H     H_    0.940699 0.619745 0.670957 0.060126
H52   H     H_    0.193465 0.775643 0.768192 0.136200
H53   H     H_    0.102678 0.644833 0.787151 0.054398
H54   H     H_    0.976313 0.749137 0.779522 0.123575
O1    O     O_2   0.160820 0.763040 0.533820 -0.467678
O2    O     O_2   0.733480 0.416812 0.749897 -0.500345
O3    O     O_3   0.832985 0.228986 0.743402 -0.596420
O4    O     O_3   0.890970 0.628600 0.535400 -0.495231
O5    O     O_3   0.427530 0.446070 0.416950 -0.456289
O6    O     O_2   0.637430 0.550200 0.669460 -0.464300
O7    O     O_3   0.491279 0.724120 0.689967 -0.642764
O8    O     O_2   0.502381 0.113415 0.543989 -0.473966
O9    O     O_3   0.428932 0.119603 0.673828 -0.626061
O10   O     O_3   0.385950 0.698560 0.408070 -0.506769
O11   O     O_2   0.300971 0.885779 0.450317 -0.421874
O12   O     O_3   0.324619 0.277856 0.329584 -0.665366
O13   O     O_3   0.012991 0.774131 0.646692 -0.647307
O14   O     O_3   0.387192 0.872724 0.321091 -0.546486
O15   O     O_2   0.172860 0.449730 0.330520 -0.502622
O16   O     O_3   0.962080 0.644700 0.373110 -0.477640
O17   O     O_2   0.059470 0.567650 0.248217 -0.499564
O18   O     O_2   0.971701 0.062067 0.338660 -0.381313
O19   O     O_2   0.197528 0.026659 0.266877 -0.319472
O20   O     O_3   0.265692 0.086321 0.400916 -0.495914
O21   O     O_2   0.100348 0.251507 0.990829 -0.610756
O22   O     O_R   0.204247 0.249840 0.883793 -0.789898
O23   O     O_3   0.976525 0.758275 0.252208 -0.608635
O24   O     O_2   0.649470 0.236890 0.466160 -0.459919
O25   O     O_3   0.919320 0.371390 0.464540 -0.505369
O26   O     O_3   0.424350 0.301430 0.591880 -0.483377
O27   O     O_3   0.789302 0.226301 0.353379 -0.599329
O28   O     O_3   0.382770 0.553920 0.582990 -0.477217
O29   O     O_3   0.848220 0.355290 0.626830 -0.494079
P1    P     P_3+3 0.986780 0.745970 0.554690 0.969274
P2    P     P_3+3 0.341450 0.417130 0.341310 0.961894
P3    P     P_3+3 0.931588 0.631402 0.280491 0.953168
P4    P     P_3+3 0.823520 0.254020 0.445250 1.019461
P5    P     P_3+3 0.870701 0.359687 0.719260 0.955613
P6    P     P_3+3 0.429080 0.837250 0.407238 1.008269
P7    P     P_3+3 0.462440 0.585525 0.671121 0.945600
P8    P     P_3+3 0.380089 0.161849 0.590355 0.970524
S1    S     S_3+6 0.147424 0.096276 0.326765 -0.105738

loop_
_geom_bond_atom_site_label_1
_geom_bond_atom_site_label_2
_ccdc_geom_bond_type
O24   P4    D    
C21   H35   S    
C43   H24   S    
O13   P1    S    
C9    C45   A    
O29   P5    S    
C23   H9    S    
C4    O23   S    
C2    C6    A    
Ba1   P2    S    
O16   P3    S    
O4    P1    S    
C43   C44   S    
O5    P2    S    
C40   O21   D    
C24   C25   A    
Ba2   P4    S    
C4    H38   S    
O23   P3    S    
C16   H44   S    
O3    P5    S    
C22   C24   A    
C34   H11   S    
C10   C45   A    
O7    P7    S    
C36   O13   S    
C16   H16   S    
O14   P6    S    
C3    C8    A    
C13   C14   A    
C38   S1    S    
C36   H45   S    
Ba2   O6    S    
Ba2   O28   S    
Ba1   Ba2   S    
C7    C11   A    
C41   O3    S    
O2    P5    D    
Ba2   O29   S    
C1    H8    S    
C17   C18   A    
C6    C7    A    
C40   O22   S    
C21   C22   A    
C37   H54   S    
Ba1   O15   S    
C7    C8    A    
C39   H5    S    
C44   H25   S    
C36   H51   S    
Ba1   O5    S    
C28   H47   S    
Ba2   O26   S    
C20   C26   A    
C35   H23   S    
Ba2   O25   S    
C35   H34   S    
C23   H10   S    
O11   P6    D    
C2    C5    A    
C19   P3    S    
C44   H28   S    
C1    H3    S    
C41   H17   S    
C4    H27   S    
C28   O27   S    
C4    C16   S    
C11   H30   S    
C43   H22   S    
C30   C33   A    
C38   H2    S    
O9    P8    S    
O1    P1    D    
C2    H32   S    
C29   P5    S    
C9    P4    S    
C3    C5    A    
C43   O9    S    
C14   C15   A    
C12   H1    S    
C34   H13   S    
C27   C32   A    
Ba2   O5    S    
C22   C32   S    
C28   C35   S    
O8    P8    D    
O10   P6    S    
O6    P7    D    
C25   H39   S    
C41   C42   S    
C28   H48   S    
O27   P4    S    
C37   H52   S    
C38   O12   S    
O15   P2    D    
C13   C19   A    
C41   H18   S    
C18   C19   A    
C6    P1    S    
C31   C32   A    
O19   S1    D    
Ba1   O16   S    
Ba1   O25   S    
C17   C26   S    
O17   P3    D    
C39   H6    S    
C42   H19   S    
C35   H12   S    
C1    C12   S    
H49   O20   S    
C38   C39   S    
C12   H7    S    
C10   P8    S    
C42   H21   S    
C34   H14   S    
C33   H42   S    
C24   C40   S    
C1    H15   S    
Ba2   O4    S    
Ba1   P1    S    
C31   H33   S    
O12   P2    S    
Ba1   O28   S    
O26   P8    S    
C15   H37   S    
O18   S1    D    
C30   C31   A    
O20   S1    S    
C3    H29   S    
C5    P6    S    
C27   C29   A    
C20   H36   S    
C13   H43   S    
C37   H53   S    
C36   C37   S    
C18   H41   S    
C15   C17   A    
C29   C33   A    
C14   P2    S    
C27   H40   S    
C8    C9    A    
C23   C34   S    
Ba2   O24   S    
C30   P7    S    
O28   P7    S    
C10   C11   A    
O25   P4    S    
H50   O22   S    
C25   C26   A    
C16   H46   S    
C20   C21   A    
C42   H20   S    
C45   H31   S    
Ba1   O1    S    
C39   H4    S    
C44   H26   S    
Ba1   O10   S    
C12   O14   S    
C23   O7    S    
Ba1   O4    S    
