data_mof_unit_28779.cif
_audit_creation_date              2012-12-10T17:00:45-0500
_audit_creation_method            fapswitch 2.2
_symmetry_space_group_name_H-M    P1
_symmetry_Int_Tables_number       1
_space_group_crystal_system       triclinic
_cell_length_a                    10.824904
_cell_length_b                    10.727863
_cell_length_c                    10.067726
_cell_angle_alpha                 89.566099
_cell_angle_beta                  104.074438
_cell_angle_gamma                 90.564379
_cell_volume                      1133.97754059

loop_
_atom_site_label
_atom_site_type_symbol
_atom_type_description
_atom_site_fract_x
_atom_site_fract_y
_atom_site_fract_z
_atom_type_partial_charge
C1    C     C_R   0.495162 0.262774 0.499058 0.923343
C2    C     C_2   0.122758 0.484801 0.410269 -0.379717
C3    C     C_2   0.067409 0.462700 0.512639 -0.146280
C4    C     C_2   0.877003 0.484627 0.589578 -0.377674
C5    C     C_2   0.931808 0.463706 0.487039 -0.147991
C6    C     C_2   0.470606 0.933100 0.383337 -0.167808
C7    C     C_3   0.633123 0.688599 0.164227 -0.435709
C8    C     C_3   0.718440 0.764826 0.091539 -0.439732
C9    C     C_3   0.767038 0.883481 0.170817 -0.826845
C10   C     C_3   0.341868 0.365244 0.081765 0.207345
C11   C     C_3   0.293510 0.263215 0.977342 -0.929884
C12   C     C_2   0.508772 0.869257 0.500228 -0.319661
C13   C     C_2   0.478125 0.067319 0.382834 -0.162838
C14   C     C_2   0.477642 0.131317 0.495872 -0.333197
C15   C     C_2   0.592180 0.543874 0.949428 -0.069184
C16   C     C_2   0.573726 0.571460 0.090878 0.221961
C17   C     C_R   0.259324 0.496751 0.442673 0.935052
C18   C     C_R   0.501362 0.737260 0.499810 0.930386
C19   C     C_R   0.740646 0.496927 0.557312 0.940495
H1    H     H_    0.877048 0.455062 0.381393 0.192027
H2    H     H_    0.681392 0.568426 0.924846 0.130726
H3    H     H_    0.685925 0.943239 0.178841 0.263523
H4    H     H_    0.823920 0.859893 0.275335 0.261678
H5    H     H_    0.828545 0.936691 0.116509 0.249054
H6    H     H_    0.801918 0.708393 0.083657 0.223096
H7    H     H_    0.663786 0.791721 0.987018 0.233691
H8    H     H_    0.554098 0.749628 0.174877 0.214295
H9    H     H_    0.691049 0.663618 0.267197 0.246495
H10   H     H_    0.282216 0.449589 0.050096 0.104878
H11   H     H_    0.329615 0.331203 0.181707 0.189351
H12   H     H_    0.412633 0.496256 0.872357 0.195073
H13   H     H_    0.349759 0.177019 0.007233 0.263813
H14   H     H_    0.191856 0.242412 0.972730 0.216184
H15   H     H_    0.302021 0.293602 0.874235 0.260139
H16   H     H_    0.121964 0.451848 0.618148 0.184750
H17   H     H_    0.932282 0.493642 0.694860 0.146824
H18   H     H_    0.067744 0.495673 0.305052 0.145117
H19   H     H_    0.435963 0.886705 0.285679 0.160143
H20   H     H_    0.548688 0.912686 0.598355 0.146787
H21   H     H_    0.484937 0.113128 0.288192 0.185732
H22   H     H_    0.460790 0.088042 0.587643 0.156852
N1    N     N_2   0.501330 0.501330 0.852460 -0.185729
N2    N     N_2   0.501370 0.501360 0.148130 0.036102
O1    O     O_R   0.499980 0.319060 0.613030 -0.606217
O2    O     O_R   0.500020 0.319100 0.386910 -0.603375
O3    O     O_R   0.317800 0.500000 0.570840 -0.619597
O4    O     O_R   0.317840 0.500040 0.344720 -0.652412
O5    O     O_R   0.499980 0.680900 0.613090 -0.617573
O6    O     O_R   0.500020 0.680940 0.386970 -0.642882
O7    O     O_R   0.682160 0.499960 0.655280 -0.616031
O8    O     O_R   0.682200 0.500000 0.429160 -0.627058
O9    O     O_3   0.471320 0.389413 0.087858 -0.540565
Zn1   Zn    Zn3+2 0.499970 0.499970 0.650990 0.938353
Zn2   Zn    Zn3+2 0.500030 0.500030 0.349010 0.944697

loop_
_geom_bond_atom_site_label_1
_geom_bond_atom_site_label_2
_ccdc_geom_bond_type
O2    Zn2   S    
C17   O4    A    
C6    H19   S    
C9    H5    S    
H12   N1    S    
C19   O8    A    
C8    H7    S    
C10   H11   S    
C1    O1    A    
C16   N2    D    
C3    H16   S    
O8    Zn2   S    
C10   O9    S    
C12   H20   S    
C4    H17   S    
C2    C3    D    
C8    C9    S    
C7    C8    S    
C5    H1    S    
C13   C14   D    
C2    C17   S    
C8    H6    S    
C2    H18   S    
C1    O2    A    
O4    Zn2   S    
O3    Zn1   S    
C7    C16   S    
C11   H13   S    
C14   H22   S    
N1    Zn1   S    
C6    C12   D    
O5    Zn1   S    
N2    O9    S    
C19   O7    A    
C9    H3    S    
O7    Zn1   S    
C10   C11   S    
C12   C18   S    
O6    Zn2   S    
C10   H10   S    
C15   H2    S    
C7    H8    S    
C17   O3    A    
C15   N1    D    
C11   H14   S    
C9    H4    S    
C13   H21   S    
C1    C14   S    
N2    Zn2   S    
C3    C5    S    
C4    C19   S    
O1    Zn1   S    
C11   H15   S    
C7    H9    S    
C15   C16   S    
C18   O6    A    
C4    C5    D    
C6    C13   S    
C18   O5    A    
