data_mof_unit_57527.cif
_audit_creation_date              2012-12-11T15:57:02-0500
_audit_creation_method            fapswitch 2.2
_symmetry_space_group_name_H-M    P1
_symmetry_Int_Tables_number       1
_space_group_crystal_system       triclinic
_cell_length_a                    17.420784
_cell_length_b                    24.39863
_cell_length_c                    14.942222
_cell_angle_alpha                 90.000105
_cell_angle_beta                  126.091957
_cell_angle_gamma                 90.000071
_cell_volume                      5132.14236095

loop_
_atom_site_label
_atom_site_type_symbol
_atom_type_description
_atom_site_fract_x
_atom_site_fract_y
_atom_site_fract_z
_atom_type_partial_charge
C1    C     C_R   0.307937 0.122964 0.906309 -0.139021
C2    C     C_R   0.556912 0.152101 0.908311 -0.132785
C3    C     C_R   0.811009 0.363647 0.998701 0.010778
C4    C     C_R   0.569234 1.000000 0.370064 0.029198
C5    C     C_R   0.069234 0.500000 0.370064 0.029197
C6    C     C_R   0.193355 0.999998 0.634275 0.102197
C7    C     C_R   0.693354 0.500000 0.634276 0.102196
C8    C     C_R   0.521947 0.045883 0.754491 -0.144872
C9    C     C_R   0.521947 0.954117 0.754493 -0.144880
C10   C     C_R   0.021947 0.545883 0.754492 -0.144874
C11   C     C_R   0.021947 0.454117 0.754492 -0.144878
C12   C     C_R   0.768839 0.954028 0.245428 -0.124309
C13   C     C_R   0.056912 0.347899 0.908311 -0.132788
C14   C     C_R   0.768838 0.045974 0.245431 -0.124377
C15   C     C_R   0.268838 0.454027 0.245429 -0.124347
C16   C     C_R   0.268839 0.545973 0.245429 -0.124337
C17   C     C_3   0.983704 0.904655 0.312387 -1.058333
C18   C     C_3   0.983682 0.095408 0.312526 -1.058424
C19   C     C_3   0.483691 0.404619 0.312469 -1.058392
C20   C     C_3   0.483697 0.595370 0.312446 -1.058374
C21   C     C_3   0.753771 0.168547 0.940891 -1.046436
C22   C     C_3   0.753773 0.831454 0.940893 -1.046420
C23   C     C_3   0.253777 0.668545 0.940900 -1.046424
C24   C     C_R   0.056912 0.652101 0.908312 -0.132787
C25   C     C_3   0.253771 0.331453 0.940890 -1.046430
C26   C     C_3   0.724414 0.067004 0.577011 -1.026162
C27   C     C_3   0.724410 0.932995 0.577022 -1.026134
C28   C     C_3   0.224414 0.567003 0.577016 -1.026151
C29   C     C_3   0.224410 0.432995 0.577017 -1.026146
C30   C     C_3   0.894126 0.999945 0.510596 -1.015746
C31   C     C_3   0.394126 0.500010 0.510595 -1.015755
C32   C     C_R   0.553417 0.999999 0.729654 0.040557
C33   C     C_R   0.053417 0.500000 0.729654 0.040557
C34   C     C_R   0.823691 0.000002 0.267523 0.086558
C35   C     C_R   0.323691 0.500000 0.267523 0.086556
C36   C     C_R   0.621063 0.182649 0.000303 0.019302
C37   C     C_R   0.621063 0.817351 0.000303 0.019307
C38   C     C_R   0.121063 0.682649 0.000303 0.019306
C39   C     C_R   0.307937 0.877036 0.906309 -0.139019
C40   C     C_R   0.121063 0.317351 0.000302 0.019303
C41   C     C_3   0.029289 0.954647 0.500350 -0.203680
C42   C     C_3   0.029270 0.045325 0.500411 -0.203656
C43   C     C_3   0.529277 0.454663 0.500386 -0.203664
C44   C     C_3   0.529281 0.545342 0.500376 -0.203670
C45   C     C_3   0.957171 0.999975 0.471094 0.275679
C46   C     C_3   0.457171 0.500005 0.471093 0.275678
C47   C     C_3   0.925599 0.000003 0.350808 0.039300
C48   C     C_3   0.425600 0.500000 0.350808 0.039306
C49   C     C_3   0.998961 0.955323 0.380424 0.282054
C50   C     C_R   0.807937 0.622964 0.906310 -0.139020
C51   C     C_3   0.998944 0.044706 0.380485 0.282084
C52   C     C_3   0.498951 0.455307 0.380460 0.282068
C53   C     C_3   0.498955 0.544689 0.380450 0.282061
C54   C     C_3   0.073826 0.000026 0.410004 -0.196082
C55   C     C_3   0.573827 0.499995 0.410005 -0.196079
C56   C     C_R   0.401029 0.876795 0.092074 -0.137559
C57   C     C_R   0.401029 0.123205 0.092074 -0.137556
C58   C     C_R   0.901029 0.376796 0.092074 -0.137557
C59   C     C_R   0.901029 0.623205 0.092074 -0.137558
C60   C     C_3   0.101430 0.999998 0.528492 0.035767
C61   C     C_R   0.807937 0.377036 0.906310 -0.139020
C62   C     C_3   0.601430 0.500000 0.528493 0.035768
C63   C     C_3   0.247282 0.821851 0.095936 -0.409234
C64   C     C_3   0.247283 0.178150 0.095937 -0.409234
C65   C     C_3   0.747283 0.321851 0.095937 -0.409233
C66   C     C_3   0.747284 0.678150 0.095938 -0.409234
C67   C     C_3   0.692077 0.271978 0.093921 -0.484509
C68   C     C_3   0.692078 0.728023 0.093921 -0.484510
C69   C     C_3   0.192074 0.771979 0.093919 -0.484510
C70   C     C_3   0.192078 0.228022 0.093921 -0.484511
C71   C     C_3   0.810418 0.265017 0.009862 -0.426156
C72   C     C_R   0.651386 0.151386 0.092399 -0.164163
C73   C     C_3   0.810419 0.734983 0.009861 -0.426160
C74   C     C_3   0.310419 0.765017 0.009863 -0.426158
C75   C     C_3   0.310419 0.234983 0.009862 -0.426156
C76   C     C_3   0.153866 0.815444 0.889014 -0.402361
C77   C     C_3   0.153866 0.184555 0.889015 -0.402364
C78   C     C_3   0.653866 0.315445 0.889015 -0.402363
C79   C     C_3   0.653866 0.684555 0.889016 -0.402361
C80   C     C_3   0.255868 0.818017 0.998429 0.354414
C81   C     C_3   0.255868 0.181982 0.998430 0.354416
C82   C     C_3   0.755868 0.318018 0.998430 0.354416
C83   C     C_R   0.651387 0.848615 0.092399 -0.164170
C84   C     C_3   0.755869 0.681983 0.998430 0.354415
C85   C     C_3   0.668125 0.232148 0.999262 0.354161
C86   C     C_3   0.668126 0.767853 0.999262 0.354157
C87   C     C_3   0.168125 0.732147 0.999262 0.354160
C88   C     C_3   0.168125 0.267852 0.999261 0.354161
C89   C     C_3   0.763012 0.214435 0.018086 0.163421
C90   C     C_3   0.763012 0.785565 0.018087 0.163429
C91   C     C_3   0.263014 0.714435 0.018090 0.163423
C92   C     C_3   0.263012 0.285565 0.018086 0.163423
C93   C     C_3   0.603095 0.264077 0.888303 -0.400244
C94   C     C_R   0.151387 0.651386 0.092399 -0.164167
C95   C     C_3   0.603096 0.735923 0.888303 -0.400247
C96   C     C_3   0.103097 0.764075 0.888301 -0.400250
C97   C     C_3   0.103096 0.235923 0.888302 -0.400245
C98   C     C_3   0.623534 0.051407 0.647718 -0.437422
C99   C     C_3   0.623496 0.948577 0.647689 -0.437423
C100  C     C_3   0.123520 0.551413 0.647708 -0.437422
C101  C     C_3   0.123510 0.448583 0.647700 -0.437424
C102  C     C_R   0.550675 0.045520 0.305725 -0.159863
C103  C     C_R   0.550678 0.954480 0.305726 -0.159847
C104  C     C_R   0.050676 0.545520 0.305725 -0.159854
C105  C     C_R   0.151386 0.348614 0.092398 -0.164166
C106  C     C_R   0.050676 0.454480 0.305725 -0.159855
C107  C     C_3   0.624786 0.053357 0.545105 0.176353
C108  C     C_3   0.624774 0.946638 0.545094 0.176340
C109  C     C_3   0.124782 0.553359 0.545101 0.176347
C110  C     C_3   0.124778 0.446639 0.545097 0.176347
C111  C     C_3   0.466870 0.000011 0.531238 -0.408299
C112  C     C_3   0.966870 0.500003 0.531238 -0.408298
C113  C     C_3   0.567897 0.999999 0.641909 0.303798
C114  C     C_3   0.067897 0.500000 0.641909 0.303797
C115  C     C_3   0.577228 1.000000 0.473907 0.307002
C116  C     C_R   0.556912 0.847899 0.908312 -0.132788
C117  C     C_3   0.077228 0.500000 0.473907 0.307001
C118  C     C_3   0.472108 0.000003 0.433364 -0.562282
C119  C     C_3   0.972108 0.500001 0.433364 -0.562283
C120  C     C_R   0.241257 0.954196 0.694955 -0.154362
C121  C     C_R   0.241258 0.045802 0.694952 -0.154393
C122  C     C_R   0.741257 0.454197 0.694953 -0.154381
C123  C     C_R   0.741257 0.545803 0.694954 -0.154374
C124  C     C_R   0.311010 0.136353 0.998701 0.010777
C125  C     C_R   0.311010 0.863647 0.998701 0.010781
C126  C     C_R   0.811010 0.636353 0.998701 0.010780
H1    H     H_    0.251605 0.130145 0.820338 0.091459
H2    H     H_    0.624374 0.499992 0.387693 0.128555
H3    H     H_    0.512722 0.164954 0.822755 0.084561
H4    H     H_    0.012722 0.335045 0.822754 0.084561
H5    H     H_    0.012722 0.664954 0.822755 0.084560
H6    H     H_    0.052994 0.884327 0.347642 0.255165
H7    H     H_    0.936198 0.875318 0.314472 0.243627
H8    H     H_    0.951670 0.916657 0.225412 0.261595
H9    H     H_    0.052974 0.115734 0.347786 0.255177
H10   H     H_    0.951614 0.083447 0.225522 0.261602
H11   H     H_    0.936204 0.124732 0.314695 0.243629
H12   H     H_    0.552982 0.384292 0.347728 0.255174
H13   H     H_    0.318497 0.822381 0.176846 0.148556
H14   H     H_    0.436201 0.375289 0.314603 0.243630
H15   H     H_    0.451639 0.416597 0.225478 0.261600
H16   H     H_    0.552987 0.615698 0.347705 0.255172
H17   H     H_    0.451651 0.583385 0.225460 0.261599
H18   H     H_    0.436201 0.624702 0.314564 0.243630
H19   H     H_    0.702260 0.179724 0.852388 0.254879
H20   H     H_    0.823848 0.161025 0.957074 0.253978
H21   H     H_    0.731763 0.129325 0.957114 0.266348
H22   H     H_    0.702261 0.820277 0.852390 0.254876
H23   H     H_    0.731765 0.870676 0.957117 0.266348
H24   H     H_    0.318498 0.177618 0.176847 0.148556
H25   H     H_    0.823850 0.838976 0.957076 0.253981
H26   H     H_    0.202266 0.679720 0.852396 0.254876
H27   H     H_    0.323855 0.661023 0.957086 0.253980
H28   H     H_    0.231770 0.629324 0.957127 0.266349
H29   H     H_    0.202260 0.320275 0.852387 0.254879
H30   H     H_    0.231762 0.370675 0.957113 0.266348
H31   H     H_    0.323848 0.338975 0.957073 0.253980
H32   H     H_    0.781173 0.044213 0.651030 0.266195
H33   H     H_    0.729392 0.058758 0.507706 0.260488
H34   H     H_    0.739105 0.111267 0.597672 0.241949
H35   H     H_    0.818498 0.322382 0.176847 0.148557
H36   H     H_    0.729418 0.941275 0.507750 0.260544
H37   H     H_    0.781164 0.955763 0.651086 0.266162
H38   H     H_    0.739081 0.888725 0.597619 0.241937
H39   H     H_    0.281170 0.544222 0.651054 0.266181
H40   H     H_    0.229404 0.558742 0.507725 0.260517
H41   H     H_    0.239097 0.611269 0.597649 0.241944
H42   H     H_    0.229407 0.441261 0.507732 0.260516
H43   H     H_    0.281166 0.455772 0.651062 0.266175
H44   H     H_    0.239089 0.388728 0.597639 0.241943
H45   H     H_    0.938923 0.999941 0.602471 0.256580
H46   H     H_    0.818500 0.677620 0.176848 0.148555
H47   H     H_    0.848721 0.037064 0.479390 0.253735
H48   H     H_    0.848767 0.962807 0.479381 0.253702
H49   H     H_    0.438922 0.500011 0.602470 0.256582
H50   H     H_    0.348748 0.537140 0.479384 0.253718
H51   H     H_    0.348739 0.462883 0.479385 0.253722
H52   H     H_    0.210220 0.860370 0.089724 0.165310
H53   H     H_    0.210219 0.139631 0.089724 0.165310
H54   H     H_    0.710220 0.360369 0.089726 0.165310
H55   H     H_    0.710222 0.639631 0.089727 0.165310
H56   H     H_    0.125596 0.785864 0.081621 0.177592
H57   H     H_    0.251605 0.869854 0.820338 0.091458
H58   H     H_    0.125601 0.214137 0.081628 0.177589
H59   H     H_    0.625601 0.285863 0.081628 0.177589
H60   H     H_    0.625601 0.714137 0.081627 0.177591
H61   H     H_    0.736461 0.251554 0.176044 0.149236
H62   H     H_    0.736461 0.748447 0.176044 0.149234
H63   H     H_    0.236456 0.751556 0.176043 0.149235
H64   H     H_    0.236461 0.248446 0.176044 0.149236
H65   H     H_    0.885300 0.266725 0.085234 0.134926
H66   H     H_    0.885300 0.733276 0.085232 0.134925
H67   H     H_    0.385301 0.766725 0.085234 0.134926
H68   H     H_    0.751606 0.630146 0.820339 0.091459
H69   H     H_    0.385300 0.233276 0.085235 0.134925
H70   H     H_    0.811386 0.198070 0.104051 0.119563
H71   H     H_    0.811387 0.801930 0.104053 0.119548
H72   H     H_    0.311388 0.698072 0.104057 0.119554
H73   H     H_    0.311386 0.301930 0.104051 0.119557
H74   H     H_    0.154572 0.813049 0.815369 0.146019
H75   H     H_    0.154573 0.186951 0.815370 0.146021
H76   H     H_    0.654571 0.313049 0.815370 0.146021
H77   H     H_    0.654571 0.686950 0.815370 0.146020
H78   H     H_    0.430448 0.868564 0.177563 0.087805
H79   H     H_    0.751605 0.369855 0.820338 0.091459
H80   H     H_    0.430449 0.131436 0.177563 0.087806
H81   H     H_    0.930449 0.368565 0.177563 0.087806
H82   H     H_    0.930449 0.631436 0.177563 0.087805
H83   H     H_    0.113258 0.852787 0.880251 0.161282
H84   H     H_    0.113259 0.147212 0.880251 0.161279
H85   H     H_    0.613258 0.352788 0.880252 0.161279
H86   H     H_    0.613259 0.647212 0.880253 0.161280
H87   H     H_    0.035652 0.775980 0.875676 0.153498
H88   H     H_    0.035652 0.224016 0.875682 0.153498
H89   H     H_    0.535652 0.275983 0.875682 0.153498
H90   H     H_    0.042010 0.917622 0.550629 0.124399
H91   H     H_    0.535653 0.724017 0.875681 0.153498
H92   H     H_    0.583905 0.238542 0.816358 0.150918
H93   H     H_    0.583907 0.761458 0.816359 0.150919
H94   H     H_    0.083911 0.738540 0.816359 0.150919
H95   H     H_    0.083905 0.261457 0.816358 0.150919
H96   H     H_    0.813584 0.261864 0.937658 0.176768
H97   H     H_    0.813584 0.738137 0.937657 0.176769
H98   H     H_    0.313584 0.761862 0.937658 0.176769
H99   H     H_    0.313586 0.238137 0.937659 0.176768
H100  H     H_    0.590107 0.089895 0.648663 0.130247
H101  H     H_    0.041979 0.082327 0.550741 0.124411
H102  H     H_    0.590022 0.910097 0.648581 0.130241
H103  H     H_    0.090075 0.589898 0.648633 0.130244
H104  H     H_    0.090053 0.410100 0.648612 0.130244
H105  H     H_    0.696539 0.050494 0.726411 0.176626
H106  H     H_    0.696493 0.949462 0.726396 0.176613
H107  H     H_    0.196522 0.550510 0.726406 0.176621
H108  H     H_    0.196510 0.449479 0.726401 0.176619
H109  H     H_    0.579092 0.088655 0.494117 0.102741
H110  H     H_    0.579083 0.911342 0.494090 0.102724
H111  H     H_    0.079090 0.588656 0.494108 0.102734
H112  H     H_    0.541990 0.417653 0.550695 0.124406
H113  H     H_    0.079085 0.411343 0.494099 0.102731
H114  H     H_    0.426441 0.036788 0.525875 0.168792
H115  H     H_    0.426407 0.963248 0.525864 0.168804
H116  H     H_    0.926428 0.536775 0.525872 0.168797
H117  H     H_    0.926420 0.463234 0.525869 0.168799
H118  H     H_    0.564258 0.087842 0.331992 0.092702
H119  H     H_    0.564266 0.912158 0.331993 0.092703
H120  H     H_    0.064261 0.587842 0.331993 0.092702
H121  H     H_    0.064262 0.412158 0.331992 0.092704
H122  H     H_    0.433694 0.036649 0.380955 0.179928
H123  H     H_    0.541997 0.582357 0.550676 0.124405
H124  H     H_    0.433692 0.963354 0.380967 0.179929
H125  H     H_    0.933693 0.536648 0.380961 0.179928
H126  H     H_    0.933692 0.463353 0.380962 0.179929
H127  H     H_    0.227459 0.912336 0.665509 0.091244
H128  H     H_    0.227458 0.087662 0.665504 0.091264
H129  H     H_    0.727458 0.412337 0.665506 0.091256
H130  H     H_    0.727459 0.587663 0.665508 0.091252
H131  H     H_    0.527891 0.088331 0.739531 0.095463
H132  H     H_    0.527896 0.911668 0.739540 0.095472
H133  H     H_    0.027893 0.588331 0.739534 0.095466
H134  H     H_    0.124372 0.000046 0.387690 0.128555
H135  H     H_    0.027894 0.411669 0.739537 0.095469
H136  H     H_    0.792081 0.911968 0.262285 0.105181
H137  H     H_    0.792075 0.088035 0.262287 0.105228
H138  H     H_    0.292077 0.411966 0.262286 0.105208
H139  H     H_    0.292079 0.588034 0.262285 0.105199
H140  H     H_    0.695842 0.164164 0.178009 0.084922
H141  H     H_    0.695843 0.835837 0.178009 0.084920
H142  H     H_    0.195843 0.664163 0.178009 0.084920
H143  H     H_    0.195842 0.335837 0.178008 0.084922
H144  H     H_    0.512722 0.835045 0.822755 0.084560
N1    N     N_R   0.392450 0.103580 0.942190 -0.037131
N2    N     N_R   0.525490 0.971610 0.207550 -0.030405
N3    N     N_R   0.025490 0.528390 0.207550 -0.030404
N4    N     N_R   0.025490 0.471610 0.207550 -0.030404
N5    N     N_R   0.317450 0.971190 0.792000 -0.037030
N6    N     N_R   0.317450 0.028810 0.792000 -0.037029
N7    N     N_R   0.817450 0.471190 0.792000 -0.037029
N8    N     N_R   0.817450 0.528810 0.792000 -0.037030
N9    N     N_R   0.473900 0.028390 0.792280 -0.038491
N10   N     N_R   0.473900 0.971610 0.792280 -0.038492
N11   N     N_R   0.973900 0.528390 0.792280 -0.038491
N12   N     N_R   0.392450 0.896420 0.942190 -0.037132
N13   N     N_R   0.973900 0.471610 0.792280 -0.038491
N14   N     N_R   0.682310 0.971180 0.208170 -0.043082
N15   N     N_R   0.682310 0.028820 0.208170 -0.043085
N16   N     N_R   0.182310 0.471180 0.208170 -0.043084
N17   N     N_R   0.182310 0.528820 0.208170 -0.043084
N18   N     N_R   0.606470 0.103570 0.057210 -0.032214
N19   N     N_R   0.606470 0.896430 0.057210 -0.032214
N20   N     N_R   0.106470 0.603570 0.057210 -0.032215
N21   N     N_R   0.106470 0.396430 0.057210 -0.032214
N22   N     N_R   0.549740 0.896000 0.943240 -0.035466
N23   N     N_R   0.892450 0.603580 0.942190 -0.037132
N24   N     N_R   0.549740 0.104000 0.943240 -0.035466
N25   N     N_R   0.049740 0.396000 0.943240 -0.035466
N26   N     N_R   0.049740 0.604000 0.943240 -0.035466
N27   N     N_R   0.892450 0.396420 0.942190 -0.037132
N28   N     N_R   0.450490 0.896000 0.057360 -0.036084
N29   N     N_R   0.450490 0.104000 0.057360 -0.036083
N30   N     N_R   0.950490 0.396000 0.057360 -0.036084
N31   N     N_R   0.950490 0.604000 0.057360 -0.036084
N32   N     N_R   0.525490 0.028390 0.207550 -0.030404
Ni1   Ni    Ni4+2 0.433780 0.065390 0.868430 0.204668
Ni2   Ni    Ni4+2 0.433780 0.934610 0.868430 0.204668
Ni3   Ni    Ni4+2 0.933780 0.565390 0.868430 0.204668
Ni4   Ni    Ni4+2 0.933780 0.434610 0.868430 0.204668
Ni5   Ni    Ni4+2 0.565800 0.934190 0.131570 0.207168
Ni6   Ni    Ni4+2 0.565800 0.065810 0.131570 0.207166
Ni7   Ni    Ni4+2 0.065800 0.434190 0.131570 0.207167
Ni8   Ni    Ni4+2 0.065800 0.565810 0.131570 0.207167

loop_
_geom_bond_atom_site_label_1
_geom_bond_atom_site_label_2
_ccdc_geom_bond_type
C59   H82   S    
C39   C125  A    
C87   C91   S    
C54   H134  S    
C94   N20   A    
C30   C45   S    
N1    Ni1   S    
C59   C126  A    
C33   C114  S    
C111  C118  S    
N14   N15   A    
C117  C119  S    
C16   C35   A    
N14   Ni5   S    
C118  H122  S    
C14   N15   A    
C55   C62   S    
N32   Ni6   S    
C6    C120  A    
C20   H18   S    
N4    Ni7   S    
C44   C53   S    
C4    C102  A    
C95   H93   S    
C13   H4    S    
C26   H34   S    
C73   H66   S    
N18   N24   A    
C92   H73   S    
C99   H102  S    
N12   Ni2   S    
C63   C80   S    
C71   C82   S    
C53   C55   S    
C100  C109  S    
C19   H15   S    
C9    H132  S    
C41   C49   S    
N7    Ni4   S    
C44   C46   S    
C18   C51   S    
C45   C47   S    
C84   C126  S    
C79   H86   S    
N16   Ni7   S    
C46   C48   S    
C67   C85   S    
C118  H124  S    
N2    N32   A    
C122  H129  S    
C101  C110  S    
C96   H94   S    
C42   C45   S    
C8    C32   A    
C18   H11   S    
N21   N25   A    
C7    C62   S    
C20   H16   S    
C102  N32   A    
C78   C82   S    
C11   C33   A    
C115  C118  S    
C72   H140  S    
C111  C113  S    
C12   H136  S    
C123  H130  S    
C12   N14   A    
C22   H22   S    
C97   H88   S    
C23   H27   S    
C17   H7    S    
C102  H118  S    
C42   C60   S    
C70   H64   S    
C63   H13   S    
C7    C123  A    
C58   N30   A    
C65   H54   S    
N19   Ni5   S    
C56   N28   A    
C21   H20   S    
C40   C88   S    
C1    C124  A    
C27   H36   S    
C76   C96   S    
C24   H5    S    
C65   C82   S    
C27   C108  S    
C95   H91   S    
C26   H32   S    
N11   Ni3   S    
C86   C95   S    
C44   H123  S    
C48   C52   S    
N25   Ni4   S    
C64   H24   S    
C101  H108  S    
C41   C45   S    
C10   H133  S    
C37   C83   A    
C29   H43   S    
C30   H48   S    
C67   H59   S    
N15   Ni6   S    
C4    C115  S    
C112  C114  S    
C83   N19   A    
C37   C116  A    
C99   C108  S    
C103  H119  S    
N20   N26   A    
C108  C115  S    
C100  H103  S    
C73   C90   S    
C79   C84   S    
C43   C52   S    
C2    H3    S    
C78   H76   S    
C120  H127  S    
N18   Ni6   S    
C27   H37   S    
C85   C93   S    
C63   C69   S    
C31   C46   S    
C9    N10   A    
C77   C97   S    
C101  H104  S    
C106  H121  S    
C16   H139  S    
N28   Ni5   S    
C68   H60   S    
C111  H115  S    
N7    N8    A    
C25   H30   S    
N30   Ni7   S    
C24   N26   A    
C31   H50   S    
C48   C53   S    
C61   N27   A    
C73   H97   S    
C37   C86   S    
C75   H99   S    
C100  C114  S    
C17   C49   S    
C64   H53   S    
N5    Ni2   S    
C57   H80   S    
C116  N22   A    
C105  N21   A    
C119  H125  S    
C16   N17   A    
C77   H84   S    
N8    Ni3   S    
C70   H58   S    
N31   Ni8   S    
C104  H120  S    
C65   H35   S    
C8    N9    A    
C22   H25   S    
C25   C92   S    
C88   C97   S    
C41   C60   S    
C57   N29   A    
C77   H75   S    
C14   C34   A    
C52   C55   S    
C1    N1    A    
C28   H40   S    
N11   N13   A    
C111  H114  S    
C121  N6    A    
C104  N3    A    
C112  H116  S    
C10   C33   A    
C64   C81   S    
C22   H23   S    
N6    Ni1   S    
C68   H62   S    
C6    C121  A    
C71   H65   S    
N23   N31   A    
C36   C72   A    
C61   H79   S    
C59   N31   A    
C23   H26   S    
C108  H110  S    
N21   Ni7   S    
N5    N6    A    
C11   N13   A    
C109  C117  S    
C90   H71   S    
C21   C89   S    
C63   H52   S    
C93   H89   S    
C39   N12   A    
N26   Ni3   S    
C74   H98   S    
N19   N22   A    
C13   C40   A    
C9    C32   A    
C91   H72   S    
C19   C52   S    
C67   H61   S    
C65   C67   S    
C72   N18   A    
N9    N10   A    
C32   C113  S    
C69   C87   S    
N13   Ni4   S    
C74   H67   S    
C71   H96   S    
C74   C80   S    
C17   H6    S    
C101  C114  S    
C20   H17   S    
C100  H107  S    
C116  H144  S    
C35   C48   S    
C110  C117  S    
C5    C106  A    
C105  H143  S    
C13   N25   A    
N9    Ni1   S    
C76   C80   S    
C29   C110  S    
C85   C89   S    
C98   C113  S    
C47   C51   S    
C98   C107  S    
C21   H19   S    
C74   C91   S    
C79   C95   S    
C77   C81   S    
C22   C90   S    
C26   H33   S    
C56   C125  A    
C28   H39   S    
C66   H55   S    
N20   Ni8   S    
C86   C90   S    
C12   C34   A    
C29   H42   S    
C20   C53   S    
C99   C113  S    
C112  C119  S    
C36   C85   S    
C94   H142  S    
C38   C87   S    
C50   N23   A    
N1    N29   A    
C57   C124  A    
C50   H68   S    
N17   Ni8   S    
C14   H137  S    
C96   H87   S    
C98   H105  S    
C3    C58   A    
C23   H28   S    
C17   H8    S    
C34   C47   S    
C78   H85   S    
C39   H57   S    
C43   C62   S    
C75   H69   S    
C76   H83   S    
C66   C68   S    
C54   C60   S    
C25   H29   S    
C68   C86   S    
C2    N24   A    
C106  N4    A    
N2    Ni5   S    
C70   C88   S    
C99   H106  S    
C123  N8    A    
C121  H128  S    
C47   C49   S    
C31   H49   S    
C42   H101  S    
C31   H51   S    
C21   H21   S    
C10   N11   A    
C66   H46   S    
N16   N17   A    
N29   Ni6   S    
C80   C125  S    
C78   C93   S    
C49   C54   S    
C4    C103  A    
C15   N16   A    
C8    H131  S    
C15   H138  S    
C28   H41   S    
C112  H117  S    
C88   C92   S    
C19   H14   S    
C24   C38   A    
C50   C126  A    
C64   C70   S    
C29   H44   S    
C73   C84   S    
C69   H56   S    
C5    C104  A    
C15   C35   A    
C3    C61   A    
C81   C124  S    
N10   Ni2   S    
C6    C60   S    
C76   H74   S    
C69   H63   S    
C41   H90   S    
C110  H113  S    
C75   C81   S    
C44   C62   S    
C89   H70   S    
C5    C117  S    
C93   H92   S    
C43   H112  S    
C27   H38   S    
N23   Ni3   S    
C71   C89   S    
C87   C96   S    
C38   C94   A    
C3    C82   S    
N3    N4    A    
N24   Ni1   S    
C18   H9    S    
C18   H10   S    
C107  C115  S    
C75   C92   S    
C79   H77   S    
C25   H31   S    
N27   N30   A    
C23   C91   S    
C7    C122  A    
C122  N7    A    
N27   Ni4   S    
N12   N28   A    
C120  N5    A    
C2    C36   A    
C107  H109  S    
C30   H47   S    
C1    H1    S    
C26   C107  S    
C56   H78   S    
C109  H111  S    
C28   C109  S    
C42   C51   S    
C51   C54   S    
C103  N2    A    
C83   H141  S    
C119  H126  S    
C58   H81   S    
C19   H12   S    
C97   H95   S    
N22   Ni2   S    
C11   H135  S    
C43   C46   S    
C30   H45   S    
C66   C84   S    
C55   H2    S    
N3    Ni8   S    
C40   C105  A    
C98   H100  S    
