data_mof_unit_36772.cif
_audit_creation_date              2012-12-10T16:44:15-0500
_audit_creation_method            fapswitch 2.2
_symmetry_space_group_name_H-M    P1
_symmetry_Int_Tables_number       1
_space_group_crystal_system       triclinic
_cell_length_a                    7.431419
_cell_length_b                    8.739457
_cell_length_c                    13.334196
_cell_angle_alpha                 94.041714
_cell_angle_beta                  77.331481
_cell_angle_gamma                 103.15328
_cell_volume                      822.567537433

loop_
_atom_site_label
_atom_site_type_symbol
_atom_type_description
_atom_site_fract_x
_atom_site_fract_y
_atom_site_fract_z
_atom_type_partial_charge
C1    C     C_R   0.544270 0.799637 0.505349 0.813629
C2    C     C_R   0.408194 0.520854 0.979878 0.028671
C3    C     C_R   0.459091 0.561181 0.874309 0.062226
C4    C     C_R   0.552687 0.558871 0.038461 0.068835
C5    C     C_R   0.725689 0.664996 0.999308 0.162492
C6    C     C_R   0.759416 0.723346 0.900945 -0.243395
C7    C     C_R   0.629771 0.670571 0.838737 -0.194090
C8    C     C_R   0.534848 0.489748 0.132800 -0.269226
C9    C     C_R   0.828758 0.657290 0.158968 -0.159345
C10   C     C_R   0.335142 0.495113 0.807691 -0.108292
C11   C     C_2   0.569078 0.966875 0.514240 -0.031826
C12   C     C_R   0.399134 0.496992 0.694782 0.785236
C13   C     C_2   0.433239 0.032722 0.496457 -0.381000
C14   C     C_R   0.454797 0.200015 0.498174 0.903923
C15   C     C_R   0.601908 0.512538 0.305737 0.789031
C16   C     C_R   0.862732 0.712519 0.059541 -0.182382
C17   C     C_R   0.663409 0.546327 0.196095 -0.038340
C18   C     C_R   0.151097 0.414822 0.849343 -0.255410
C19   C     C_R   0.090192 0.397840 0.954696 -0.114791
C20   C     C_R   0.214256 0.449478 0.021028 0.152419
Cu1   Cu    Cu3+1 0.321300 0.483160 0.488710 0.939726
Cu2   Cu    Cu3+1 0.678700 0.516840 0.511290 0.950196
H1    H     H_    0.304007 0.961855 0.477557 0.145979
H2    H     H_    0.989062 0.382335 0.420585 0.230258
H3    H     H_    0.888753 0.807432 0.870937 0.141559
H4    H     H_    0.993248 0.796126 0.030928 0.135230
H5    H     H_    0.420224 0.392495 0.159706 0.147442
H6    H     H_    0.052635 0.366010 0.800291 0.173157
H7    H     H_    0.943556 0.344238 0.985523 0.161572
H8    H     H_    0.662389 0.721660 0.763666 0.157454
N1    N     N_2   0.947230 0.542220 0.528320 -0.213581
N2    N     N_2   0.052770 0.457780 0.471680 -0.209423
O1    O     O_R   0.383920 0.714220 0.492660 -0.593959
O2    O     O_R   0.685730 0.742660 0.511730 -0.598216
O3    O     O_R   0.275440 0.478800 0.636790 -0.583373
O4    O     O_R   0.577250 0.507240 0.655860 -0.578067
O5    O     O_R   0.314270 0.257340 0.488270 -0.596592
O6    O     O_R   0.616080 0.285780 0.507340 -0.535073
O7    O     O_R   0.422750 0.492760 0.344140 -0.583420
O8    O     O_R   0.724560 0.521200 0.363210 -0.586134
H9    H     H_    0.928557 0.704242 0.207557 0.149685
H10   H     H_    0.010910 0.617663 0.579426 0.222422
N3    N     N_3   0.129056 0.450261 0.128549 -0.610355
H11   H     H_    0.122679 0.342589 0.160078 0.209067
H12   H     H_    0.197924 0.545608 0.167763 0.234457
N4    N     N_3   0.738262 0.057243 0.543613 -0.535659
H13   H     H_    0.746193 0.017182 0.614267 0.212248
H14   H     H_    0.855245 0.037514 0.488626 0.225034

loop_
_geom_bond_atom_site_label_1
_geom_bond_atom_site_label_2
_ccdc_geom_bond_type
C2    C4    A    
N3    H11   S    
H2    N2    S    
C6    C7    A    
Cu1   O3    S    
N1    H10   S    
C12   O4    A    
N3    H12   S    
C9    H9    S    
C8    C17   A    
Cu1   O7    S    
C4    C8    A    
Cu2   O8    S    
C2    C3    A    
C1    O1    A    
C3    C10   A    
C13   C14   S    
C14   O5    A    
C11   C13   D    
C15   O7    A    
C10   C12   S    
C10   C18   A    
C9    C17   A    
C9    C16   A    
C1    O2    A    
C3    C7    A    
C16   H4    S    
C5    C6    A    
Cu2   O2    S    
Cu1   N2    S    
N4    H14   S    
C15   O8    A    
C6    H3    S    
Cu1   O1    S    
Cu2   N1    S    
C2    C20   A    
C14   O6    A    
C19   H7    S    
C20   N3    S    
C18   H6    S    
C13   H1    S    
Cu1   O5    S    
C7    H8    S    
C18   C19   A    
C15   C17   S    
C8    H5    S    
N4    H13   S    
C5    C16   A    
C1    C11   S    
C12   O3    A    
Cu1   Cu2   S    
N1    N2    D    
Cu2   O4    S    
C19   C20   A    
C4    C5    A    
C11   N4    S    
Cu2   O6    S    
