data_mof_unit_21266.cif
_audit_creation_date              2012-12-10T16:55:21-0500
_audit_creation_method            fapswitch 2.2
_symmetry_space_group_name_H-M    P1
_symmetry_Int_Tables_number       1
_space_group_crystal_system       triclinic
_cell_length_a                    29.280983
_cell_length_b                    30.479849
_cell_length_c                    21.278436
_cell_angle_alpha                 90.058784
_cell_angle_beta                  132.578858
_cell_angle_gamma                 89.871415
_cell_volume                      13983.6125261

loop_
_atom_site_label
_atom_site_type_symbol
_atom_type_description
_atom_site_fract_x
_atom_site_fract_y
_atom_site_fract_z
_atom_type_partial_charge
C1    C     C_R   0.306605 0.190452 0.117841 0.880925
C2    C     C_R   0.645047 0.882849 0.705340 0.002041
C3    C     C_R   0.250022 0.861800 0.167252 0.120805
C4    C     C_R   0.756635 0.650067 0.187557 0.124331
C5    C     C_R   0.249197 0.359773 0.830064 0.120556
C6    C     C_R   0.223897 0.670437 0.777411 0.135545
C7    C     C_R   0.750651 0.360335 0.169506 0.120215
C8    C     C_R   0.267509 0.166459 0.279201 -0.284778
C9    C     C_R   0.770831 0.873498 0.792635 -0.285967
C10   C     C_R   0.713730 0.177909 0.696857 -0.177614
C11   C     C_R   0.229063 0.874153 0.207391 -0.285659
C12   C     C_R   0.741166 0.641538 0.235709 -0.283115
C13   C     C_R   0.624089 0.129524 0.679126 0.051185
C14   C     C_R   0.269289 0.370628 0.788301 -0.284968
C15   C     C_R   0.226628 0.671599 0.714492 -0.281291
C16   C     C_R   0.730410 0.371646 0.210955 -0.284844
C17   C     C_R   0.314630 0.149316 0.359957 0.035443
C18   C     C_R   0.729051 0.883863 0.706117 0.028288
C19   C     C_R   0.662817 0.162163 0.616959 -0.037039
C20   C     C_R   0.270901 0.884783 0.293766 0.028254
C21   C     C_R   0.786394 0.629139 0.320891 0.031919
C22   C     C_R   0.226778 0.381022 0.701789 0.028123
C23   C     C_R   0.176930 0.657440 0.632259 0.033874
C24   C     C_R   0.354747 0.883206 0.294222 0.002469
C25   C     C_R   0.772797 0.382126 0.297392 0.028430
C26   C     C_R   0.367645 0.131582 0.380568 0.136294
C27   C     C_R   0.665422 0.886425 0.660756 0.152121
C28   C     C_R   0.617797 0.137517 0.607237 0.122412
C29   C     C_R   0.334510 0.887023 0.338979 0.152073
C30   C     C_R   0.847349 0.621423 0.356831 0.155272
C31   C     C_R   0.163552 0.384879 0.658133 0.151810
C32   C     C_R   0.126802 0.636274 0.614919 0.132769
C33   C     C_R   0.836090 0.385557 0.341294 0.152150
C34   C     C_R   0.400469 0.140742 0.144197 0.107264
C35   C     C_R   0.860503 0.621614 0.303057 -0.003289
C36   C     C_R   0.453205 0.164649 0.175516 -0.148567
C37   C     C_R   0.471681 0.165742 0.129809 -0.127195
C38   C     C_R   0.436876 0.143823 0.051731 -0.102435
C39   C     C_R   0.383467 0.120868 0.019201 -0.137668
C40   C     C_R   0.365467 0.119039 0.065501 -0.104834
C41   C     C_R   0.567220 0.830212 0.802263 0.103092
C42   C     C_R   0.554591 0.855915 0.843809 -0.139865
C43   C     C_R   0.514778 0.840277 0.853413 -0.129888
C44   C     C_R   0.487508 0.798949 0.821768 -0.094169
C45   C     C_R   0.502030 0.772428 0.783719 -0.143416
C46   C     C_R   0.144452 0.382194 0.704422 0.002701
C47   C     C_R   0.541859 0.787930 0.774051 -0.126561
C48   C     C_R   0.610557 0.133889 0.868560 0.122162
C49   C     C_R   0.557401 0.155328 0.841789 -0.152594
C50   C     C_R   0.544590 0.155755 0.894235 -0.131622
C51   C     C_R   0.585229 0.135439 0.974203 -0.105574
C52   C     C_R   0.638487 0.114323 0.001516 -0.133212
C53   C     C_R   0.650945 0.113209 0.948651 -0.090558
C54   C     C_R   0.432963 0.828643 0.199004 0.103011
C55   C     C_R   0.445079 0.852763 0.155481 -0.143559
C56   C     C_R   0.485303 0.835999 0.147290 -0.128181
C57   C     C_R   0.127712 0.628848 0.682382 -0.000747
C58   C     C_R   0.513307 0.795049 0.182049 -0.096627
C59   C     C_R   0.499215 0.770022 0.221996 -0.146126
C60   C     C_R   0.459152 0.786716 0.230515 -0.123694
C61   C     C_R   0.913184 0.649781 0.160866 0.102831
C62   C     C_R   0.965511 0.676218 0.199689 -0.141154
C63   C     C_R   0.991806 0.679247 0.164306 -0.127256
C64   C     C_R   0.965518 0.656388 0.089471 -0.097588
C65   C     C_R   0.911940 0.631467 0.048661 -0.140163
C66   C     C_R   0.885862 0.628028 0.084301 -0.120649
C67   C     C_R   0.068677 0.331339 0.805121 0.103024
C68   C     C_R   0.855373 0.382563 0.295236 0.003508
C69   C     C_R   0.059917 0.356096 0.851935 -0.142978
C70   C     C_R   0.019874 0.341091 0.861559 -0.131490
C71   C     C_R   0.988700 0.301281 0.824904 -0.093461
C72   C     C_R   0.999601 0.275481 0.781854 -0.142313
C73   C     C_R   0.039542 0.290395 0.772001 -0.128098
C74   C     C_R   0.102768 0.638371 0.860108 0.105858
C75   C     C_R   0.050923 0.662108 0.832968 -0.144848
C76   C     C_R   0.035595 0.662427 0.882496 -0.125154
C77   C     C_R   0.072804 0.640076 0.960400 -0.105663
C78   C     C_R   0.125212 0.617141 0.988618 -0.138895
C79   C     C_R   0.326862 0.151339 0.238760 0.060257
C80   C     C_R   0.139958 0.615967 0.938383 -0.108229
C81   C     C_R   0.931650 0.330351 0.195818 0.104129
C82   C     C_R   0.940937 0.354635 0.149251 -0.140765
C83   C     C_R   0.980900 0.338895 0.139848 -0.131928
C84   C     C_R   0.011436 0.298805 0.176428 -0.101019
C85   C     C_R   0.000041 0.273506 0.219293 -0.144299
C86   C     C_R   0.960220 0.289171 0.228983 -0.123301
C87   C     C_R   0.308462 0.151278 0.423458 0.150541
C88   C     C_R   0.301784 0.191891 0.447811 -0.147808
C89   C     C_R   0.295465 0.193649 0.507291 -0.142951
C90   C     C_R   0.685285 0.862783 0.786678 0.048759
C91   C     C_R   0.295130 0.154928 0.542111 -0.109141
C92   C     C_R   0.301041 0.114388 0.517437 -0.153609
C93   C     C_R   0.307893 0.112489 0.458539 -0.158348
C94   C     C_R   0.752627 0.891526 0.663679 0.143551
C95   C     C_R   0.787724 0.859117 0.665557 -0.156081
C96   C     C_R   0.810599 0.866649 0.626335 -0.142982
C97   C     C_R   0.799053 0.906638 0.585657 -0.128979
C98   C     C_R   0.764522 0.939153 0.584004 -0.150094
C99   C     C_R   0.741387 0.931702 0.622882 -0.140200
C100  C     C_R   0.658414 0.170691 0.544588 0.110730
C101  C     C_R   0.668634 0.153974 0.754808 -0.004631
C102  C     C_R   0.615119 0.201092 0.480981 -0.163049
C103  C     C_R   0.610935 0.208942 0.412487 -0.155616
C104  C     C_R   0.650285 0.186850 0.407534 -0.113366
C105  C     C_R   0.694100 0.157039 0.471318 -0.155820
C106  C     C_R   0.698196 0.148910 0.539679 -0.162016
C107  C     C_R   0.247380 0.893177 0.336145 0.145425
C108  C     C_R   0.258861 0.933578 0.376497 -0.142655
C109  C     C_R   0.235564 0.941818 0.414993 -0.150488
C110  C     C_R   0.200575 0.909886 0.413330 -0.128245
C111  C     C_R   0.188840 0.869661 0.373172 -0.144736
C112  C     C_R   0.692071 0.809735 0.882264 0.857971
C113  C     C_R   0.314485 0.862960 0.213109 0.048766
C114  C     C_R   0.211911 0.861333 0.334381 -0.155678
C115  C     C_R   0.768802 0.623975 0.371329 0.144466
C116  C     C_R   0.742132 0.659167 0.379621 -0.149472
C117  C     C_R   0.723934 0.653858 0.425281 -0.140740
C118  C     C_R   0.731664 0.613344 0.462195 -0.119965
C119  C     C_R   0.757543 0.578054 0.453441 -0.160247
C120  C     C_R   0.776176 0.583281 0.408320 -0.151572
C121  C     C_R   0.249235 0.387409 0.657649 0.143017
C122  C     C_R   0.281559 0.353681 0.656743 -0.157796
C123  C     C_R   0.303657 0.360042 0.616228 -0.144928
C124  C     C_R   0.818199 0.643253 0.223453 0.051723
C125  C     C_R   0.294198 0.400185 0.577176 -0.128564
C126  C     C_R   0.262443 0.433999 0.578325 -0.149469
C127  C     C_R   0.239930 0.427680 0.618288 -0.139025
C128  C     C_R   0.177355 0.666764 0.564333 0.140665
C129  C     C_R   0.132653 0.694856 0.496281 -0.134487
C130  C     C_R   0.134298 0.704680 0.433648 -0.168001
C131  C     C_R   0.180823 0.686910 0.438912 -0.115094
C132  C     C_R   0.225888 0.659368 0.506949 -0.158412
C133  C     C_R   0.224287 0.649335 0.569566 -0.178965
C134  C     C_R   0.750157 0.388836 0.341268 0.142810
C135  C     C_R   0.185068 0.361941 0.785550 0.049319
C136  C     C_R   0.759640 0.429118 0.380772 -0.138542
C137  C     C_R   0.736970 0.435686 0.420506 -0.146694
C138  C     C_R   0.704855 0.402156 0.421243 -0.127290
C139  C     C_R   0.695176 0.362026 0.381996 -0.141946
C140  C     C_R   0.717460 0.355393 0.341754 -0.158061
C141  C     C_R   0.469057 0.077657 0.274840 0.172854
C142  C     C_R   0.530587 0.092373 0.328099 -0.118869
C143  C     C_R   0.572459 0.071661 0.326598 -0.137734
C144  C     C_R   0.552768 0.036964 0.270351 -0.127356
C145  C     C_R   0.491469 0.022384 0.216632 -0.153211
C146  C     C_R   0.171705 0.652155 0.759869 0.058427
C147  C     C_R   0.449848 0.042237 0.219546 -0.128962
C148  C     C_R   0.492277 0.882631 0.653776 0.130414
C149  C     C_R   0.470435 0.918394 0.668571 -0.094340
C150  C     C_R   0.409811 0.918740 0.635459 -0.175618
C151  C     C_R   0.371175 0.882657 0.589648 -0.105472
C152  C     C_R   0.392666 0.846589 0.575448 -0.083101
C153  C     C_R   0.452789 0.846680 0.606743 -0.144291
C154  C     C_R   0.547337 0.067262 0.744045 0.156878
C155  C     C_R   0.483939 0.075464 0.694892 -0.097360
C156  C     C_R   0.450653 0.050297 0.707162 -0.149085
C157  C     C_R   0.814824 0.362268 0.214170 0.049114
C158  C     C_R   0.480608 0.017500 0.769504 -0.132405
C159  C     C_R   0.543621 0.009109 0.818429 -0.155365
C160  C     C_R   0.576752 0.033484 0.805045 -0.140523
C161  C     C_R   0.506067 0.884979 0.341597 0.135825
C162  C     C_R   0.524120 0.920682 0.321230 -0.088915
C163  C     C_R   0.584001 0.922529 0.351882 -0.169317
C164  C     C_R   0.625673 0.888158 0.401085 -0.115507
C165  C     C_R   0.607851 0.852147 0.420672 -0.085716
C166  C     C_R   0.548382 0.850619 0.391441 -0.144097
C167  C     C_R   0.978417 0.584547 0.287693 0.176294
C168  C     C_R   0.338178 0.156626 0.183759 -0.132665
C169  C     C_R   0.038921 0.601299 0.344186 -0.131570
C170  C     C_R   0.084751 0.582152 0.349326 -0.135489
C171  C     C_R   0.069964 0.547005 0.296228 -0.125786
C172  C     C_R   0.009506 0.530588 0.238755 -0.150887
C173  C     C_R   0.963966 0.548879 0.235154 -0.117521
C174  C     C_R   0.995940 0.388590 0.664055 0.143531
C175  C     C_R   0.981015 0.424492 0.688629 -0.084580
C176  C     C_R   0.922019 0.427841 0.660663 -0.167972
C177  C     C_R   0.878073 0.395023 0.609515 -0.119318
C178  C     C_R   0.892712 0.358983 0.585409 -0.088532
C179  C     C_R   0.658948 0.843826 0.816822 -0.128317
C180  C     C_R   0.951410 0.355754 0.612487 -0.145658
C181  C     C_R   0.025740 0.581764 0.718344 0.177461
C182  C     C_R   0.965643 0.599498 0.660330 -0.138309
C183  C     C_R   0.919077 0.582571 0.655502 -0.146869
C184  C     C_R   0.932250 0.548065 0.708815 -0.124675
C185  C     C_R   0.992013 0.530263 0.766748 -0.150312
C186  C     C_R   0.038605 0.546746 0.771108 -0.117456
C187  C     C_R   0.004176 0.387899 0.336303 0.142107
C188  C     C_R   0.019160 0.423545 0.311535 -0.086274
C189  C     C_R   0.078019 0.426379 0.339005 -0.166568
C190  C     C_R   0.663030 0.156292 0.816438 -0.139619
C191  C     C_R   0.121806 0.393339 0.390004 -0.118072
C192  C     C_R   0.107149 0.357588 0.414455 -0.088714
C193  C     C_R   0.048551 0.354838 0.387740 -0.144353
C194  C     C_R   0.340838 0.843711 0.183090 -0.127503
C195  C     C_R   0.838576 0.655952 0.181864 -0.125638
C196  C     C_R   0.693999 0.190413 0.882090 0.800357
C197  C     C_R   0.159426 0.343791 0.817173 -0.126039
C198  C     C_R   0.161992 0.656297 0.816690 -0.130793
C199  C     C_R   0.840599 0.343758 0.182865 -0.128368
C200  C     C_R   0.386598 0.133854 0.199124 -0.086243
C201  C     C_R   0.596016 0.850863 0.772942 -0.076938
C202  C     C_R   0.620383 0.129506 0.808673 -0.058977
C203  C     C_R   0.403671 0.850652 0.226677 -0.077320
C204  C     C_R   0.893512 0.638861 0.207672 -0.084127
C205  C     C_R   0.097305 0.352105 0.775666 -0.078513
C206  C     C_R   0.114289 0.633051 0.802223 -0.088215
C207  C     C_R   0.307757 0.809704 0.117712 0.858537
C208  C     C_R   0.902830 0.351692 0.224692 -0.078850
C209  C     C_R   0.422376 0.103881 0.266678 -0.064323
C210  C     C_R   0.559452 0.878533 0.700936 -0.048112
C211  C     C_R   0.585355 0.098726 0.742588 -0.083739
C212  C     C_R   0.439786 0.879118 0.297345 -0.052069
C213  C     C_R   0.927990 0.608221 0.274326 -0.054378
C214  C     C_R   0.061268 0.380789 0.705346 -0.052864
C215  C     C_R   0.076812 0.604490 0.732383 -0.060036
C216  C     C_R   0.938812 0.380440 0.294863 -0.052969
C217  C     C_R   0.412947 0.099312 0.323607 -0.181816
C218  C     C_R   0.806885 0.690350 0.117517 0.873858
C219  C     C_R   0.585720 0.897554 0.670827 -0.191090
C220  C     C_R   0.587767 0.098108 0.678315 -0.155297
C221  C     C_R   0.413833 0.898003 0.328114 -0.191900
C222  C     C_R   0.911973 0.599395 0.323010 -0.179182
C223  C     C_R   0.086264 0.398209 0.672323 -0.192483
C224  C     C_R   0.085872 0.600209 0.675031 -0.177695
C225  C     C_R   0.913703 0.398248 0.327565 -0.192274
C226  C     C_R   0.944156 0.435776 0.388068 0.820623
C227  C     C_R   0.056858 0.563040 0.614523 0.832900
C228  C     C_R   0.055857 0.435757 0.611860 0.821025
C229  C     C_R   0.192331 0.309694 0.882343 0.859643
C230  C     C_R   0.942714 0.562932 0.385127 0.828450
C231  C     C_R   0.444316 0.935637 0.388429 0.817611
C232  C     C_R   0.557859 0.061979 0.616502 0.890589
C233  C     C_R   0.555382 0.935373 0.610845 0.817133
C234  C     C_R   0.442425 0.062433 0.384279 0.863488
C235  C     C_R   0.334572 0.249499 0.000132 0.816199
C236  C     C_R   0.665123 0.750892 0.999235 0.821896
C237  C     C_R   0.665305 0.249459 0.999630 0.824508
C238  C     C_R   0.335192 0.751043 0.001417 0.828182
C239  C     C_R   0.834447 0.749658 0.999873 0.814058
C240  C     C_R   0.193304 0.690367 0.882221 0.879960
C241  C     C_R   0.164796 0.251114 0.998554 0.830434
C242  C     C_R   0.165439 0.749635 0.999913 0.815700
C243  C     C_R   0.835156 0.250964 0.001317 0.782561
C244  C     C_1   0.385386 0.249468 0.999138 -0.191692
C245  C     C_1   0.614231 0.751339 0.000112 -0.187889
C246  C     C_1   0.614222 0.249320 0.000081 -0.197211
C247  C     C_1   0.386075 0.751065 0.000519 -0.183206
C248  C     C_1   0.885077 0.749962 0.998520 -0.188223
C249  C     C_1   0.113969 0.251034 0.999582 -0.184778
C250  C     C_1   0.114525 0.749850 0.000705 -0.192269
C251  C     C_R   0.807673 0.309697 0.117671 0.864550
C252  C     C_1   0.885579 0.250534 0.999539 -0.146629
C253  C     C_1   0.427754 0.249677 0.998815 -0.021351
C254  C     C_1   0.572110 0.751114 0.000928 -0.014025
C255  C     C_1   0.571698 0.249473 0.000084 -0.022163
C256  C     C_1   0.428170 0.750828 0.999653 -0.013647
C257  C     C_1   0.927426 0.750497 0.998165 -0.015073
C258  C     C_1   0.071826 0.250522 0.000350 -0.013969
C259  C     C_1   0.071965 0.750297 0.000638 -0.022517
C260  C     C_1   0.927596 0.250106 0.998513 0.006155
C261  C     C_1   0.478320 0.249650 0.999154 -0.025545
C262  C     C_R   0.370020 0.127166 0.315541 -0.009406
C263  C     C_1   0.521566 0.750879 0.000634 -0.029799
C264  C     C_1   0.521072 0.249571 0.999624 -0.023675
C265  C     C_1   0.478713 0.750781 0.999944 -0.030192
C266  C     C_1   0.978166 0.750668 0.998849 -0.026999
C267  C     C_1   0.021170 0.250124 0.999836 -0.028237
C268  C     C_1   0.021127 0.750575 0.999746 -0.026988
C269  C     C_1   0.978209 0.249989 0.998933 -0.029194
C270  C     C_R   0.273745 0.168997 0.219855 0.135730
C271  C     C_R   0.749795 0.861607 0.832804 0.120906
C272  C     C_R   0.717147 0.174458 0.765111 0.131365
Cu1   Cu    Cu3+1 0.280720 0.280980 0.061500 0.954551
Cu2   Cu    Cu3+1 0.957580 0.500000 0.500070 0.915591
Cu3   Cu    Cu3+1 0.542420 0.000000 0.499930 0.928320
Cu4   Cu    Cu3+1 0.457580 0.000000 0.500070 0.909102
Cu5   Cu    Cu3+1 0.719280 0.719020 0.938500 0.943774
Cu6   Cu    Cu3+1 0.719280 0.280980 0.938500 0.952320
Cu7   Cu    Cu3+1 0.280720 0.719020 0.061500 0.945023
Cu8   Cu    Cu3+1 0.780720 0.780980 0.061500 0.958108
Cu9   Cu    Cu3+1 0.219280 0.219020 0.938500 0.945043
Cu10  Cu    Cu3+1 0.219280 0.780980 0.938500 0.957595
Cu11  Cu    Cu3+1 0.780720 0.219020 0.061500 0.935621
Cu12  Cu    Cu3+1 0.042420 0.500000 0.499930 0.925506
H1    H     H_    0.226153 0.179586 0.262897 0.150368
H2    H     H_    0.513016 0.183538 0.154946 0.127879
H3    H     H_    0.784001 0.455516 0.380062 0.117431
H4    H     H_    0.744452 0.466708 0.450967 0.117840
H5    H     H_    0.687547 0.407258 0.452321 0.121821
H6    H     H_    0.670298 0.336082 0.382606 0.129856
H7    H     H_    0.709558 0.324176 0.311413 0.126278
H8    H     H_    0.417115 0.098184 0.492797 0.244500
H9    H     H_    0.461994 0.125433 0.481218 0.229205
H10   H     H_    0.577849 0.875004 0.543328 0.203318
H11   H     H_    0.621081 0.912238 0.542925 0.254497
H12   H     H_    0.579936 0.103628 0.500309 0.244165
H13   H     H_    0.451173 0.144791 0.016302 0.123376
H14   H     H_    0.540451 0.149740 0.483797 0.200462
H15   H     H_    0.422162 0.875395 0.456260 0.204599
H16   H     H_    0.378884 0.912585 0.457027 0.254727
H17   H     H_    0.895750 0.593274 0.474012 0.244946
H18   H     H_    0.939041 0.626949 0.468006 0.199119
H19   H     H_    0.074872 0.374801 0.541594 0.201522
H20   H     H_    0.118666 0.411153 0.540577 0.254974
H21   H     H_    0.080237 0.599475 0.508186 0.255041
H22   H     H_    0.033073 0.626359 0.517032 0.192678
H23   H     H_    0.924607 0.375014 0.457966 0.202163
H24   H     H_    0.356604 0.103883 0.958797 0.120847
H25   H     H_    0.880860 0.411633 0.458938 0.254753
H26   H     H_    0.545233 0.120949 0.367890 0.126343
H27   H     H_    0.619744 0.083174 0.367401 0.131409
H28   H     H_    0.584891 0.021619 0.267885 0.112571
H29   H     H_    0.476142 0.995769 0.172484 0.118005
H30   H     H_    0.402131 0.031251 0.176465 0.112524
H31   H     H_    0.500917 0.945510 0.706739 0.150934
H32   H     H_    0.393138 0.946561 0.646691 0.124929
H33   H     H_    0.324756 0.882507 0.565649 0.141410
H34   H     H_    0.362755 0.818599 0.540106 0.130622
H35   H     H_    0.325333 0.099826 0.041310 0.124819
H36   H     H_    0.469255 0.818234 0.596446 0.118817
H37   H     H_    0.460963 0.102132 0.649173 0.130322
H38   H     H_    0.401986 0.056825 0.669770 0.116706
H39   H     H_    0.454982 0.998508 0.779812 0.118331
H40   H     H_    0.566742 0.983653 0.866610 0.122290
H41   H     H_    0.625879 0.027372 0.844615 0.117056
H42   H     H_    0.491120 0.946358 0.280145 0.132060
H43   H     H_    0.597776 0.950063 0.336029 0.126695
H44   H     H_    0.671541 0.889227 0.423298 0.138423
H45   H     H_    0.640059 0.825421 0.458463 0.133470
H46   H     H_    0.572920 0.888880 0.864539 0.117027
H47   H     H_    0.534691 0.822165 0.405753 0.120230
H48   H     H_    0.049740 0.630083 0.381670 0.146881
H49   H     H_    0.131354 0.595135 0.393004 0.145752
H50   H     H_    0.105211 0.532779 0.299045 0.111941
H51   H     H_    0.997837 0.503847 0.196585 0.113998
H52   H     H_    0.917037 0.536348 0.189499 0.108756
H53   H     H_    0.015758 0.449014 0.731224 0.122642
H54   H     H_    0.910649 0.455254 0.680172 0.126031
H55   H     H_    0.832954 0.397276 0.589479 0.136247
H56   H     H_    0.858734 0.333438 0.546141 0.141117
H57   H     H_    0.503899 0.860601 0.883550 0.123291
H58   H     H_    0.962779 0.327130 0.595117 0.123700
H59   H     H_    0.955668 0.627505 0.621445 0.134926
H60   H     H_    0.873276 0.597009 0.612104 0.148401
H61   H     H_    0.896304 0.535409 0.705803 0.112604
H62   H     H_    0.002371 0.503917 0.808824 0.115576
H63   H     H_    0.085078 0.533370 0.817456 0.109456
H64   H     H_    0.984491 0.448201 0.268979 0.121692
H65   H     H_    0.089361 0.453535 0.319133 0.124749
H66   H     H_    0.166799 0.395183 0.409617 0.135060
H67   H     H_    0.140995 0.331865 0.453593 0.138430
H68   H     H_    0.455643 0.787258 0.827590 0.129767
H69   H     H_    0.037108 0.326387 0.405218 0.123502
H70   H     H_    0.481291 0.740275 0.759948 0.127026
H71   H     H_    0.550045 0.768086 0.740245 0.132532
H72   H     H_    0.525310 0.170805 0.779605 0.130590
H73   H     H_    0.820164 0.873052 0.828687 0.153621
H74   H     H_    0.503189 0.171894 0.872941 0.133745
H75   H     H_    0.575384 0.136020 0.014909 0.121975
H76   H     H_    0.669736 0.098385 0.063233 0.118065
H77   H     H_    0.691440 0.095768 0.969392 0.119579
H78   H     H_    0.426044 0.885433 0.132089 0.118904
H79   H     H_    0.495815 0.855136 0.115628 0.124608
H80   H     H_    0.545369 0.782468 0.177119 0.129387
H81   H     H_    0.520523 0.738157 0.248197 0.126512
H82   H     H_    0.451299 0.768103 0.265779 0.131240
H83   H     H_    0.987442 0.692776 0.259265 0.121278
H84   H     H_    0.750462 0.194564 0.705770 0.163996
H85   H     H_    0.033021 0.698820 0.195486 0.124206
H86   H     H_    0.986312 0.658345 0.062628 0.123459
H87   H     H_    0.891426 0.614036 0.990436 0.123429
H88   H     H_    0.846106 0.606953 0.054419 0.127460
H89   H     H_    0.081319 0.388039 0.876683 0.119501
H90   H     H_    0.011869 0.360792 0.895672 0.123653
H91   H     H_    0.956661 0.290154 0.830774 0.131680
H92   H     H_    0.975913 0.244449 0.754301 0.128699
H93   H     H_    0.044965 0.271311 0.734439 0.130798
H94   H     H_    0.021503 0.679243 0.772404 0.126696
H95   H     H_    0.179751 0.873837 0.171457 0.153421
H96   H     H_    0.994945 0.680104 0.860597 0.133511
H97   H     H_    0.061061 0.640607 0.998919 0.121178
H98   H     H_    0.153890 0.599743 0.048821 0.120254
H99   H     H_    0.179509 0.596944 0.959484 0.125340
H100  H     H_    0.919960 0.386739 0.124441 0.119477
H101  H     H_    0.989293 0.358212 0.105886 0.123975
H102  H     H_    0.043373 0.287081 0.170664 0.129268
H103  H     H_    0.023254 0.242270 0.246824 0.128624
H104  H     H_    0.954398 0.270438 0.266369 0.130443
H105  H     H_    0.216494 0.219116 0.151180 0.216481
H106  H     H_    0.693590 0.645780 0.206828 0.152146
H107  H     H_    0.184079 0.169275 0.110152 0.216859
H108  H     H_    0.820497 0.880868 0.953895 0.220218
H109  H     H_    0.825576 0.828953 0.932489 0.205973
H110  H     H_    0.786232 0.170135 0.894572 0.216281
H111  H     H_    0.762620 0.222000 0.849857 0.238221
H112  H     H_    0.174654 0.828546 0.068730 0.205873
H113  H     H_    0.178750 0.880302 0.045738 0.220950
H114  H     H_    0.681012 0.684914 0.095706 0.204663
H115  H     H_    0.679536 0.632946 0.068733 0.221182
H116  H     H_    0.320978 0.379088 0.950616 0.220877
H117  H     H_    0.318375 0.369337 0.823053 0.153950
H118  H     H_    0.325077 0.326984 0.929080 0.205721
H119  H     H_    0.283632 0.718539 0.850592 0.217125
H120  H     H_    0.314526 0.667776 0.884016 0.215746
H121  H     H_    0.675288 0.327015 0.071247 0.205222
H122  H     H_    0.678493 0.379054 0.048547 0.221306
H123  H     H_    0.301897 0.222114 0.421183 0.123501
H124  H     H_    0.290663 0.225024 0.526219 0.122150
H125  H     H_    0.289984 0.156326 0.587879 0.119503
H126  H     H_    0.299936 0.084411 0.543563 0.114354
H127  H     H_    0.312052 0.080838 0.439572 0.116786
H128  H     H_    0.266380 0.686469 0.728757 0.151190
H129  H     H_    0.797008 0.827993 0.696891 0.126287
H130  H     H_    0.837351 0.841498 0.627574 0.128957
H131  H     H_    0.816804 0.912414 0.555350 0.122201
H132  H     H_    0.755630 0.970120 0.552528 0.122623
H133  H     H_    0.715224 0.957351 0.621861 0.121401
H134  H     H_    0.584683 0.218641 0.484461 0.128426
H135  H     H_    0.577227 0.232169 0.363290 0.125318
H136  H     H_    0.646901 0.192885 0.354383 0.119626
H137  H     H_    0.724635 0.140018 0.467502 0.122273
H138  H     H_    0.732038 0.125543 0.588458 0.127157
H139  H     H_    0.681296 0.370552 0.176057 0.153776
H140  H     H_    0.285306 0.958807 0.377418 0.120035
H141  H     H_    0.244629 0.972962 0.446092 0.121299
H142  H     H_    0.182665 0.916280 0.443293 0.122879
H143  H     H_    0.161787 0.844945 0.371999 0.128292
H144  H     H_    0.202440 0.830048 0.303402 0.124532
H145  H     H_    0.735668 0.690679 0.351016 0.124669
H146  H     H_    0.703687 0.681126 0.431854 0.123237
H147  H     H_    0.717526 0.609274 0.497476 0.120428
H148  H     H_    0.763500 0.546727 0.482083 0.117794
H149  H     H_    0.795636 0.555527 0.401374 0.119973
H150  H     H_    0.481034 0.181124 0.236590 0.124313
H151  H     H_    0.289307 0.322461 0.686959 0.125922
H152  H     H_    0.328231 0.333877 0.615265 0.126111
H153  H     H_    0.311384 0.405073 0.545919 0.120952
H154  H     H_    0.255127 0.465069 0.548044 0.122972
H155  H     H_    0.215832 0.454269 0.619313 0.121601
H156  H     H_    0.096747 0.709256 0.491936 0.144152
H157  H     H_    0.099599 0.726158 0.381152 0.122971
H158  H     H_    0.182000 0.694522 0.390352 0.121102
H159  H     H_    0.261988 0.645708 0.511063 0.126144
H160  H     H_    0.259482 0.627974 0.621989 0.126360
N1    N     N_3   0.223887 0.187947 0.138948 -0.598906
N2    N     N_3   0.622444 0.882869 0.569357 -0.586226
N3    N     N_3   0.564515 0.122616 0.523753 -0.611899
N4    N     N_3   0.377572 0.883299 0.430370 -0.582534
N5    N     N_3   0.895813 0.622428 0.448402 -0.600079
N6    N     N_3   0.119413 0.381844 0.566617 -0.590190
N7    N     N_3   0.073015 0.628208 0.527068 -0.621684
N8    N     N_3   0.880048 0.382309 0.432791 -0.590232
N9    N     N_3   0.794961 0.852272 0.922174 -0.563727
N10   N     N_3   0.772616 0.190299 0.844671 -0.605955
N11   N     N_3   0.204785 0.851897 0.078152 -0.564117
N12   N     N_3   0.707792 0.660621 0.099349 -0.581304
N13   N     N_3   0.295001 0.350569 0.919448 -0.565492
N14   N     N_3   0.275812 0.686775 0.859847 -0.599164
N15   N     N_3   0.704936 0.350702 0.080320 -0.565938
N16   N     N_3   0.421518 0.126532 0.469872 -0.595703
O1    O     O_R   0.321010 0.231060 0.142100 -0.580041
O2    O     O_R   0.730960 0.821350 0.961860 -0.557621
O3    O     O_R   0.730960 0.178650 0.961860 -0.586695
O4    O     O_R   0.269040 0.821350 0.038140 -0.558140
O5    O     O_R   0.769040 0.678650 0.038140 -0.571683
O6    O     O_R   0.230960 0.321350 0.961860 -0.559287
O7    O     O_R   0.230960 0.678650 0.961860 -0.580294
O8    O     O_R   0.769040 0.321350 0.038140 -0.556145
O9    O     O_R   0.337910 0.276140 0.051940 -0.562753
O10   O     O_R   0.662090 0.723860 0.948060 -0.559864
O11   O     O_R   0.662090 0.276140 0.948060 -0.557797
O12   O     O_R   0.678990 0.768940 0.857900 -0.597715
O13   O     O_R   0.337910 0.723860 0.051940 -0.560728
O14   O     O_R   0.837910 0.776140 0.051940 -0.561812
O15   O     O_R   0.162090 0.223860 0.948060 -0.561240
O16   O     O_R   0.162090 0.776140 0.948060 -0.562389
O17   O     O_R   0.837910 0.223860 0.051940 -0.567773
O18   O     O_R   0.285940 0.223740 0.947980 -0.565048
O19   O     O_R   0.714060 0.776260 0.052020 -0.571132
O20   O     O_R   0.714060 0.223740 0.052020 -0.560393
O21   O     O_R   0.285940 0.776260 0.947980 -0.575329
O22   O     O_R   0.785940 0.723740 0.947980 -0.568003
O23   O     O_R   0.678990 0.231060 0.857900 -0.578392
O24   O     O_R   0.214060 0.276260 0.052020 -0.574655
O25   O     O_R   0.214060 0.723740 0.052020 -0.564359
O26   O     O_R   0.785940 0.276260 0.947980 -0.582767
O27   O     O_R   0.990910 0.454660 0.410130 -0.582114
O28   O     O_R   0.009090 0.545340 0.589870 -0.586309
O29   O     O_R   0.009090 0.454660 0.589870 -0.582855
O30   O     O_R   0.990910 0.545340 0.410130 -0.585360
O31   O     O_R   0.490910 0.954660 0.410130 -0.585037
O32   O     O_R   0.509090 0.045340 0.589870 -0.603499
O33   O     O_R   0.509090 0.954660 0.589870 -0.587513
O34   O     O_R   0.321010 0.768940 0.142100 -0.597896
O35   O     O_R   0.490910 0.045340 0.410130 -0.579018
O36   O     O_R   0.919170 0.454670 0.410130 -0.593963
O37   O     O_R   0.080830 0.545330 0.589870 -0.586662
O38   O     O_R   0.080830 0.454670 0.589870 -0.592485
O39   O     O_R   0.919170 0.545330 0.410130 -0.594162
O40   O     O_R   0.419170 0.954670 0.410130 -0.595562
O41   O     O_R   0.580830 0.045330 0.589870 -0.571760
O42   O     O_R   0.580830 0.954670 0.589870 -0.596047
O43   O     O_R   0.419170 0.045330 0.410130 -0.595555
O44   O     O_R   0.821010 0.731060 0.142100 -0.585097
O45   O     O_R   0.178990 0.268940 0.857900 -0.596283
O46   O     O_R   0.178990 0.731060 0.857900 -0.579088
O47   O     O_R   0.821010 0.268940 0.142100 -0.594082
O48   O     O_R   0.269040 0.178650 0.038140 -0.581438

loop_
_geom_bond_atom_site_label_1
_geom_bond_atom_site_label_2
_ccdc_geom_bond_type
C206  C215  A    
C26   N16   S    
C160  H41   S    
C198  C206  A    
H19   N6    S    
C102  H134  S    
C72   H92   S    
C180  H58   S    
H111  N10   S    
C193  H69   S    
C211  C220  A    
C82   H100  S    
C228  O29   A    
C126  C127  A    
C110  H142  S    
C35   C124  A    
C98   H132  S    
C50   H74   S    
C173  H52   S    
C6    C146  A    
C88   H123  S    
C246  C255  T    
Cu4   O33   S    
C78   H98   S    
C108  C109  A    
C260  C269  S    
C2    C90   A    
C110  C111  A    
C52   H76   S    
C241  O24   A    
Cu10  O46   S    
H14   N3    S    
C11   H95   S    
C90   C271  A    
C238  C247  S    
C4    C12   A    
C81   C86   A    
C67   C205  S    
C198  C240  S    
C251  O8    A    
C59   C60   A    
C99   H133  S    
C187  C193  A    
C191  H66   S    
C32   C57   A    
C104  C105  A    
C58   H80   S    
C45   C47   A    
H17   N5    S    
C101  C272  A    
C11   C20   A    
C60   H82   S    
C191  C192  A    
C4    N12   S    
C241  C249  S    
C22   C31   A    
H11   N2    S    
C144  C145  A    
C92   H126  S    
Cu6   O23   S    
C181  C182  A    
C239  O22   A    
C239  C248  S    
C117  H146  S    
C217  C234  S    
C218  O5    A    
C75   C76   A    
C37   C38   A    
C127  H155  S    
C186  H63   S    
C158  H39   S    
C19   C100  S    
C148  C149  A    
C14   H117  S    
C154  C155  A    
C40   H35   S    
C66   H88   S    
C205  C214  A    
C188  H64   S    
C231  O31   A    
C158  C159  A    
C233  O42   A    
Cu9   O15   S    
C234  O43   A    
Cu12  O37   S    
C141  C209  S    
C91   C92   A    
C252  C260  T    
H18   N5    S    
C232  O41   A    
C105  C106  A    
C253  C261  S    
C16   C25   A    
C263  C265  T    
H121  N15   S    
C230  O39   A    
C17   C87   S    
C241  O15   A    
C236  O10   A    
C8    C17   A    
C72   C73   A    
Cu3   O31   S    
C135  C197  A    
C3    N11   S    
C139  C140  A    
C7    C157  A    
C1    O1    A    
C100  C106  A    
C200  C209  A    
C209  C217  A    
C156  C158  A    
C130  C131  A    
C196  O23   A    
C64   C65   A    
C140  H7    S    
C32   N7    S    
C12   C21   A    
C69   C70   A    
C3    C11   A    
C141  C147  A    
C55   H78   S    
C34   C200  S    
C88   C89   A    
C98   C99   A    
C155  C156  A    
C79   C262  A    
Cu5   O10   S    
C243  O26   A    
C67   C69   A    
C149  C150  A    
C143  C144  A    
C23   C128  S    
C218  O44   A    
C95   C96   A    
C113  C194  A    
C249  C258  T    
C235  O18   A    
C128  C129  A    
C97   C98   A    
Cu2   O29   S    
C167  C169  A    
C24   C221  A    
C169  H48   S    
C240  O46   A    
C194  C207  S    
Cu11  O20   S    
C36   C37   A    
H112  N11   S    
C118  H147  S    
C138  H5    S    
C148  C210  S    
H23   N8    S    
C175  H53   S    
C38   C39   A    
C271  N9    S    
Cu9   O48   S    
C78   C80   A    
C126  H154  S    
C170  C171  A    
C54   C203  S    
C48   C202  S    
C184  C185  A    
C4    C124  A    
C189  C191  A    
C236  O19   A    
C174  C175  A    
C8    C270  A    
C259  C268  S    
C182  C183  A    
C270  N1    S    
H107  N1    S    
C164  H44   S    
H10   N2    S    
C31   C46   A    
Cu6   O8    S    
C107  C108  A    
C89   C91   A    
C103  H135  S    
C247  C256  T    
C112  O2    A    
C122  H151  S    
C237  O20   A    
H122  N15   S    
Cu1   O9    S    
C69   H89   S    
C105  H137  S    
C234  O35   A    
C48   C53   A    
C161  C212  S    
C189  H65   S    
C1    O48   A    
Cu10  O16   S    
C131  H158  S    
C226  O36   A    
C9    H73   S    
C39   C40   A    
C190  C202  A    
H21   N7    S    
C243  O17   A    
C210  C219  A    
C242  O16   A    
C237  O11   A    
C238  O21   A    
C146  C198  A    
C96   H130  S    
C229  O6    A    
C83   C84   A    
Cu6   O26   S    
C41   C47   A    
Cu5   O12   S    
C114  H144  S    
C19   C28   A    
Cu12  O27   S    
C2    C27   A    
C266  C268  T    
H110  N10   S    
H109  N9    S    
C6    N14   S    
Cu6   Cu11  S    
Cu8   O44   S    
C167  C213  S    
C226  O27   A    
C174  C180  A    
C250  C259  T    
C52   C53   A    
Cu3   O41   S    
C129  C130  A    
C5    C135  A    
C233  O33   A    
C187  C216  S    
C133  H160  S    
H119  N14   S    
Cu10  O4    S    
C136  C137  A    
C153  H36   S    
C143  H27   S    
C254  C263  S    
C261  C264  T    
C181  C186  A    
C144  H28   S    
C155  H37   S    
C197  C229  S    
C14   C22   A    
C227  O28   A    
C71   C72   A    
Cu2   O28   S    
C117  C118  A    
C217  C262  A    
C87   C93   A    
C184  H61   S    
C56   C58   A    
C34   C36   A    
C13   C220  A    
C61   C62   A    
C214  C223  A    
C63   C64   A    
C43   H57   S    
C9    C18   A    
C152  C153  A    
C222  C230  S    
C20   C29   A    
C49   C50   A    
Cu5   Cu8   S    
C150  C151  A    
C10   C272  A    
H8    N16   S    
C57   C146  A    
C136  H3    S    
C13   C101  A    
C33   C68   A    
C25   C33   A    
C49   H72   S    
Cu8   O14   S    
Cu2   O39   S    
C256  C265  S    
Cu7   O13   S    
C56   H79   S    
C239  O14   A    
C119  H148  S    
C41   C42   A    
C219  C233  S    
C197  C205  A    
Cu3   Cu4   S    
C21   C115  S    
C215  C224  A    
C161  C162  A    
C29   N4    S    
H105  N1    S    
C77   C78   A    
C15   H128  S    
C164  C165  A    
C121  C127  A    
C61   C204  S    
Cu1   O24   S    
C123  C125  A    
C240  O7    A    
C77   H97   S    
C170  H49   S    
Cu11  O47   S    
C24   C29   A    
C145  C147  A    
C46   C135  A    
C54   C55   A    
Cu9   O45   S    
C179  C201  A    
C123  H152  S    
C227  O37   A    
C31   N6    S    
C151  C152  A    
C13   C28   A    
C251  O47   A    
C70   C71   A    
C67   C73   A    
C80   H99   S    
C202  C211  A    
C167  C173  A    
C196  O3    A    
C112  O12   A    
C159  H40   S    
C9    C271  A    
C178  H56   S    
C74   C80   A    
Cu6   O11   S    
C85   H103  S    
C171  H50   S    
C150  H32   S    
C86   H104  S    
Cu12  O38   S    
C84   H102  S    
C59   H81   S    
C230  O30   A    
C182  H59   S    
C62   H83   S    
C242  C250  S    
C228  O38   A    
C84   C85   A    
C101  C190  A    
C35   C222  A    
Cu7   O34   S    
C68   C225  A    
C195  C204  A    
C1    C168  S    
C58   C59   A    
C85   C86   A    
C82   C83   A    
C46   C223  A    
C51   C52   A    
C174  C214  S    
C107  C114  A    
C154  C211  S    
Cu5   O22   S    
H22   N7    S    
C162  H42   S    
C156  H38   S    
C159  C160  A    
C10   C19   A    
C50   C51   A    
C181  C215  S    
C10   H84   S    
C25   C134  S    
C5    C14   A    
Cu7   O25   S    
C81   C208  S    
C8    H1    S    
C97   H131  S    
C48   C49   A    
Cu1   O6    S    
C166  H47   S    
C125  C126  A    
C42   C43   A    
C41   C201  S    
C131  C132  A    
C224  C227  S    
C232  O32   A    
C272  N10   S    
C44   C45   A    
C22   C121  S    
C162  C163  A    
C7    N15   S    
C168  C200  A    
C207  O34   A    
C236  C245  S    
C129  H156  S    
C257  C266  S    
C33   N8    S    
C37   H2    S    
C178  C180  A    
C119  C120  A    
H118  N13   S    
C21   C30   A    
C216  C225  A    
C137  H4    S    
Cu1   Cu9   S    
C23   C32   A    
C242  O25   A    
C187  C188  A    
C109  C110  A    
H16   N4    S    
C267  C269  T    
C185  C186  A    
C92   C93   A    
H9    N16   S    
C109  H141  S    
C237  C246  S    
C39   H24   S    
C111  C114  A    
C115  C120  A    
C94   C95   A    
C235  C244  S    
C138  C139  A    
H116  N13   S    
C76   H96   S    
C93   H127  S    
C36   H150  S    
C255  C264  S    
C87   C88   A    
C177  C178  A    
C103  C104  A    
H25   N8    S    
C165  H45   S    
C142  C143  A    
H113  N11   S    
C128  C133  A    
C139  H6    S    
C115  C116  A    
Cu12  O30   S    
C57   C224  A    
C171  C172  A    
C165  C166  A    
C44   H68   S    
C169  C170  A    
C163  C164  A    
C43   C44   A    
C177  H55   S    
C81   C82   A    
H120  N14   S    
C54   C60   A    
H115  N12   S    
C62   C63   A    
C30   C35   A    
C34   C40   A    
C17   C26   A    
C176  H54   S    
C73   H93   S    
C134  C140  A    
Cu10  O21   S    
C28   N3    S    
C151  H33   S    
C116  C117  A    
C132  H159  S    
C213  C222  A    
Cu7   Cu10  S    
C118  C119  A    
C199  C208  A    
C6    C15   A    
C95   H129  S    
C61   C66   A    
Cu4   O43   S    
C175  C176  A    
C145  H29   S    
C132  C133  A    
C104  H136  S    
C79   C168  A    
Cu11  O3    S    
C161  C166  A    
C190  C196  S    
C20   C107  S    
C120  H149  S    
C15   C23   A    
C231  O40   A    
C24   C113  A    
C208  C216  A    
C102  C103  A    
C70   H90   S    
C258  C267  S    
Cu2   O36   S    
C149  H31   S    
C111  H143  S    
C212  C221  A    
Cu11  O17   S    
C79   C270  A    
C74   C75   A    
C220  C232  S    
C63   H85   S    
C53   H77   S    
Cu2   Cu12  S    
C76   C77   A    
C3    C113  A    
C183  H60   S    
C223  C228  S    
C134  C136  A    
Cu4   O32   S    
C185  H62   S    
C204  C213  A    
C229  O45   A    
C248  C257  T    
C188  C189  A    
C157  C199  A    
C183  C184  A    
C154  C160  A    
Cu3   O35   S    
C75   H94   S    
C96   C97   A    
C221  C231  S    
C55   C56   A    
C100  C102  A    
C225  C226  S    
C121  C122  A    
C130  H157  S    
C163  H43   S    
Cu9   O18   S    
H108  N9    S    
C116  H145  S    
C112  C179  S    
C199  C251  S    
C176  C177  A    
H15   N4    S    
C83   H101  S    
C45   H70   S    
C147  H30   S    
C5    N13   S    
C18   C94   S    
C203  C212  A    
C30   N5    S    
C16   H139  S    
C51   H75   S    
C106  H138  S    
C201  C210  A    
C47   H71   S    
C172  C173  A    
C74   C206  S    
Cu8   O19   S    
Cu4   O40   S    
C90   C179  A    
C7    C16   A    
C243  C252  S    
H20   N6    S    
H114  N12   S    
C89   H124  S    
C18   C27   A    
C152  H34   S    
C91   H125  S    
C26   C262  A    
C27   N2    S    
C71   H91   S    
C137  C138  A    
C244  C253  T    
C192  C193  A    
Cu1   O1    S    
C108  H140  S    
C12   H106  S    
C141  C142  A    
C65   H87   S    
C2    C219  A    
H12   N3    S    
Cu7   O7    S    
C94   C99   A    
C194  C203  A    
C124  C195  A    
Cu8   O2    S    
C142  H26   S    
Cu5   O5    S    
C235  O9    A    
C195  C218  S    
C42   H46   S    
C64   H86   S    
C245  C254  T    
C125  H153  S    
C207  O4    A    
Cu3   O42   S    
C38   H13   S    
C65   C66   A    
C148  C153  A    
C238  O13   A    
C122  C123  A    
C172  H51   S    
C68   C157  A    
C192  H67   S    
