data_mof_unit_8007.cif
_audit_creation_date              2012-12-11T15:50:36-0500
_audit_creation_method            fapswitch 2.2
_symmetry_space_group_name_H-M    P1
_symmetry_Int_Tables_number       1
_space_group_crystal_system       orthorhombic
_cell_length_a                    6.919832
_cell_length_b                    14.552664
_cell_length_c                    16.155029
_cell_angle_alpha                 90.0
_cell_angle_beta                  90.0
_cell_angle_gamma                 90.0
_cell_volume                      1626.84356933

loop_
_atom_site_label
_atom_site_type_symbol
_atom_type_description
_atom_site_fract_x
_atom_site_fract_y
_atom_site_fract_z
_atom_type_partial_charge
O1    O     O_R   0.638140 0.833910 0.163320 -0.543825
O2    O     O_R   0.361860 0.166090 0.836680 -0.543825
O3    O     O_R   0.361860 0.166090 0.663320 -0.543825
O4    O     O_R   0.638140 0.833910 0.336680 -0.543825
O5    O     O_R   0.138140 0.666090 0.336680 -0.543825
O6    O     O_R   0.861860 0.333910 0.663320 -0.543825
O7    O     O_R   0.861860 0.333910 0.836680 -0.543825
O8    O     O_R   0.138140 0.666090 0.163320 -0.543825
O9    O     O_R   0.308390 0.844930 0.336080 -0.532264
O10   O     O_R   0.691610 0.155070 0.663920 -0.532264
O11   O     O_R   0.691610 0.155070 0.836080 -0.532264
O12   O     O_R   0.308390 0.844930 0.163920 -0.532264
O13   O     O_R   0.808390 0.655070 0.163920 -0.532264
O14   O     O_R   0.191610 0.344930 0.836080 -0.532264
O15   O     O_R   0.191610 0.344930 0.663920 -0.532263
O16   O     O_R   0.808390 0.655070 0.336080 -0.532263
C1    C     C_R   0.478278 0.868622 0.363778 0.687442
C2    C     C_R   0.521722 0.131378 0.636222 0.687442
C3    C     C_R   0.521722 0.131378 0.863778 0.687442
C4    C     C_R   0.478278 0.868622 0.136222 0.687442
C5    C     C_R   0.978278 0.631378 0.136222 0.687442
C6    C     C_R   0.021722 0.368622 0.863778 0.687442
C7    C     C_R   0.021722 0.368622 0.636222 0.687442
C8    C     C_R   0.978278 0.631378 0.363778 0.687442
O17   O     O_3   0.471620 0.691320 0.250000 -0.351019
O18   O     O_3   0.528380 0.308680 0.750000 -0.351019
O19   O     O_3   0.971620 0.808680 0.250000 -0.351019
O20   O     O_3   0.028380 0.191320 0.750000 -0.351019
V1    V     V_3+5 0.196770 0.760880 0.250000 1.514648
V2    V     V_3+5 0.803230 0.239120 0.750000 1.514648
V3    V     V_3+5 0.696770 0.739120 0.250000 1.514648
V4    V     V_3+5 0.303230 0.260880 0.750000 1.514648
C9    C     C_R   0.834994 0.553360 0.486990 -0.168246
C10   C     C_R   0.165006 0.446640 0.513010 -0.168246
C11   C     C_R   0.165005 0.446640 0.986990 -0.168246
C12   C     C_R   0.834995 0.553360 0.013010 -0.168246
C13   C     C_R   0.334996 0.946639 0.013009 -0.168246
C14   C     C_R   0.665004 0.053361 0.986991 -0.168246
C15   C     C_R   0.665004 0.053361 0.513009 -0.168246
C16   C     C_R   0.334996 0.946639 0.486991 -0.168246
H1    H     H_    0.707382 0.595624 0.478501 0.129557
H2    H     H_    0.292618 0.404376 0.521499 0.129557
H3    H     H_    0.292617 0.404375 0.978501 0.129556
H4    H     H_    0.707383 0.595625 0.021499 0.129556
H5    H     H_    0.207385 0.904374 0.021498 0.129556
H6    H     H_    0.792615 0.095626 0.978502 0.129556
H7    H     H_    0.792615 0.095626 0.521497 0.129555
H8    H     H_    0.207385 0.904373 0.478503 0.129555
C17   C     C_R   0.842215 0.492381 0.554170 -0.042795
C18   C     C_R   0.157785 0.507619 0.445830 -0.042795
C19   C     C_R   0.157785 0.507619 0.054170 -0.042795
C20   C     C_R   0.842215 0.492381 0.945830 -0.042795
C21   C     C_R   0.342216 0.007618 0.945830 -0.042795
C22   C     C_R   0.657784 0.992382 0.054170 -0.042795
C23   C     C_R   0.657783 0.992382 0.445829 -0.042795
C24   C     C_R   0.342216 0.007618 0.554171 -0.042795
C25   C     C_R   0.008887 0.437507 0.567843 -0.090231
C26   C     C_R   0.991113 0.562492 0.432157 -0.090231
C27   C     C_R   0.991113 0.562492 0.067843 -0.090231
C28   C     C_R   0.008887 0.437507 0.932157 -0.090231
C29   C     C_R   0.508887 0.062492 0.932157 -0.090231
C30   C     C_R   0.491113 0.937507 0.067843 -0.090231
C31   C     C_R   0.491113 0.937507 0.432157 -0.090231
C32   C     C_R   0.508887 0.062492 0.567843 -0.090231
C33   C     C_1   0.677966 0.490967 0.609247 0.287456
N1    N     N_1   0.545684 0.490470 0.653040 -0.308909
C34   C     C_1   0.322034 0.509033 0.390753 0.287456
N2    N     N_1   0.454316 0.509530 0.346960 -0.308909
C35   C     C_1   0.322033 0.509032 0.109248 0.287456
N3    N     N_1   0.454314 0.509529 0.153041 -0.308909
C36   C     C_1   0.677967 0.490968 0.890752 0.287456
N4    N     N_1   0.545686 0.490471 0.846959 -0.308909
C37   C     C_1   0.177969 0.009031 0.890752 0.287457
N5    N     N_1   0.045687 0.009528 0.846959 -0.308908
C38   C     C_1   0.822031 0.990968 0.109248 0.287457
N6    N     N_1   0.954313 0.990472 0.153041 -0.308908
C39   C     C_1   0.822031 0.990969 0.390751 0.287458
N7    N     N_1   0.954312 0.990472 0.346958 -0.308908
C40   C     C_1   0.177969 0.009031 0.609248 0.287458
N8    N     N_1   0.045688 0.009528 0.653042 -0.308908

loop_
_geom_bond_atom_site_label_1
_geom_bond_atom_site_label_2
_ccdc_geom_bond_type
O17   V3    S    
O18   V4    S    
C9    C26   A    
O12   V1    S    
O19   V1    S    
C37   N5    T    
C10   H2    S    
C12   C27   A    
C13   C30   A    
O15   V4    S    
C39   N7    T    
O16   V3    S    
C15   C32   A    
O11   C3    A    
C16   C31   A    
C17   C33   S    
O8    V1    S    
C3    C29   S    
C5    C27   S    
C6    C28   S    
C23   C39   S    
C9    C17   A    
O1    V3    S    
C17   C25   A    
O3    C2    A    
O2    V4    S    
C16   H8    S    
C20   C28   A    
C21   C29   A    
C15   C23   A    
O11   V2    S    
C16   C24   A    
C23   C31   A    
C10   C25   A    
C24   C32   A    
C11   H3    S    
C18   C34   S    
C12   C20   A    
O9    V1    S    
C14   C29   A    
C13   C21   A    
O15   C7    A    
O16   C8    A    
O7    V2    S    
O3    V4    S    
O5    V1    S    
O17   V1    S    
C10   C18   A    
O19   V3    S    
C34   N2    T    
C18   C26   A    
O20   V4    S    
C22   C30   A    
C40   N8    T    
C11   C28   A    
C38   N6    T    
O10   V2    S    
C14   C22   A    
O12   C4    A    
O8    C5    A    
O13   C5    A    
C24   C40   S    
O4    C1    A    
O9    C1    A    
O6    V2    S    
O18   V2    S    
C11   C19   A    
C12   H4    S    
C19   C27   A    
C13   H5    S    
C15   H7    S    
C7    C25   S    
O1    C4    A    
O2    C3    A    
O13   V3    S    
C21   C37   S    
O14   V4    S    
O7    C6    A    
C9    H1    S    
O14   C6    A    
O20   V2    S    
C36   N4    T    
C20   C36   S    
C1    C31   S    
C2    C32   S    
O5    C8    A    
O10   C2    A    
O6    C7    A    
C4    C30   S    
C35   N3    T    
C14   H6    S    
O4    V3    S    
C22   C38   S    
C8    C26   S    
C33   N1    T    
C19   C35   S    
