data_mof_unit_11198.cif
_audit_creation_date              2012-12-10T19:04:11-0500
_audit_creation_method            fapswitch 2.2
_symmetry_space_group_name_H-M    P1
_symmetry_Int_Tables_number       1
_space_group_crystal_system       triclinic
_cell_length_a                    10.629808
_cell_length_b                    10.836431
_cell_length_c                    9.557691
_cell_angle_alpha                 90.327166
_cell_angle_beta                  89.697607
_cell_angle_gamma                 89.982779
_cell_volume                      1100.90925645

loop_
_atom_site_label
_atom_site_type_symbol
_atom_type_description
_atom_site_fract_x
_atom_site_fract_y
_atom_site_fract_z
_atom_type_partial_charge
C1    C     C_R   0.497959 0.262438 0.499637 0.832687
C2    C     C_3   0.960431 0.494247 0.367082 -0.139521
C3    C     C_3   0.042910 0.396337 0.439517 -0.169955
C4    C     C_3   0.122431 0.500810 0.501358 0.020438
C5    C     C_R   0.480922 0.064308 0.624310 0.052403
C6    C     C_R   0.486659 0.129409 0.498843 -0.059131
C7    C     C_R   0.474813 0.063775 0.372238 -0.207387
C8    C     C_R   0.474622 0.935008 0.372582 -0.207982
C9    C     C_R   0.485569 0.870834 0.499624 -0.064539
C10   C     C_R   0.478807 0.937489 0.624737 0.063502
C11   C     C_3   0.556705 0.930498 0.753908 -0.486542
C12   C     C_R   0.259321 0.500459 0.500410 0.776766
C13   C     C_3   0.559007 0.070777 0.754065 0.118734
C14   C     C_R   0.608514 0.520605 0.073167 0.266176
C15   C     C_R   0.395763 0.467191 0.074576 -0.088393
C16   C     C_R   0.395708 0.467357 0.926060 -0.088116
C17   C     C_R   0.608751 0.519723 0.925916 0.299510
C18   C     C_3   0.690225 0.631351 0.919934 -0.513069
C19   C     C_3   0.688758 0.633272 0.078757 -0.500244
C20   C     C_R   0.497784 0.737675 0.500162 0.793154
C21   C     C_R   0.740721 0.499811 0.499640 0.809977
C22   C     C_3   0.039804 0.506475 0.633274 -0.148298
C23   C     C_3   0.958019 0.401986 0.571235 -0.143389
C24   C     C_3   0.877700 0.499899 0.498931 0.015302
C25   C     C_3   0.957244 0.604433 0.560887 -0.175978
C26   C     C_3   0.042211 0.598827 0.429085 -0.160906
Cu1   Cu    Cu3+1 0.499990 0.499980 0.640670 0.959183
Cu2   Cu    Cu3+1 0.500010 0.500020 0.359330 0.942912
H1    H     H_    0.921307 0.321443 0.629582 0.187664
H2    H     H_    0.649892 0.887162 0.733615 0.221436
H3    H     H_    0.507203 0.112664 0.843839 0.130215
H4    H     H_    0.310684 0.441725 0.129527 0.146669
H5    H     H_    0.310607 0.442183 0.871623 0.141556
H6    H     H_    0.784525 0.610717 0.874658 0.200529
H7    H     H_    0.641299 0.711107 0.873249 0.211367
H8    H     H_    0.782512 0.614794 0.124775 0.192964
H9    H     H_    0.638472 0.714361 0.123884 0.214545
H10   H     H_    0.074757 0.511499 0.742422 0.134785
H11   H     H_    0.918940 0.689461 0.610557 0.136687
H12   H     H_    0.079769 0.679368 0.371020 0.133928
H13   H     H_    0.926169 0.488127 0.257846 0.133092
H14   H     H_    0.081068 0.311198 0.389981 0.134014
H15   H     H_    0.471807 0.111142 0.272824 0.164754
H16   H     H_    0.471875 0.886458 0.273268 0.160556
H17   H     H_    0.502972 0.891776 0.843568 0.170798
N1    N     N_R   0.500800 0.500930 0.147930 -0.188340
N2    N     N_R   0.500800 0.500890 0.852020 -0.185820
O1    O     O_R   0.500000 0.319640 0.618810 -0.558956
O2    O     O_R   0.500010 0.319680 0.381230 -0.588752
O3    O     O_R   0.316850 0.499950 0.618770 -0.597425
O4    O     O_R   0.316860 0.499990 0.381190 -0.594344
O5    O     O_R   0.499990 0.680320 0.618770 -0.579397
O6    O     O_R   0.500000 0.680360 0.381190 -0.587754
O7    O     O_R   0.683140 0.500010 0.618810 -0.570534
O8    O     O_R   0.683150 0.500050 0.381230 -0.585955
Br1   Br    Br    0.727479 0.136122 0.724314 -0.575574

loop_
_geom_bond_atom_site_label_1
_geom_bond_atom_site_label_2
_ccdc_geom_bond_type
Cu1   O1    S    
C12   O3    A    
C23   C24   S    
C3    H14   S    
C6    C7    A    
C7    H15   S    
C16   H5    S    
C4    C12   S    
C4    C22   S    
C9    C10   A    
C9    C20   S    
C4    C26   S    
Cu1   O3    S    
Cu2   O6    S    
C13   Br1   S    
C26   H12   S    
C17   C18   S    
Cu1   O7    S    
C15   H4    S    
C2    C26   S    
C24   C25   S    
C11   C13   S    
C14   C17   A    
Cu2   N1    S    
C5    C6    A    
C1    O2    A    
C15   C16   A    
C23   H1    S    
C16   N2    A    
C5    C10   A    
Cu2   O8    S    
C2    C3    S    
C19   H8    S    
C18   H6    S    
C1    O1    A    
C2    C24   S    
C21   O7    A    
Cu2   O4    S    
C11   H17   S    
C10   C11   S    
C2    H13   S    
C1    C6    S    
C22   H10   S    
C17   N2    A    
C7    C8    A    
C12   O4    A    
Cu1   O5    S    
C18   H7    S    
C20   O5    A    
C18   C19   S    
Cu2   O2    S    
C21   C24   S    
Cu1   N2    S    
Cu1   Cu2   S    
C21   O8    A    
C3    C23   S    
C22   C23   S    
C20   O6    A    
C19   H9    S    
C15   N1    A    
C25   C26   S    
C5    C13   S    
C14   C19   S    
C13   H3    S    
C25   H11   S    
C3    C4    S    
C8    H16   S    
C11   H2    S    
C8    C9    A    
C14   N1    A    
C22   C25   S    
