data_mof_unit_42478.cif
_audit_creation_date              2012-12-10T17:40:56-0500
_audit_creation_method            fapswitch 2.2
_symmetry_space_group_name_H-M    P1
_symmetry_Int_Tables_number       1
_space_group_crystal_system       triclinic
_cell_length_a                    15.078672
_cell_length_b                    13.713688
_cell_length_c                    11.690845
_cell_angle_alpha                 90.005319
_cell_angle_beta                  89.876556
_cell_angle_gamma                 90.000861
_cell_volume                      2417.47644727

loop_
_atom_site_label
_atom_site_type_symbol
_atom_type_description
_atom_site_fract_x
_atom_site_fract_y
_atom_site_fract_z
_atom_type_partial_charge
C1    C     C_R   0.328695 0.499943 0.500887 1.003285
C2    C     C_R   0.671307 0.499944 0.499091 1.003944
C3    C     C_R   0.906839 0.522376 0.394816 -0.011877
C4    C     C_R   0.093170 0.522288 0.605183 -0.012405
C5    C     C_R   0.953070 0.542912 0.704795 -0.140175
C6    C     C_R   0.046943 0.543056 0.295225 -0.141212
C7    C     C_R   0.045091 0.543575 0.705123 -0.110399
C8    C     C_R   0.954922 0.543722 0.294897 -0.108469
C9    C     C_R   0.455028 0.792953 0.583186 0.040350
C10   C     C_R   0.544095 0.206907 0.416183 0.051295
C11   C     C_R   0.544587 0.793102 0.416675 0.060934
C12   C     C_R   0.455791 0.206804 0.583559 0.073129
C13   C     C_R   0.544568 0.896239 0.413019 -0.059198
C14   C     C_R   0.453856 0.103663 0.585595 -0.063690
C15   C     C_R   0.453840 0.896289 0.586363 -0.073421
C16   C     C_R   0.545130 0.103591 0.412875 -0.078251
C17   C     C_R   0.499255 0.948183 0.499584 -0.006350
C18   C     C_R   0.499402 0.051688 0.499314 -0.006020
C19   C     C_R   0.589037 0.947861 0.325251 0.218098
C20   C     C_R   0.408061 0.052102 0.672257 0.214619
C21   C     C_R   0.409100 0.948768 0.673873 0.186241
C22   C     C_R   0.590662 0.051194 0.326016 0.182544
C23   C     C_R   0.500159 0.500068 0.283863 0.943642
C24   C     C_R   0.499827 0.500074 0.716136 0.942214
C25   C     C_1   0.500058 0.500183 0.162265 -0.053097
C26   C     C_1   0.499929 0.500202 0.837735 -0.051779
C27   C     C_1   0.500014 0.500243 0.059834 0.063531
C28   C     C_1   0.499973 0.500253 0.940166 0.064707
C29   C     C_R   0.814468 0.505289 0.393547 0.305576
C30   C     C_R   0.185538 0.505186 0.606423 0.303361
C31   C     C_R   0.768246 0.500367 0.499172 -0.283411
C32   C     C_R   0.231757 0.500363 0.500795 -0.284110
C33   C     C_R   0.813846 0.504657 0.604963 0.246007
C34   C     C_R   0.186162 0.504735 0.395013 0.246236
C35   C     C_R   0.906051 0.521856 0.604301 -0.013751
C36   C     C_R   0.093959 0.521931 0.395695 -0.014415
C37   C     C_R   0.952984 0.522547 0.499768 0.009551
C38   C     C_R   0.047025 0.522545 0.500229 0.009628
Cu1   Cu    Cu3+1 0.500000 0.597420 0.500000 1.021172
Cu2   Cu    Cu3+1 0.500000 0.402580 0.500000 1.061502
H1    H     H_    0.919665 0.561582 0.783556 0.228937
H2    H     H_    0.080350 0.561772 0.216484 0.228863
H3    H     H_    0.077386 0.563710 0.783889 0.217311
H4    H     H_    0.922629 0.563881 0.216141 0.217703
H5    H     H_    0.420505 0.750519 0.647000 0.154880
H6    H     H_    0.578507 0.249097 0.352324 0.164983
H7    H     H_    0.580328 0.751365 0.353063 0.180941
H8    H     H_    0.422254 0.248375 0.648995 0.187975
N1    N     N_R   0.500000 0.743810 0.500000 -0.204237
N2    N     N_R   0.500000 0.256190 0.500000 -0.198399
O1    O     O_R   0.370260 0.582280 0.500020 -0.592957
O2    O     O_R   0.629740 0.417720 0.499980 -0.526185
O3    O     O_R   0.629740 0.582280 0.499980 -0.590689
O4    O     O_R   0.370260 0.417720 0.500020 -0.527118
O5    O     O_R   0.500010 0.582270 0.337200 -0.590407
O6    O     O_R   0.499990 0.417730 0.662800 -0.567692
O7    O     O_R   0.499990 0.582270 0.662800 -0.590963
O8    O     O_R   0.500010 0.417730 0.337200 -0.569681
S1    S     S_3+6 0.757582 0.479440 0.262274 -0.016319
O9    O     O_2   0.711846 0.570472 0.221951 -0.306745
O10   O     O_2   0.819632 0.443777 0.170519 -0.262628
O11   O     O_3   0.681960 0.391340 0.282628 -0.579337
H9    H     H_    0.662783 0.371976 0.204878 0.364047
S2    S     S_3+6 0.242456 0.479141 0.737610 -0.018227
O12   O     O_2   0.288558 0.569998 0.777814 -0.318050
O13   O     O_2   0.180421 0.443745 0.829515 -0.261989
O14   O     O_3   0.317741 0.390712 0.717064 -0.571598
H10   H     H_    0.337365 0.371723 0.794748 0.369685
S3    S     S_3+6 0.757096 0.478726 0.736578 -0.000581
O15   O     O_2   0.718720 0.571904 0.782696 -0.270703
O16   O     O_2   0.683464 0.406825 0.718401 -0.310248
O17   O     O_3   0.825142 0.430265 0.835316 -0.479389
H11   H     H_    0.846999 0.368867 0.800624 0.355083
S4    S     S_3+6 0.242919 0.478872 0.263381 -0.001487
O18   O     O_2   0.281336 0.572066 0.217379 -0.271880
O19   O     O_2   0.316522 0.406931 0.281509 -0.312008
O20   O     O_3   0.174875 0.430501 0.164570 -0.479196
H12   H     H_    0.152998 0.369084 0.199184 0.354877
N3    N     N_2   0.630586 0.895549 0.234315 -0.429893
H13   H     H_    0.689715 0.924877 0.206424 0.287691
C39   C     C_3   0.571810 0.871748 0.140705 -0.640552
H14   H     H_    0.607667 0.826073 0.077265 0.247085
H15   H     H_    0.548753 0.939450 0.097781 0.228585
H16   H     H_    0.513504 0.829936 0.172043 0.231718
N4    N     N_2   0.359976 0.104537 0.757583 -0.447826
H17   H     H_    0.363181 0.074958 0.838492 0.284887
C40   C     C_3   0.270298 0.129543 0.725087 -0.607922
H18   H     H_    0.239914 0.175812 0.792555 0.253764
H19   H     H_    0.229827 0.062364 0.714997 0.231285
H20   H     H_    0.269965 0.171230 0.643599 0.241156
N5    N     N_2   0.362564 0.899307 0.762814 -0.436435
H21   H     H_    0.320565 0.844912 0.735211 0.263444
C41   C     C_3   0.417031 0.870894 0.859016 -0.658901
H22   H     H_    0.374313 0.840028 0.927480 0.249842
H23   H     H_    0.452664 0.935068 0.894292 0.223958
H24   H     H_    0.466187 0.814799 0.832841 0.230406
N6    N     N_2   0.635654 0.100802 0.235868 -0.447029
H25   H     H_    0.599433 0.155465 0.197490 0.252878
C42   C     C_3   0.725826 0.128958 0.262199 -0.629733
H26   H     H_    0.757309 0.161094 0.184986 0.253716
H27   H     H_    0.765221 0.064415 0.288791 0.226401
H28   H     H_    0.726890 0.183978 0.331904 0.245367

loop_
_geom_bond_atom_site_label_1
_geom_bond_atom_site_label_2
_ccdc_geom_bond_type
C23   O8    A    
Cu1   O1    S    
C40   H18   S    
C9    H5    S    
C41   H22   S    
C30   S2    S    
C14   C18   A    
C11   H7    S    
C12   H8    S    
C39   H14   S    
N4    H17   S    
C37   C38   A    
S4    O19   D    
C35   C37   A    
C24   C26   S    
Cu1   O7    S    
C3    C29   A    
S3    O16   D    
N6    C42   S    
Cu1   O5    S    
C29   S1    S    
C24   O7    A    
Cu2   O6    S    
S4    O20   S    
C10   H6    S    
C31   C33   A    
C7    H3    S    
C33   S3    S    
S1    O9    D    
C41   H23   S    
C22   N6    S    
C4    C7    A    
C39   H15   S    
N6    H25   S    
N4    C40   S    
S1    O10   D    
Cu2   O8    S    
S4    O18   D    
C13   C19   A    
O14   H10   S    
S2    O14   S    
C14   C20   A    
C19   C22   A    
C9    N1    A    
C3    C8    A    
N5    H21   S    
C5    C7    A    
C6    C8    A    
Cu2   O2    S    
C1    C32   S    
C2    C31   S    
S2    O13   D    
S3    O17   S    
C1    O4    A    
O11   H9    S    
C11   N1    A    
N5    C41   S    
C42   H26   S    
C20   N4    S    
C17   C18   A    
C19   N3    S    
C1    O1    A    
C2    O2    A    
C34   S4    S    
Cu1   N1    S    
C12   C14   A    
C41   H24   S    
Cu2   O4    S    
C40   H19   S    
C24   O6    A    
C10   N2    A    
Cu1   Cu2   S    
C39   H16   S    
N3    C39   S    
C21   N5    S    
C15   C17   A    
C5    H1    S    
S1    O11   S    
C16   C22   A    
C42   H27   S    
C8    H4    S    
C4    C38   A    
O17   H11   S    
C2    O3    A    
C12   N2    A    
C23   O5    A    
C25   C27   T    
C26   C28   T    
C13   C17   A    
S2    O12   D    
C36   C38   A    
C9    C15   A    
C29   C31   A    
C10   C16   A    
C30   C32   A    
C11   C13   A    
Cu1   O3    S    
Cu2   N2    S    
C5    C35   A    
C33   C35   A    
C6    C36   A    
C34   C36   A    
C23   C25   S    
S3    O15   D    
N3    H13   S    
C15   C21   A    
C42   H28   S    
C20   C21   A    
C3    C37   A    
C16   C18   A    
C6    H2    S    
C40   H20   S    
C27   C28   S    
O20   H12   S    
C4    C30   A    
C32   C34   A    
