data_mof_unit_55158.cif
_audit_creation_date              2012-10-26T19:04:19-0400
_audit_creation_method            fapswitch 2.2
_symmetry_space_group_name_H-M    P1
_symmetry_Int_Tables_number       1
_space_group_crystal_system       triclinic
_cell_length_a                    14.493693
_cell_length_b                    16.401385
_cell_length_c                    9.737562
_cell_angle_alpha                 89.427031
_cell_angle_beta                  88.918295
_cell_angle_gamma                 90.484919
_cell_volume                      2314.16561121

loop_
_atom_site_label
_atom_site_type_symbol
_atom_type_description
_atom_site_fract_x
_atom_site_fract_y
_atom_site_fract_z
_atom_type_partial_charge
C1    C     C_R   0.384780 0.877739 0.501953 0.574721
C2    C     C_R   0.703540 0.230670 0.374579 0.196468
C3    C     C_R   0.177958 0.252637 0.399622 0.185665
C4    C     C_R   0.214310 0.723613 0.372637 0.196623
C5    C     C_R   0.689912 0.816750 0.493082 0.016140
C6    C     C_R   0.661563 0.202751 0.496714 -0.040343
C7    C     C_R   0.186981 0.315388 0.496191 0.001158
C8    C     C_R   0.164783 0.701489 0.493351 -0.037111
C9    C     C_R   0.666349 0.039027 0.135341 0.086774
C10   C     C_R   0.167423 0.507325 0.139130 0.022200
C11   C     C_R   0.731459 0.088148 0.065698 0.225933
C12   C     C_R   0.377075 0.115501 0.500866 0.539022
C13   C     C_R   0.234967 0.561510 0.088027 0.204506
C14   C     C_R   0.730892 0.089554 0.922160 0.226975
C15   C     C_R   0.233952 0.579914 0.947189 0.261163
C16   C     C_R   0.663962 0.042549 0.856299 0.305526
C17   C     C_R   0.167191 0.540382 0.865874 0.262130
C18   C     C_R   0.580515 0.019466 0.924305 0.124942
C19   C     C_R   0.081749 0.514346 0.926400 0.101770
C20   C     C_R   0.581086 0.018363 0.072140 0.058633
C21   C     C_R   0.081587 0.507681 0.073347 0.067366
C22   C     C_R   0.422173 0.983347 0.074776 0.192883
C23   C     C_R   0.883274 0.378677 0.501778 0.538240
C24   C     C_R   0.920296 0.490358 0.074722 0.191774
C25   C     C_R   0.609784 0.124525 0.498818 0.530149
C26   C     C_R   0.621492 0.883404 0.498816 0.570134
C27   C     C_R   0.110773 0.624189 0.498180 0.554625
C28   C     C_R   0.120949 0.383337 0.499225 0.573258
C29   C     C_R   0.422074 0.985362 0.928318 0.292378
C30   C     C_R   0.920989 0.489996 0.927938 0.280116
C31   C     C_R   0.324784 0.216242 0.752959 -0.043625
C32   C     C_R   0.293453 0.805803 0.760943 -0.064929
C33   C     C_R   0.805864 0.700218 0.755574 -0.072203
C34   C     C_R   0.876725 0.615064 0.500361 0.555669
C35   C     C_R   0.791049 0.310878 0.760536 -0.045641
C36   C     C_R   0.343690 0.282182 0.838093 -0.101622
C37   C     C_R   0.232123 0.799079 0.872174 -0.071458
C38   C     C_R   0.822998 0.760538 0.851959 -0.167039
C39   C     C_R   0.729568 0.307585 0.870877 -0.138546
C40   C     C_R   0.827814 0.842260 0.809333 0.094928
C41   C     C_R   0.641568 0.275328 0.857989 0.077936
C42   C     C_R   0.343970 0.361630 0.783337 0.028796
C43   C     C_R   0.140838 0.774995 0.853637 0.089035
C44   C     C_R   0.795060 0.863074 0.677706 0.335561
C45   C     C_R   0.247702 0.194874 0.387943 0.026433
C46   C     C_R   0.614847 0.245292 0.730734 0.293851
C47   C     C_R   0.300529 0.374421 0.654851 0.313738
C48   C     C_R   0.113957 0.748183 0.724134 0.240799
C49   C     C_R   0.750664 0.801876 0.601470 -0.058014
C50   C     C_R   0.679528 0.244579 0.618703 -0.026824
C51   C     C_R   0.256290 0.308007 0.594159 0.013360
C52   C     C_R   0.180508 0.745159 0.614443 -0.017308
C53   C     C_R   0.293330 0.231041 0.618931 -0.069232
C54   C     C_R   0.265193 0.787548 0.626854 -0.025389
C55   C     C_R   0.782799 0.722787 0.620575 -0.039885
C56   C     C_R   0.296203 0.768424 0.381192 0.048332
C57   C     C_R   0.763290 0.288964 0.628055 -0.020287
C58   C     C_R   0.303871 0.178649 0.503898 -0.051620
C59   C     C_R   0.319077 0.806843 0.506100 -0.023747
C60   C     C_R   0.802700 0.677396 0.500381 -0.027969
C61   C     C_R   0.814242 0.310171 0.505254 -0.040639
C62   C     C_2   0.258259 0.156621 0.252433 0.380847
C63   C     C_2   0.359746 0.767308 0.259821 0.306578
C64   C     C_2   0.791271 0.677323 0.237803 0.306690
C65   C     C_2   0.834144 0.289555 0.247697 0.320045
C66   C     C_2   0.873293 0.901609 0.899882 0.314382
C67   C     C_R   0.759186 0.702092 0.376203 -0.005816
C68   C     C_2   0.579565 0.272779 0.979877 0.251857
C69   C     C_2   0.388962 0.426333 0.864452 0.255217
C70   C     C_2   0.073485 0.778013 0.969398 0.263470
C71   C     C_2   0.332210 0.962451 0.142021 0.310459
C72   C     C_2   0.827321 0.477057 0.140604 0.262008
C73   C     C_2   0.711673 0.984082 0.231449 0.348199
C74   C     C_2   0.207264 0.427283 0.175249 0.268192
C75   C     C_R   0.784320 0.277108 0.379269 0.055046
C76   C     C_R   0.690894 0.762519 0.381615 0.239866
Cu1   Cu    Cu3+1 0.499990 1.000000 0.640660 1.031597
Cu2   Cu    Cu3+1 0.999990 0.500000 0.640660 1.035711
Cu3   Cu    Cu3+1 0.500010 1.000000 0.359340 1.101697
Cu4   Cu    Cu3+1 0.000010 0.500000 0.359340 1.094468
H1    H     H_    0.334454 0.155611 0.793748 0.198956
H2    H     H_    0.333024 0.762556 0.157221 0.135728
H3    H     H_    0.745786 0.644479 0.170180 0.109977
H4    H     H_    0.796134 0.306587 0.159566 0.093915
H5    H     H_    0.860588 0.120347 0.892714 0.373968
H6    H     H_    0.342456 0.651040 0.953657 0.376655
H7    H     H_    0.735371 0.038721 0.688171 0.395921
H8    H     H_    0.244550 0.547530 0.704125 0.394393
H9    H     H_    0.342313 0.999896 0.773690 0.378399
H10   H     H_    0.843725 0.498459 0.768596 0.379006
H11   H     H_    0.887300 0.884899 0.005565 0.150039
H12   H     H_    0.364029 0.820543 0.784083 0.180659
H13   H     H_    0.587692 0.317460 0.060327 0.100488
H14   H     H_    0.406787 0.413888 0.970385 0.113337
H15   H     H_    0.009929 0.742874 0.966354 0.149594
H16   H     H_    0.811303 0.933027 0.515756 0.313304
H17   H     H_    0.506844 0.237784 0.617938 0.305980
H18   H     H_    0.376748 0.463937 0.587742 0.362100
H19   H     H_    0.007652 0.741209 0.606630 0.331871
H20   H     H_    0.624979 0.723401 0.222238 0.326465
H21   H     H_    0.597412 0.215678 0.260878 0.353551
H22   H     H_    0.049296 0.263135 0.368899 0.367251
H23   H     H_    0.811367 0.637505 0.787623 0.176750
H24   H     H_    0.115990 0.705949 0.245840 0.373302
H25   H     H_    0.285925 0.920126 0.093888 0.123991
H26   H     H_    0.773354 0.447008 0.084463 0.113495
H27   H     H_    0.735955 0.006542 0.328871 0.125663
H28   H     H_    0.267301 0.423713 0.239979 0.117254
H29   H     H_    0.832178 0.165010 0.086269 0.353382
H30   H     H_    0.299837 0.565331 0.260378 0.341753
H31   H     H_    0.860794 0.327354 0.784614 0.194716
H32   H     H_    0.366877 0.270705 0.941242 0.201605
H33   H     H_    0.256040 0.812628 0.973211 0.134038
H34   H     H_    0.843360 0.742784 0.953791 0.154618
H35   H     H_    0.750891 0.331491 0.966373 0.096105
H36   H     H_    0.200917 0.123013 0.209628 0.174723
N1    N     N_R   0.501200 1.000000 0.147910 -0.248681
N2    N     N_R   0.001200 0.500000 0.147910 -0.242727
N3    N     N_R   0.501270 1.000000 0.852040 -0.230747
N4    N     N_R   0.001270 0.500000 0.852040 -0.234129
O1    O     O_R   0.409820 0.909830 0.618810 -0.540048
O2    O     O_R   0.590170 0.909830 0.618760 -0.459639
O3    O     O_R   0.090170 0.590170 0.618760 -0.436233
O4    O     O_R   0.090170 0.409830 0.618760 -0.438891
O5    O     O_R   0.590190 0.090180 0.381190 -0.526491
O6    O     O_R   0.590190 0.909820 0.381190 -0.434472
O7    O     O_R   0.090190 0.590180 0.381190 -0.507946
O8    O     O_R   0.090190 0.409820 0.381190 -0.474709
O9    O     O_2   0.327692 0.168912 0.182050 -0.467676
O10   O     O_2   0.443071 0.765765 0.274023 -0.462873
O11   O     O_2   0.867914 0.697907 0.195584 -0.508987
O12   O     O_R   0.409820 0.090170 0.618810 -0.532476
O13   O     O_2   0.916231 0.275805 0.235029 -0.472728
O14   O     O_3   0.801805 0.123982 0.843353 -0.699356
O15   O     O_3   0.304148 0.624528 0.883457 -0.672779
O16   O     O_3   0.689596 0.004068 0.738709 -0.620216
O17   O     O_3   0.194270 0.511755 0.740846 -0.599357
O18   O     O_3   0.338276 0.975495 0.865912 -0.749354
O19   O     O_3   0.837002 0.482435 0.865118 -0.780256
O20   O     O_2   0.898243 0.968547 0.857402 -0.419970
O21   O     O_2   0.522026 0.218538 0.995066 -0.475894
O22   O     O_2   0.409373 0.492765 0.815123 -0.467106
O23   O     O_R   0.909820 0.409830 0.618810 -0.549354
O24   O     O_2   0.087478 0.821190 0.068417 -0.495446
O25   O     O_3   0.826975 0.933763 0.614314 -0.636595
O26   O     O_3   0.523108 0.226136 0.714529 -0.651988
O27   O     O_3   0.313292 0.443364 0.574484 -0.705933
O28   O     O_3   0.021433 0.732249 0.704882 -0.704304
O29   O     O_3   0.631587 0.774673 0.274003 -0.585950
O30   O     O_3   0.665499 0.215311 0.248793 -0.707763
O31   O     O_3   0.104124 0.247684 0.313434 -0.606329
O32   O     O_3   0.184212 0.702365 0.244466 -0.691203
O33   O     O_2   0.304782 0.995171 0.246012 -0.494023
O34   O     O_R   0.909820 0.590170 0.618810 -0.536959
O35   O     O_2   0.805771 0.502042 0.253287 -0.516080
O36   O     O_2   0.731113 0.915095 0.195836 -0.498500
O37   O     O_2   0.175847 0.364450 0.127817 -0.439027
O38   O     O_3   0.804861 0.118548 0.138266 -0.655657
O39   O     O_3   0.312273 0.580318 0.162744 -0.684340
O40   O     O_R   0.409840 0.909830 0.381240 -0.442122
O41   O     O_R   0.409840 0.090170 0.381240 -0.421216
O42   O     O_R   0.909840 0.409830 0.381240 -0.438838
O43   O     O_R   0.909840 0.590170 0.381240 -0.416811
O44   O     O_R   0.590170 0.090170 0.618760 -0.447558

loop_
_geom_bond_atom_site_label_1
_geom_bond_atom_site_label_2
_ccdc_geom_bond_type
C44   C49   A    
C2    O30   S    
C22   N1    A    
H19   O28   S    
C33   C55   A    
C22   C29   A    
H17   O26   S    
H21   O30   S    
C36   C42   A    
C4    C8    A    
C5    C49   A    
H10   O19   S    
C39   C41   A    
C46   O26   S    
Cu2   N4    S    
C61   C75   A    
C29   O18   S    
C29   N3    A    
C19   C21   A    
C3    C7    A    
C1    C59   S    
C38   H34   S    
C11   C14   A    
Cu2   Cu4   S    
C73   H27   S    
C6    C25   S    
C15   O15   S    
H18   O27   S    
C25   O44   A    
C71   O33   D    
C48   O28   S    
C45   C62   S    
C26   O6    A    
C63   O10   D    
C25   O5    A    
Cu1   O2    S    
C12   O41   A    
C27   O7    A    
C60   C67   A    
C36   H32   S    
C41   C46   A    
Cu2   O4    S    
C43   C48   A    
C8    C52   A    
C40   C44   A    
H22   O31   S    
C23   O42   A    
C12   C58   S    
Cu1   O44   S    
Cu1   Cu3   S    
Cu3   O5    S    
C72   O35   D    
C40   C66   S    
C55   C60   A    
C4    C56   A    
C34   C60   S    
C62   O9    D    
C23   O23   A    
C2    C6    A    
C9    C73   S    
Cu3   O41   S    
H29   O38   S    
C32   C54   A    
C20   N1    A    
C52   C54   A    
C41   C68   S    
C47   O27   S    
C54   C59   A    
C34   O34   A    
C10   C21   A    
C4    O32   S    
Cu4   N2    S    
C45   C58   A    
C63   H2    S    
C64   C67   S    
C69   H14   S    
Cu3   O40   S    
C27   O3    A    
Cu2   O34   S    
C65   H4    S    
C47   C51   A    
C14   O14   S    
C69   O22   D    
C49   C55   A    
C3    C45   A    
C42   C69   S    
C6    C50   A    
C7    C28   S    
C51   C53   A    
Cu1   O12   S    
C37   C43   A    
C35   C39   A    
C64   H3    S    
C62   H36   S    
C21   N2    A    
H16   O25   S    
C9    C20   A    
C64   O11   D    
C23   C61   S    
C44   O25   S    
C56   C63   S    
C66   O20   D    
C68   O21   D    
C32   C37   A    
C31   C53   A    
Cu2   O3    S    
C9    C11   A    
Cu4   O42   S    
Cu3   O6    S    
C72   H26   S    
C19   N4    A    
C34   O43   A    
C43   C70   S    
C39   H35   S    
C13   C15   A    
C14   C16   A    
C24   C30   A    
C16   O16   S    
C22   C71   S    
C35   H31   S    
C24   C72   S    
C15   C17   A    
C46   C50   A    
C30   O19   S    
C12   O12   A    
C74   O37   D    
C33   H23   S    
C50   C57   A    
C3    O31   S    
H7    O16   S    
C1    O40   A    
C68   H13   S    
Cu1   N3    S    
C10   C13   A    
C65   C75   S    
Cu4   O43   S    
C53   C58   A    
C28   O4    A    
C57   C61   A    
C66   H11   S    
Cu4   O7    S    
H20   O29   S    
Cu4   O8    S    
H5    O14   S    
C70   O24   D    
C33   C38   A    
C31   H1    S    
C56   C59   A    
C35   C57   A    
H24   O32   S    
C5    C76   A    
C71   H25   S    
C70   H15   S    
C7    C51   A    
Cu2   O23   S    
C38   C40   A    
C10   C74   S    
C32   H12   S    
C30   N4    A    
C76   O29   S    
Cu3   N1    S    
C73   O36   D    
C24   N2    A    
C17   C19   A    
C18   C20   A    
C42   C47   A    
C1    O1    A    
H8    O17   S    
Cu1   O1    S    
C2    C75   A    
C74   H28   S    
C5    C26   S    
H6    O15   S    
C48   C52   A    
C37   H33   S    
C16   C18   A    
H9    O18   S    
C8    C27   S    
C31   C36   A    
C17   O17   S    
C67   C76   A    
C26   O2    A    
C18   N3    A    
C13   O39   S    
C65   O13   D    
H30   O39   S    
C28   O8    A    
C11   O38   S    
