data_mof_unit_28260.cif
_audit_creation_date              2012-12-10T17:11:01-0500
_audit_creation_method            fapswitch 2.2
_symmetry_space_group_name_H-M    P1
_symmetry_Int_Tables_number       1
_space_group_crystal_system       triclinic
_cell_length_a                    11.660819
_cell_length_b                    13.009751
_cell_length_c                    13.450701
_cell_angle_alpha                 91.973017
_cell_angle_beta                  76.453339
_cell_angle_gamma                 99.897979
_cell_volume                      1954.19749101

loop_
_atom_site_label
_atom_site_type_symbol
_atom_type_description
_atom_site_fract_x
_atom_site_fract_y
_atom_site_fract_z
_atom_type_partial_charge
C1    C     C_R   0.520837 0.700870 0.501595 0.817172
C2    C     C_R   0.445757 0.487029 0.975953 0.082131
C3    C     C_R   0.470908 0.461601 0.870459 0.083209
C4    C     C_R   0.530799 0.475821 0.033804 0.074858
C5    C     C_R   0.633388 0.431142 0.988077 0.165011
C6    C     C_R   0.649030 0.395880 0.887708 -0.241064
C7    C     C_R   0.568257 0.409357 0.830243 -0.200685
C8    C     C_R   0.517432 0.508047 0.135841 -0.244038
C9    C     C_R   0.699978 0.448794 0.146580 -0.191347
C10   C     C_R   0.396921 0.488040 0.808370 -0.101995
C11   C     C_R   0.466294 0.185725 0.498167 -0.120242
C12   C     C_R   0.435798 0.491340 0.695990 0.787125
C13   C     C_R   0.532458 0.814239 0.502651 -0.083630
C14   C     C_R   0.651115 0.984826 0.509528 -0.173986
C15   C     C_R   0.640974 0.876943 0.508999 -0.175679
C16   C     C_R   0.433901 0.860050 0.497134 -0.206239
C17   C     C_R   0.442688 0.968269 0.497526 0.083062
C18   C     C_R   0.552888 0.030882 0.503732 0.119257
C19   C     C_R   0.563733 0.138866 0.504026 -0.267743
C20   C     C_R   0.357095 0.123992 0.492055 -0.221470
C21   C     C_R   0.344499 0.015727 0.491769 0.360855
C22   C     C_R   0.944835 0.595316 0.596823 -0.306656
C23   C     C_R   0.478989 0.299128 0.498654 0.827008
C24   C     C_R   0.826005 0.586272 0.587432 0.099413
C25   C     C_R   0.857690 0.458936 0.458080 0.022555
C26   C     C_R   0.977974 0.465374 0.464845 0.064844
C27   C     C_R   0.021975 0.534574 0.535221 0.066393
C28   C     C_R   0.142284 0.541057 0.541936 0.041546
C29   C     C_R   0.173919 0.413616 0.412676 0.093338
C30   C     C_R   0.055092 0.404586 0.403283 -0.332213
C31   C     C_R   0.563536 0.502584 0.304127 0.805371
C32   C     C_R   0.717988 0.419752 0.044188 -0.189478
C33   C     C_R   0.597917 0.490626 0.193176 -0.048004
C34   C     C_R   0.289625 0.522887 0.854271 -0.183859
C35   C     C_R   0.258460 0.537129 0.959167 -0.142373
C36   C     C_R   0.336025 0.521612 0.019415 -0.177286
Cu1   Cu    Cu3+1 0.386470 0.492430 0.492410 0.946991
Cu2   Cu    Cu3+1 0.613530 0.507570 0.507590 0.940390
H1    H     H_    0.281098 0.159726 0.487549 0.190612
H2    H     H_    0.350540 0.810867 0.492436 0.207294
H3    H     H_    0.177306 0.593977 0.595753 0.121249
H4    H     H_    0.232806 0.366458 0.365035 0.131894
H5    H     H_    0.023914 0.350549 0.348401 0.141876
H6    H     H_    0.724164 0.357514 0.853309 0.148978
H7    H     H_    0.443878 0.545752 0.173734 0.149803
H8    H     H_    0.175089 0.563608 0.993778 0.144905
H9    H     H_    0.648383 0.186301 0.508768 0.162441
N1    N     N_R   0.215880 0.481050 0.481000 -0.184576
N2    N     N_R   0.784100 0.518950 0.519000 -0.185219
O1    O     O_R   0.419710 0.645650 0.494620 -0.586278
O2    O     O_R   0.611450 0.658430 0.507430 -0.584067
O3    O     O_R   0.357340 0.490460 0.641450 -0.583295
O4    O     O_R   0.549080 0.503250 0.654260 -0.590821
O5    O     O_R   0.388550 0.341570 0.492570 -0.589766
O6    O     O_R   0.580290 0.354350 0.505380 -0.596663
O7    O     O_R   0.450920 0.496750 0.345740 -0.587469
O8    O     O_R   0.642660 0.509540 0.358550 -0.583248
H10   H     H_    0.762798 0.434371 0.190257 0.147696
H11   H     H_    0.735680 0.032220 0.514356 0.146005
Cl1   Cl    Cl    0.204179 0.943540 0.484140 -0.658275
H12   H     H_    0.718029 0.842745 0.513431 0.169670
H13   H     H_    0.976001 0.649331 0.651726 0.151874
H14   H     H_    0.767085 0.633356 0.635134 0.133423
H15   H     H_    0.822681 0.406046 0.404235 0.116489
H16   H     H_    0.796300 0.385537 0.009629 0.135634
H17   H     H_    0.230929 0.542045 0.808616 0.150899
H18   H     H_    0.305874 0.535288 0.099983 0.132012
H19   H     H_    0.581994 0.375711 0.754715 0.174380

loop_
_geom_bond_atom_site_label_1
_geom_bond_atom_site_label_2
_ccdc_geom_bond_type
C2    C4    A    
C31   C33   S    
C23   O6    A    
C29   C30   A    
Cu1   O1    S    
C29   H4    S    
C22   H13   S    
Cu2   O8    S    
C1    O1    A    
C14   C18   A    
C35   C36   A    
C4    C8    A    
C5    C32   A    
C30   H5    S    
C25   N2    A    
C31   O8    A    
C17   C18   A    
C15   H12   S    
C36   H18   S    
C10   C34   A    
Cu2   N2    S    
C6    H6    S    
C4    C5    A    
C25   C26   A    
Cu1   N1    S    
C9    C33   A    
C14   H11   S    
C1    O2    A    
C11   C19   A    
C26   C27   A    
C6    C7    A    
Cu2   O4    S    
C10   C12   S    
Cu1   O7    S    
C16   H2    S    
C3    C10   A    
Cu1   O5    S    
C11   C23   S    
C34   H17   S    
C12   O3    A    
Cu1   Cu2   S    
C9    H10   S    
C24   H14   S    
C3    C7    A    
C22   C27   A    
C13   C15   A    
C5    C6    A    
C31   O7    A    
C22   C24   A    
C11   C20   A    
C13   C16   A    
C1    C13   S    
Cu1   O3    S    
C29   N1    A    
C28   H3    S    
C24   N2    A    
C18   C19   A    
C20   C21   A    
C21   Cl1   S    
C34   C35   A    
C19   H9    S    
C2    C36   A    
C27   C28   A    
C23   O5    A    
C20   H1    S    
C14   C15   A    
C32   H16   S    
C2    C3    A    
Cu2   O2    S    
C9    C32   A    
C7    H19   S    
C8    H7    S    
C35   H8    S    
C25   H15   S    
C28   N1    A    
Cu2   O6    S    
C12   O4    A    
C16   C17   A    
C8    C33   A    
C26   C30   A    
C17   C21   A    
