data_mof_unit_57482.cif
_audit_creation_date              2012-12-10T19:07:35-0500
_audit_creation_method            fapswitch 2.2
_symmetry_space_group_name_H-M    P1
_symmetry_Int_Tables_number       1
_space_group_crystal_system       triclinic
_cell_length_a                    10.818474
_cell_length_b                    10.825256
_cell_length_c                    9.546302
_cell_angle_alpha                 90.29163
_cell_angle_beta                  90.586631
_cell_angle_gamma                 90.280758
_cell_volume                      1117.90689463

loop_
_atom_site_label
_atom_site_type_symbol
_atom_type_description
_atom_site_fract_x
_atom_site_fract_y
_atom_site_fract_z
_atom_type_partial_charge
C1    C     C_R   0.497558 0.262345 0.499576 0.794343
C2    C     C_R   0.939274 0.550616 0.611030 0.051912
C3    C     C_3   0.937921 0.676020 0.681101 -0.244793
C4    C     C_3   0.080515 0.671728 0.681304 -0.097894
C5    C     C_R   0.477235 0.064626 0.623926 0.100980
C6    C     C_R   0.484663 0.129300 0.498402 -0.095843
C7    C     C_R   0.473830 0.063576 0.371483 -0.213960
C8    C     C_R   0.473805 0.934779 0.372123 -0.155861
C9    C     C_R   0.484100 0.870817 0.499720 -0.123177
C10   C     C_R   0.475619 0.937414 0.625033 0.161529
C11   C     C_3   0.553812 0.933100 0.755660 -0.205099
C12   C     C_R   0.262683 0.498721 0.499456 0.805909
C13   C     C_3   0.555835 0.073691 0.753042 -0.527554
C14   C     C_R   0.557739 0.592450 0.075073 0.260798
C15   C     C_R   0.432692 0.415875 0.073156 -0.068218
C16   C     C_R   0.432655 0.415893 0.924226 -0.094769
C17   C     C_R   0.557994 0.592072 0.927764 0.317801
C18   C     C_3   0.691769 0.623526 0.924714 -0.549647
C19   C     C_3   0.691437 0.625222 0.083374 -0.460662
C20   C     C_R   0.497314 0.737730 0.500205 0.855904
C21   C     C_R   0.737599 0.501145 0.500433 0.843932
C22   C     C_R   0.066358 0.547830 0.610871 -0.025255
C23   C     C_R   0.129815 0.494437 0.499912 -0.020007
C24   C     C_R   0.062966 0.433772 0.392999 -0.164704
C25   C     C_R   0.933798 0.435166 0.393777 -0.201231
C26   C     C_R   0.870983 0.497837 0.500959 -0.011388
Cu1   Cu    Cu3+1 0.499990 0.499980 0.640670 0.956431
Cu2   Cu    Cu3+1 0.500010 0.500020 0.359330 0.973301
H1    H     H_    0.110243 0.387543 0.308240 0.146903
H2    H     H_    0.645897 0.890931 0.738404 0.119980
H3    H     H_    0.506072 0.119124 0.840628 0.195306
H4    H     H_    0.649034 0.112765 0.731911 0.195399
H5    H     H_    0.380145 0.346314 0.127974 0.134718
H6    H     H_    0.379987 0.346413 0.867417 0.141432
H7    H     H_    0.747873 0.546960 0.881125 0.219278
H8    H     H_    0.708178 0.716043 0.878845 0.179768
H9    H     H_    0.749177 0.551004 0.129769 0.226931
H10   H     H_    0.706922 0.718832 0.128860 0.215429
H11   H     H_    0.883285 0.389345 0.309670 0.147193
H12   H     H_    0.900102 0.670835 0.787923 0.138943
H13   H     H_    0.471937 0.110904 0.271788 0.161281
H14   H     H_    0.472128 0.886095 0.272697 0.171758
N1    N     N_R   0.500790 0.500930 0.147930 -0.189234
N2    N     N_R   0.500790 0.500890 0.852020 -0.188107
O1    O     O_R   0.500000 0.319640 0.618810 -0.583627
O2    O     O_R   0.500010 0.319680 0.381230 -0.598950
O3    O     O_R   0.319650 0.499970 0.618810 -0.609959
O4    O     O_R   0.319660 0.500010 0.381230 -0.565631
O5    O     O_R   0.499990 0.680320 0.618770 -0.569931
O6    O     O_R   0.500000 0.680360 0.381190 -0.570558
O7    O     O_R   0.680340 0.499990 0.618770 -0.596263
O8    O     O_R   0.680350 0.500030 0.381190 -0.581138
C27   C     C_2   0.880426 0.780784 0.598906 0.431125
H15   H     H_    0.884763 0.873511 0.642335 0.056188
O9    O     O_2   0.829605 0.764051 0.485599 -0.539065
C28   C     C_2   0.146379 0.768831 0.594819 0.371747
H16   H     H_    0.201884 0.839546 0.646769 0.110597
O10   O     O_2   0.135386 0.771477 0.467361 -0.511402
C29   C     C_2   0.136394 0.659835 0.825939 0.356127
H17   H     H_    0.199202 0.584782 0.849884 0.107264
O11   O     O_2   0.114308 0.736562 0.916353 -0.502221
C30   C     C_2   0.487803 0.883159 0.881678 0.393972
H18   H     H_    0.530648 0.892663 0.984447 0.052009
O12   O     O_2   0.387531 0.831589 0.870411 -0.530040

loop_
_geom_bond_atom_site_label_1
_geom_bond_atom_site_label_2
_ccdc_geom_bond_type
C2    C22   A    
C30   O12   D    
C23   C24   A    
C20   O5    A    
C19   H9    S    
C19   H10   S    
C28   O10   D    
C4    C22   S    
C18   H7    S    
C16   N2    A    
Cu2   N1    S    
C5    C13   S    
C14   C17   A    
C21   O7    A    
C12   O4    A    
C11   C30   S    
Cu2   O2    S    
Cu1   O1    S    
C7    H13   S    
C2    C3    S    
C8    C9    A    
C17   N2    A    
C15   N1    A    
C29   H17   S    
C2    C26   A    
C27   H15   S    
C4    C28   S    
Cu2   O8    S    
C12   C23   S    
C1    O1    A    
C30   H18   S    
C18   H8    S    
C12   O3    A    
Cu1   N2    S    
C4    C29   S    
C21   C26   S    
Cu1   O7    S    
C3    H12   S    
C17   C18   S    
C6    C7    A    
C27   O9    D    
C5    C6    A    
C1    O2    A    
C29   O11   D    
C11   C13   S    
C7    C8    A    
C10   C11   S    
C1    C6    S    
Cu1   O5    S    
C5    C10   A    
C24   C25   A    
C18   C19   S    
C9    C10   A    
Cu1   O3    S    
Cu1   Cu2   S    
C28   H16   S    
C24   H1    S    
Cu2   O4    S    
C20   O6    A    
C3    C27   S    
C9    C20   S    
C16   H6    S    
C25   C26   A    
C22   C23   A    
C13   H4    S    
Cu2   O6    S    
C14   C19   S    
C13   H3    S    
C21   O8    A    
C25   H11   S    
C3    C4    S    
C15   C16   A    
C11   H2    S    
C8    H14   S    
C14   N1    A    
C15   H5    S    
