data_mof_unit_54404.cif
_audit_creation_date              2012-10-26T19:05:08-0400
_audit_creation_method            fapswitch 2.2
_symmetry_space_group_name_H-M    P1
_symmetry_Int_Tables_number       1
_space_group_crystal_system       triclinic
_cell_length_a                    15.881583
_cell_length_b                    10.777914
_cell_length_c                    9.61924
_cell_angle_alpha                 89.892887
_cell_angle_beta                  90.090626
_cell_angle_gamma                 92.501635
_cell_volume                      1644.95463112

loop_
_atom_site_label
_atom_site_type_symbol
_atom_type_description
_atom_site_fract_x
_atom_site_fract_y
_atom_site_fract_z
_atom_type_partial_charge
C1    C     C_R   0.498051 0.262807 0.500143 0.540926
C2    C     C_R   0.284877 0.049275 0.663251 -0.106277
C3    C     C_R   0.285134 0.920203 0.662406 -0.114776
C4    C     C_R   0.340390 0.499658 0.499951 0.526873
C5    C     C_R   0.354174 0.860357 0.609229 -0.102023
C6    C     C_R   0.424945 0.929374 0.556426 -0.019543
C7    C     C_R   0.424483 0.060426 0.557069 0.009213
C8    C     C_R   0.494050 0.128894 0.500448 -0.026896
C9    C     C_R   0.561873 0.069708 0.442574 -0.135851
C10   C     C_R   0.563599 0.940668 0.443011 0.213040
C11   C     C_R   0.495379 0.871036 0.500045 0.047267
C12   C     C_3   0.946599 0.369218 0.464725 -0.175138
C13   C     C_R   0.612477 0.664081 0.143438 -0.061404
C14   C     C_R   0.667793 0.743923 0.071415 -0.153129
C15   C     C_R   0.667649 0.744230 0.928195 -0.168364
C16   C     C_R   0.499044 0.737175 0.499938 0.578864
C17   C     C_R   0.612344 0.664488 0.856113 -0.076380
C18   C     C_R   0.555149 0.580853 0.925171 0.157499
C19   C     C_R   0.555172 0.580734 0.074573 0.148572
C20   C     C_R   0.447529 0.423037 0.073842 0.003448
C21   C     C_R   0.447562 0.423037 0.926089 0.003513
C22   C     C_R   0.659606 0.500465 0.500041 0.552705
C23   C     C_3   0.917094 0.501470 0.497181 0.031034
C24   C     C_3   0.044559 0.369750 0.459861 0.136927
C25   C     C_3   0.052792 0.594463 0.388109 -0.227813
C26   C     C_3   0.954638 0.596921 0.388560 -0.060594
C27   C     C_1   0.749251 0.501083 0.500096 -0.021866
C28   C     C_3   0.083032 0.500969 0.498332 0.054650
C29   C     C_2   0.917662 0.579316 0.244346 0.200822
C30   C     C_3   0.952256 0.538813 0.642541 -0.244446
C31   C     C_3   0.049885 0.541775 0.642165 -0.230567
C32   C     C_1   0.824791 0.501441 0.499319 -0.070478
C33   C     C_1   0.175246 0.500888 0.499224 -0.029729
C34   C     C_1   0.250767 0.500360 0.499691 -0.023021
C35   C     C_R   0.353609 0.119230 0.610729 -0.092874
Cu1   Cu    Cu3+1 0.499990 0.499990 0.640660 0.928400
Cu2   Cu    Cu3+1 0.500010 0.500010 0.359340 0.947456
H1    H     H_    0.920072 0.335453 0.364009 0.156334
H2    H     H_    0.063279 0.348786 0.351199 0.177815
H3    H     H_    0.617491 0.671799 0.252874 0.222725
H4    H     H_    0.711069 0.806179 0.127420 0.133766
H5    H     H_    0.710732 0.806820 0.872182 0.126271
H6    H     H_    0.617465 0.672665 0.746540 0.190619
H7    H     H_    0.404562 0.359806 0.871065 0.116367
H8    H     H_    0.079861 0.689187 0.411556 0.103389
H9    H     H_    0.077344 0.569413 0.283989 0.153609
H10   H     H_    0.937587 0.691355 0.422514 0.083221
H11   H     H_    0.072986 0.481180 0.726391 0.133853
H12   H     H_    0.921613 0.302979 0.545112 0.121584
H13   H     H_    0.074559 0.637705 0.665830 0.117712
H14   H     H_    0.928076 0.471637 0.722612 0.139970
H15   H     H_    0.053900 0.285537 0.639727 0.326913
H16   H     H_    0.674452 0.942971 0.356120 0.315206
H17   H     H_    0.869510 0.640377 0.208616 0.109892
H18   H     H_    0.930448 0.631866 0.672281 0.126539
H19   H     H_    0.614505 0.124676 0.399705 0.111247
H20   H     H_    0.350108 0.219233 0.611078 0.128768
H21   H     H_    0.230921 0.095411 0.703719 0.134802
H22   H     H_    0.231366 0.866140 0.702218 0.111156
H23   H     H_    0.350934 0.760011 0.608629 0.132605
H24   H     H_    0.404485 0.359844 0.128830 0.121701
N1    N     N_R   0.500800 0.501210 0.147910 -0.247499
N2    N     N_R   0.500820 0.501290 0.852040 -0.243168
O1    O     O_R   0.499990 0.319640 0.618810 -0.498618
O2    O     O_3   0.632117 0.880543 0.391899 -0.738269
O3    O     O_2   0.939174 0.495578 0.168664 -0.533768
O4    O     O_R   0.500000 0.319660 0.381240 -0.496606
O5    O     O_R   0.379430 0.499990 0.618840 -0.510774
O6    O     O_R   0.379440 0.500020 0.381260 -0.496797
O7    O     O_R   0.500000 0.680340 0.618760 -0.532947
O8    O     O_R   0.500010 0.680360 0.381190 -0.493536
O9    O     O_R   0.620560 0.499980 0.618740 -0.511147
O10   O     O_R   0.620570 0.500010 0.381160 -0.514193
O11   O     O_3   0.076328 0.275665 0.544452 -0.718788

loop_
_geom_bond_atom_site_label_1
_geom_bond_atom_site_label_2
_ccdc_geom_bond_type
C2    C35   A    
C30   H14   S    
Cu2   O6    S    
C1    C8    S    
C12   H12   S    
C7    C8    A    
C25   C28   S    
C12   C23   S    
Cu1   Cu2   S    
H15   O11   S    
C5    C6    A    
C18   N2    A    
C29   H17   S    
C19   N1    A    
C24   H2    S    
C18   C19   A    
C23   C26   S    
C20   H24   S    
C13   H3    S    
C8    C9    A    
Cu1   N2    S    
H16   O2    S    
C9    C10   A    
C13   C14   A    
C12   H1    S    
C16   O8    A    
C22   O9    A    
C4    O6    A    
Cu1   O7    S    
C17   C18   A    
C31   H11   S    
C4    C34   S    
C13   C19   A    
C23   C30   S    
C16   O7    A    
C6    C11   A    
C4    O5    A    
C25   C26   S    
C17   H6    S    
C21   H7    S    
C11   C16   S    
Cu1   O5    S    
C33   C34   T    
C9    H19   S    
C26   H10   S    
C14   H4    S    
C28   C33   S    
C22   C27   S    
Cu2   O8    S    
C31   H13   S    
C1    O1    A    
C25   H8    S    
C10   O2    S    
C15   C17   A    
Cu2   O10   S    
C5    H23   S    
C27   C32   T    
C7    C35   A    
C28   C31   S    
C24   C28   S    
C15   H5    S    
C3    C5    A    
C2    H21   S    
C6    C7    A    
C30   H18   S    
C12   C24   S    
C35   H20   S    
C23   C32   S    
C2    C3    A    
C24   O11   S    
C30   C31   S    
Cu2   O4    S    
C1    O4    A    
C20   N1    A    
C21   N2    A    
C10   C11   A    
C29   O3    D    
C20   C21   A    
C26   C29   S    
Cu2   N1    S    
C14   C15   A    
C22   O10   A    
Cu1   O1    S    
C25   H9    S    
Cu1   O9    S    
C3    H22   S    
