data_mof_unit_42325.cif
_audit_creation_date              2012-12-11T14:17:58-0500
_audit_creation_method            fapswitch 2.2
_symmetry_space_group_name_H-M    P1
_symmetry_Int_Tables_number       1
_space_group_crystal_system       triclinic
_cell_length_a                    11.378212
_cell_length_b                    11.378231
_cell_length_c                    18.96146
_cell_angle_alpha                 90.000171
_cell_angle_beta                  89.999849
_cell_angle_gamma                 120.00013
_cell_volume                      2125.93804935

loop_
_atom_site_label
_atom_site_type_symbol
_atom_type_description
_atom_site_fract_x
_atom_site_fract_y
_atom_site_fract_z
_atom_type_partial_charge
C1    C     C_R   0.521408 0.453321 0.146132 0.530484
C2    C     C_R   0.093455 0.456629 0.521510 -0.036369
C3    C     C_R   0.363176 0.906558 0.521513 -0.036386
C4    C     C_R   0.543386 0.636829 0.521512 -0.036380
C5    C     C_R   0.689347 0.169362 0.596632 -0.095207
C6    C     C_R   0.830645 0.519989 0.596624 -0.095206
C7    C     C_R   0.480017 0.310657 0.596628 -0.095206
C8    C     C_R   0.873931 0.633070 0.462695 -0.098698
C9    C     C_R   0.759154 0.126121 0.462698 -0.098707
C10   C     C_R   0.366953 0.240853 0.462695 -0.098703
C11   C     C_R   0.821794 0.210018 0.581619 -0.127278
C12   C     C_R   0.546679 0.068087 0.146132 0.530485
C13   C     C_R   0.789985 0.611774 0.581608 -0.127286
C14   C     C_R   0.388226 0.178209 0.581613 -0.127281
C15   C     C_R   0.819215 0.672668 0.515346 -0.148296
C16   C     C_R   0.853460 0.180797 0.515355 -0.148298
C17   C     C_R   0.327344 0.146541 0.515348 -0.148309
C18   C     C_R   0.521202 0.451732 0.354494 0.550047
C19   C     C_R   0.548270 0.069474 0.354495 0.550048
C20   C     C_R   0.930533 0.478799 0.354494 0.550040
C21   C     C_R   0.454181 0.527480 0.644033 0.499048
C22   C     C_R   0.073302 0.545821 0.644032 0.499049
C23   C     C_R   0.931912 0.478592 0.146131 0.530483
C24   C     C_R   0.472520 0.926699 0.644033 0.499051
C25   C     C_R   0.497233 0.997867 0.923675 -0.004845
C26   C     C_R   0.002132 0.499366 0.923675 -0.004845
C27   C     C_R   0.500633 0.502768 0.923675 -0.004845
C28   C     C_R   0.976497 0.495228 0.071953 0.003271
C29   C     C_R   0.518730 0.023502 0.071953 0.003270
C30   C     C_R   0.504771 0.481270 0.071954 0.003271
C31   C     C_R   0.385274 0.984349 0.964476 0.030956
C32   C     C_R   0.015650 0.400925 0.964475 0.030957
C33   C     C_R   0.599075 0.614727 0.964476 0.030955
C34   C     C_R   0.457188 0.520943 0.852704 0.546078
C35   C     C_R   0.017254 0.409506 0.039311 0.023242
C36   C     C_R   0.392251 0.982745 0.039312 0.023242
C37   C     C_R   0.590494 0.607749 0.039313 0.023242
C38   C     C_R   0.631990 0.053834 0.029638 -0.135499
C39   C     C_R   0.946164 0.578154 0.029638 -0.135500
C40   C     C_R   0.421843 0.368011 0.029638 -0.135500
C41   C     C_R   0.961256 0.582101 0.957325 -0.145908
C42   C     C_R   0.620846 0.038743 0.957325 -0.145906
C43   C     C_R   0.417897 0.379155 0.957325 -0.145907
C44   C     C_R   0.266196 0.971770 0.933690 -0.084910
C45   C     C_R   0.063755 0.542812 0.852704 0.546078
C46   C     C_R   0.028228 0.294426 0.933689 -0.084909
C47   C     C_R   0.705573 0.733805 0.933691 -0.084910
C48   C     C_R   0.058760 0.331363 0.079033 -0.093583
C49   C     C_R   0.272601 0.941239 0.079034 -0.093582
C50   C     C_R   0.668637 0.727398 0.079035 -0.093583
C51   C     C_R   0.151463 0.936958 0.974251 -0.136375
C52   C     C_R   0.063040 0.214506 0.974250 -0.136375
C53   C     C_R   0.785493 0.848537 0.974252 -0.136374
C54   C     C_R   0.081254 0.234774 0.046501 -0.131184
C55   C     C_R   0.153517 0.918744 0.046502 -0.131183
C56   C     C_R   0.479057 0.936245 0.852704 0.546078
C57   C     C_R   0.765227 0.846482 0.046503 -0.131183
C58   C     C_R   0.472716 0.976234 0.571345 -0.018234
C59   C     C_R   0.023772 0.496483 0.571343 -0.018225
C60   C     C_R   0.503521 0.527289 0.571344 -0.018238
C61   C     C_R   0.977772 0.495232 0.426585 0.011640
C62   C     C_R   0.517467 0.022247 0.426589 0.011649
C63   C     C_R   0.504775 0.482538 0.426587 0.011643
C64   C     C_R   0.590711 0.084469 0.548002 0.023629
C65   C     C_R   0.915544 0.506249 0.547997 0.023633
C66   C     C_R   0.493761 0.409296 0.547999 0.023623
C67   C     C_R   0.382709 0.940535 0.448939 -0.003741
C68   C     C_R   0.917215 0.540331 0.477176 0.019837
C69   C     C_R   0.623124 0.082813 0.477179 0.019829
C70   C     C_R   0.459682 0.376883 0.477177 0.019836
C71   C     C_3   0.261746 0.895759 0.397629 -0.263958
C72   C     C_3   0.253402 0.798094 0.340555 -0.441628
C73   C     C_3   0.104241 0.365982 0.397627 -0.263952
C74   C     C_3   0.201891 0.455284 0.340542 -0.441594
C75   C     C_3   0.634024 0.738257 0.397627 -0.263953
C76   C     C_3   0.544718 0.746605 0.340545 -0.441614
C77   C     C_3   0.206458 0.436009 0.543270 -0.223785
C78   C     C_R   0.059477 0.442180 0.448936 -0.003732
C79   C     C_3   0.157669 0.288384 0.566563 -0.363135
C80   C     C_3   0.229542 0.793561 0.543273 -0.223770
C81   C     C_3   0.130709 0.842353 0.566574 -0.363129
C82   C     C_3   0.564017 0.770460 0.543273 -0.223776
C83   C     C_3   0.711641 0.869296 0.566573 -0.363129
C84   C     C_R   0.557828 0.617296 0.448937 -0.003740
Cr1   Cr    Cr6+3 0.768550 0.541320 0.250660 0.982067
Cr2   Cr    Cr6+3 0.458680 0.227230 0.250660 0.982063
Cr3   Cr    Cr6+3 0.772770 0.231450 0.250660 0.982062
Cr4   Cr    Cr6+3 0.541320 0.768550 0.749340 0.978228
Cr5   Cr    Cr6+3 0.227230 0.458680 0.749340 0.978231
Cr6   Cr    Cr6+3 0.231450 0.772770 0.749340 0.978230
H1    H     H_    0.731916 0.091446 0.052226 0.154737
H2    H     H_    0.076757 0.345611 0.135170 0.127955
H3    H     H_    0.268853 0.923243 0.135171 0.127956
H4    H     H_    0.654391 0.731146 0.135172 0.127955
H5    H     H_    0.060075 0.922242 0.949057 0.096754
H6    H     H_    0.077756 0.137834 0.949055 0.096753
H7    H     H_    0.862165 0.939925 0.949058 0.096753
H8    H     H_    0.110986 0.174127 0.077593 0.112186
H9    H     H_    0.063137 0.889012 0.077595 0.112186
H10   H     H_    0.825874 0.936862 0.077596 0.112186
H11   H     H_    0.663096 0.181247 0.650089 0.109518
H12   H     H_    0.908552 0.640467 0.052227 0.154738
H13   H     H_    0.818750 0.481847 0.650081 0.109518
H14   H     H_    0.518155 0.336906 0.650085 0.109516
H15   H     H_    0.900704 0.695149 0.416220 0.140059
H16   H     H_    0.794478 0.099395 0.416216 0.140099
H17   H     H_    0.304884 0.205532 0.416217 0.140078
H18   H     H_    0.894410 0.251785 0.623775 0.129934
H19   H     H_    0.748195 0.642605 0.623759 0.129941
H20   H     H_    0.357386 0.105589 0.623766 0.129938
H21   H     H_    0.808332 0.755643 0.502623 0.123365
H22   H     H_    0.947302 0.191639 0.502638 0.123334
H23   H     H_    0.359529 0.268085 0.052226 0.154737
H24   H     H_    0.244378 0.052677 0.502618 0.123374
H25   H     H_    0.343925 0.842766 0.306012 0.155992
H26   H     H_    0.163668 0.769977 0.306650 0.159882
H27   H     H_    0.240662 0.705687 0.366389 0.141647
H28   H     H_    0.162292 0.845389 0.423622 0.128671
H29   H     H_    0.261732 0.984283 0.373715 0.160303
H30   H     H_    0.294337 0.534911 0.366366 0.141646
H31   H     H_    0.157239 0.501183 0.306021 0.155984
H32   H     H_    0.229941 0.393638 0.306616 0.159860
H33   H     H_    0.154624 0.316912 0.423617 0.128687
H34   H     H_    0.944424 0.653872 0.927777 0.138637
H35   H     H_    0.015709 0.277437 0.373722 0.160292
H36   H     H_    0.465082 0.759401 0.366369 0.141651
H37   H     H_    0.498839 0.656069 0.306015 0.155985
H38   H     H_    0.606356 0.836310 0.306629 0.159868
H39   H     H_    0.683101 0.837711 0.423618 0.128681
H40   H     H_    0.722567 0.738268 0.373720 0.160307
H41   H     H_    0.078840 0.252160 0.607540 0.150467
H42   H     H_    0.235841 0.274008 0.588975 0.193633
H43   H     H_    0.130883 0.217351 0.522137 0.080600
H44   H     H_    0.280473 0.465022 0.500079 0.130640
H45   H     H_    0.709449 0.055576 0.927777 0.138636
H46   H     H_    0.261731 0.514479 0.582510 0.165270
H47   H     H_    0.173334 0.921196 0.607546 0.150455
H48   H     H_    0.038162 0.764183 0.588996 0.193635
H49   H     H_    0.086433 0.869125 0.522150 0.080593
H50   H     H_    0.184532 0.719544 0.500084 0.130639
H51   H     H_    0.252739 0.738282 0.582508 0.165274
H52   H     H_    0.747861 0.826683 0.607552 0.150458
H53   H     H_    0.726015 0.961841 0.588990 0.193630
H54   H     H_    0.782689 0.913569 0.522149 0.080592
H55   H     H_    0.535014 0.815470 0.500083 0.130641
H56   H     H_    0.346126 0.290552 0.927777 0.138637
H57   H     H_    0.485541 0.747261 0.582509 0.165275
H58   H     H_    0.260752 0.993365 0.878778 0.133015
H59   H     H_    0.006632 0.267387 0.878777 0.133014
H60   H     H_    0.732612 0.739249 0.878778 0.133016
O1    O     O_R   0.910960 0.572410 0.171010 -0.531457
O2    O     O_R   0.528530 0.639750 0.824400 -0.511740
O3    O     O_R   0.111220 0.471470 0.824400 -0.511740
O4    O     O_R   0.360250 0.888780 0.824400 -0.511739
O5    O     O_R   0.909330 0.572400 0.331540 -0.556800
O6    O     O_R   0.427600 0.336930 0.331540 -0.556800
O7    O     O_R   0.663070 0.090670 0.331540 -0.556808
O8    O     O_R   0.572400 0.909330 0.668460 -0.541970
O9    O     O_R   0.336930 0.427600 0.668460 -0.541962
O10   O     O_R   0.090670 0.663070 0.668460 -0.541968
O11   O     O_R   0.638240 0.528520 0.324410 -0.509186
O12   O     O_R   0.427590 0.338550 0.171010 -0.531456
O13   O     O_R   0.471480 0.109720 0.324410 -0.509198
O14   O     O_R   0.890280 0.361760 0.324410 -0.509194
O15   O     O_R   0.528520 0.638240 0.675590 -0.522544
O16   O     O_R   0.109720 0.471480 0.675590 -0.522543
O17   O     O_R   0.361760 0.890280 0.675590 -0.522543
O18   O     O_3   0.666667 0.333333 0.250630 -0.256545
O19   O     O_3   0.333333 0.666667 0.749370 -0.263540
O20   O     O_R   0.661450 0.089040 0.171010 -0.531454
O21   O     O_R   0.572410 0.910960 0.828990 -0.518355
O22   O     O_R   0.338550 0.427590 0.828990 -0.518354
O23   O     O_R   0.089040 0.661450 0.828990 -0.518354
O24   O     O_R   0.639750 0.528530 0.175600 -0.513752
O25   O     O_R   0.471470 0.111220 0.175600 -0.513751
O26   O     O_R   0.888780 0.360250 0.175600 -0.513751

loop_
_geom_bond_atom_site_label_1
_geom_bond_atom_site_label_2
_ccdc_geom_bond_type
C25   C31   A    
C26   C32   A    
C20   O5    A    
C12   C29   S    
C76   H36   S    
C73   C74   S    
C25   C56   S    
C29   C36   A    
C8    H15   S    
C6    H13   S    
C82   H57   S    
C18   O6    A    
C39   C41   A    
C27   C33   A    
C81   H47   S    
Cr3   O26   S    
Cr6   O23   S    
C62   C67   A    
C41   H34   S    
C9    C16   A    
C9    C69   A    
C38   C42   A    
C83   H54   S    
Cr6   O17   S    
C18   O11   A    
C24   O8    A    
C75   C84   S    
C3    C80   S    
C19   C62   S    
C20   O14   A    
C46   C52   A    
C21   O15   A    
C14   H20   S    
Cr2   O25   S    
Cr1   O5    S    
C20   C61   S    
Cr2   O6    S    
Cr1   O11   S    
C13   H19   S    
C26   C45   S    
C7    C14   A    
C40   H23   S    
C28   C35   A    
C73   H33   S    
C4    C84   A    
C72   H27   S    
C73   C78   S    
C63   C70   A    
Cr2   O12   S    
C77   H46   S    
Cr4   O8    S    
Cr6   O4    S    
C51   C55   A    
C75   H40   S    
C47   C53   A    
Cr3   O14   S    
C60   C66   A    
Cr4   O21   S    
C21   O9    A    
C14   C17   A    
C10   H17   S    
C35   C48   A    
C6    C65   A    
C52   C54   A    
C17   H24   S    
Cr5   O9    S    
C77   C79   S    
C27   C34   S    
C58   C64   A    
C81   H48   S    
C79   H43   S    
C5    H11   S    
C1    O24   A    
C31   C44   A    
C19   O7    A    
C32   C35   A    
C15   H21   S    
C24   O17   A    
Cr2   O18   S    
C21   C60   S    
C56   O4    A    
C22   C59   S    
C34   O2    A    
C2    C59   A    
C50   H4    S    
C12   O20   A    
C23   O26   A    
C28   C39   A    
C53   H7    S    
C9    H16   S    
C49   C55   A    
C57   H10   S    
C38   H1    S    
C33   C37   A    
Cr3   O7    S    
C62   C69   A    
C42   H45   S    
C29   C38   A    
C48   C54   A    
C75   C76   S    
Cr1   O1    S    
C23   C28   S    
C2    C78   A    
C45   O23   A    
C11   C16   A    
Cr5   O3    S    
Cr3   O18   S    
C72   H25   S    
C47   H60   S    
C61   C78   A    
C65   C68   A    
C79   H41   S    
C4    C60   A    
Cr1   O24   S    
C30   C40   A    
C19   O13   A    
C64   C69   A    
C12   O25   A    
C10   C70   A    
C44   C51   A    
C74   H32   S    
C1    O12   A    
C8    C68   A    
C8    C15   A    
C7    H14   S    
C13   C15   A    
C56   O21   A    
C33   C47   A    
C45   O3    A    
C77   H44   S    
C73   H35   S    
C82   H55   S    
C34   O22   A    
C16   H22   S    
C39   H12   S    
C81   H49   S    
C23   O1    A    
C53   C57   A    
Cr4   O19   S    
C71   H28   S    
Cr1   O18   S    
C32   C46   A    
C3    C67   A    
Cr5   O22   S    
C80   C81   S    
C25   C42   A    
Cr4   O2    S    
C83   H52   S    
C5    C11   A    
C74   H30   S    
C72   H26   S    
C71   H29   S    
C63   C84   A    
C5    C64   A    
C40   C43   A    
C74   H31   S    
Cr5   O19   S    
C71   C72   S    
Cr4   O15   S    
C2    C77   S    
C80   H50   S    
C59   C65   A    
C7    C66   A    
C83   H53   S    
C37   C50   A    
C50   C57   A    
C61   C68   A    
C66   C70   A    
C22   O10   A    
C76   H38   S    
C79   H42   S    
Cr6   O19   S    
C1    C30   S    
C44   H58   S    
C52   H6    S    
C67   C71   S    
Cr6   O10   S    
C18   C63   S    
Cr5   O16   S    
C22   O16   A    
C3    C58   A    
C27   C43   A    
Cr3   O20   S    
C46   H59   S    
C4    C82   S    
C30   C37   A    
C24   C58   S    
C82   C83   S    
C48   H2    S    
C55   H9    S    
C11   H18   S    
C43   H56   S    
C76   H37   S    
C31   C36   A    
C54   H8    S    
Cr2   O13   S    
C10   C17   A    
C49   H3    S    
C80   H51   S    
C36   C49   A    
C75   H39   S    
C26   C41   A    
C51   H5    S    
C6    C13   A    
