data_mof_unit_19899.cif
_audit_creation_date              2012-12-11T17:23:10-0500
_audit_creation_method            fapswitch 2.2
_symmetry_space_group_name_H-M    P1
_symmetry_Int_Tables_number       1
_space_group_crystal_system       triclinic
_cell_length_a                    22.459651
_cell_length_b                    7.089555
_cell_length_c                    19.383072
_cell_angle_alpha                 90.000805
_cell_angle_beta                  99.386744
_cell_angle_gamma                 90.000072
_cell_volume                      3045.01942449

loop_
_atom_site_label
_atom_site_type_symbol
_atom_type_description
_atom_site_fract_x
_atom_site_fract_y
_atom_site_fract_z
_atom_type_partial_charge
O1    O     O_R   0.443980 0.494320 0.557430 -0.533597
O2    O     O_R   0.556020 0.994320 0.442570 -0.533596
O3    O     O_R   0.441210 0.822520 0.414610 -0.537857
O4    O     O_R   0.558790 0.322520 0.585390 -0.537855
C1    C     C_R   0.426715 0.655222 0.388860 0.688454
C2    C     C_R   0.573286 0.155224 0.611139 0.688465
O5    O     O_R   0.436920 0.823940 0.555180 -0.536870
O6    O     O_R   0.563080 0.323940 0.444820 -0.536867
O7    O     O_R   0.551700 0.995760 0.584140 -0.534736
O8    O     O_R   0.448300 0.495760 0.415860 -0.534740
C3    C     C_R   0.421663 0.655395 0.574983 0.719450
C4    C     C_R   0.578337 0.155394 0.425017 0.719457
O9    O     O_3   0.537660 0.661290 0.509340 -0.370367
O10   O     O_3   0.462340 0.161290 0.490660 -0.370375
V1    V     V_3+5 0.493010 0.935560 0.498270 1.428065
V2    V     V_3+5 0.506990 0.435560 0.501730 1.428073
H1    H     H_    0.710470 0.817739 0.297236 0.112857
H2    H     H_    0.289532 0.317740 0.702763 0.112849
C5    C     C_R   0.769975 0.932076 0.231181 -0.146774
C6    C     C_R   0.230026 0.432075 0.768818 -0.146798
C7    C     C_R   0.792259 0.095327 0.203188 0.137871
C8    C     C_R   0.207740 0.595326 0.796811 0.137873
C9    C     C_R   0.770780 0.272163 0.220756 -0.161475
C10   C     C_R   0.229216 0.772162 0.779243 -0.161511
H3    H     H_    0.787375 0.399912 0.199790 0.110034
H4    H     H_    0.212620 0.899911 0.800208 0.110028
C11   C     C_R   0.727809 0.285593 0.265797 -0.150494
C12   C     C_R   0.272187 0.785594 0.734201 -0.150513
H5    H     H_    0.711940 0.423440 0.278696 0.112290
H6    H     H_    0.288055 0.923443 0.721302 0.112286
C13   C     C_R   0.705655 0.122358 0.293969 0.136141
C14   C     C_R   0.294344 0.622360 0.706030 0.136143
C15   C     C_R   0.726994 0.945497 0.276203 -0.152546
C16   C     C_R   0.273007 0.445498 0.723795 -0.152579
C17   C     C_1   0.837532 0.081802 0.157392 -0.059851
C18   C     C_1   0.162467 0.581799 0.842607 -0.059893
C19   C     C_1   0.661079 0.135942 0.340684 -0.056405
C20   C     C_1   0.338921 0.635945 0.659315 -0.056438
C21   C     C_1   0.623628 0.145911 0.379402 -0.183750
C22   C     C_1   0.376371 0.645915 0.620598 -0.183773
C23   C     C_1   0.875711 0.071769 0.119642 -0.172228
C24   C     C_1   0.124289 0.571766 0.880358 -0.172258
C25   C     C_R   0.628890 0.130148 0.804448 -0.104913
C26   C     C_R   0.371114 0.630068 0.195552 -0.104911
H7    H     H_    0.542700 0.157837 0.739173 0.107808
H8    H     H_    0.457304 0.657739 0.260828 0.107806
H9    H     H_    0.608420 0.128142 0.851313 0.160213
H10   H     H_    0.391584 0.628022 0.148688 0.160214
C27   C     C_R   0.614780 0.146040 0.678381 -0.037981
C28   C     C_R   0.385222 0.646029 0.321618 -0.037978
C29   C     C_R   0.909228 0.095527 0.762354 -0.272979
C30   C     C_R   0.090773 0.595576 0.237644 -0.272828
C31   C     C_R   0.873368 0.118929 0.697076 0.516182
C32   C     C_R   0.126632 0.619036 0.302913 0.516172
C33   C     C_R   0.810846 0.130533 0.691944 -0.185865
C34   C     C_R   0.189155 0.630607 0.308053 -0.186107
C35   C     C_R   0.782011 0.107494 0.751080 -0.052144
C36   C     C_R   0.217991 0.607523 0.248918 -0.052054
C37   C     C_R   0.818995 0.075166 0.817710 -0.092412
C38   C     C_R   0.181006 0.575174 0.182289 -0.092398
C39   C     C_R   0.717598 0.117787 0.745815 0.037045
C40   C     C_R   0.282404 0.617791 0.254183 0.037047
C41   C     C_R   0.691791 0.112273 0.808026 -0.024669
C42   C     C_R   0.308212 0.612228 0.191973 -0.024677
C43   C     C_R   0.728535 0.084374 0.873146 0.343429
C44   C     C_R   0.271467 0.584317 0.126855 0.343414
C45   C     C_R   0.790451 0.047350 0.876940 0.315411
C46   C     C_R   0.209549 0.547320 0.123061 0.315404
C47   C     C_R   0.677545 0.132513 0.680853 -0.164640
C48   C     C_R   0.322456 0.632538 0.319145 -0.164651
C49   C     C_R   0.590988 0.146960 0.740406 -0.186954
C50   C     C_R   0.409015 0.646893 0.259594 -0.186956
C51   C     C_R   0.883374 0.073332 0.822699 -0.118578
C52   C     C_R   0.116626 0.573348 0.177300 -0.118672
H11   H     H_    0.693298 0.129335 0.631256 0.088275
H12   H     H_    0.306702 0.629400 0.368742 0.088255
H13   H     H_    0.957922 0.097699 0.766101 0.115352
H14   H     H_    0.042079 0.597697 0.233910 0.115505
H15   H     H_    0.786258 0.160288 0.640638 0.127797
H16   H     H_    0.213742 0.660381 0.359358 0.127744
O11   O     O_R   0.051730 0.724670 0.084120 -0.542054
O12   O     O_R   0.948270 0.224670 0.915880 -0.542055
O13   O     O_R   0.063080 0.393540 0.944820 -0.537492
O14   O     O_R   0.936920 0.893540 0.055180 -0.537493
C53   C     C_R   0.078224 0.562145 0.924904 0.776096
C54   C     C_R   0.921776 0.062146 0.075096 0.776107
O15   O     O_R   0.058800 0.395030 0.085390 -0.533632
O16   O     O_R   0.941200 0.895030 0.914610 -0.533640
O17   O     O_R   0.943980 0.223310 0.057440 -0.539795
O18   O     O_R   0.056020 0.723310 0.942560 -0.539799
C55   C     C_R   0.073896 0.563797 0.110495 0.802705
C56   C     C_R   0.926104 0.063794 0.889505 0.802699
O19   O     O_3   0.962360 0.556290 0.990650 -0.383078
O20   O     O_3   0.037640 0.056290 0.009350 -0.383081
V3    V     V_3+5 0.006980 0.281990 0.001730 1.410532
V4    V     V_3+5 0.993020 0.781990 0.998270 1.410527
O21   O     O_3   0.899298 0.148590 0.638050 -0.554046
C57   C     C_3   0.922528 0.975939 0.617943 -0.240662
H17   H     H_    0.886944 0.865041 0.609206 0.138481
H18   H     H_    0.961353 0.927438 0.657032 0.135354
H19   H     H_    0.939258 0.997276 0.567731 0.171029
O22   O     O_3   0.100681 0.648712 0.361919 -0.554049
C58   C     C_3   0.077814 0.475778 0.382268 -0.240767
H20   H     H_    0.113671 0.365784 0.391324 0.138467
H21   H     H_    0.039190 0.425984 0.343160 0.135432
H22   H     H_    0.060902 0.497283 0.432361 0.171034
O23   O     O_3   0.822467 0.983718 0.939597 -0.561581
C59   C     C_3   0.812329 0.787687 0.944341 -0.163089
H23   H     H_    0.828791 0.709803 0.901247 0.118738
H24   H     H_    0.763905 0.754984 0.944491 0.143389
H25   H     H_    0.837708 0.734774 0.994416 0.156911
O24   O     O_3   0.177531 0.483680 0.060404 -0.561579
C60   C     C_3   0.187665 0.287647 0.055662 -0.163060
H26   H     H_    0.171206 0.209773 0.098758 0.118732
H27   H     H_    0.236088 0.254936 0.055508 0.143395
H28   H     H_    0.162283 0.234728 0.005590 0.156913
H29   H     H_    0.785930 0.794252 0.218378 0.110345
H30   H     H_    0.214072 0.294250 0.781621 0.110335
O25   O     O_3   0.702824 0.073436 0.933284 -0.547709
C61   C     C_3   0.714205 0.244086 0.970528 -0.217692
H31   H     H_    0.695249 0.366920 0.938412 0.115357
H32   H     H_    0.763297 0.264890 0.989187 0.157781
H33   H     H_    0.691682 0.238297 0.017338 0.165671
O26   O     O_3   0.297179 0.573344 0.066717 -0.547715
C62   C     C_3   0.285804 0.743983 0.029467 -0.217685
H34   H     H_    0.304766 0.866821 0.061578 0.115363
H35   H     H_    0.236713 0.764803 0.010808 0.157785
H36   H     H_    0.308327 0.738165 0.982657 0.165675

loop_
_geom_bond_atom_site_label_1
_geom_bond_atom_site_label_2
_ccdc_geom_bond_type
C36   C40   A    
C44   C46   A    
O16   V4    S    
O4    V2    S    
O15   C55   A    
C11   H5    S    
C18   C24   T    
O1    C3    A    
O2    C4    A    
C2    O7    A    
C41   C43   A    
O21   C57   S    
C25   C41   A    
C26   C42   A    
O5    C3    A    
C23   C54   S    
C5    C7    A    
O14   C54   A    
C30   C52   A    
C46   O24   S    
C35   C37   A    
H7    C49   S    
C36   C38   A    
O12   C56   A    
C59   H23   S    
C40   C48   A    
O14   V4    S    
C38   C52   A    
C35   C39   A    
C39   C41   A    
C28   C50   A    
C40   C42   A    
C37   C45   A    
O16   C56   A    
C61   H32   S    
C43   C45   A    
O15   V3    S    
C62   H36   S    
O23   C59   S    
C13   C15   A    
C26   C50   A    
C14   C20   S    
C34   C36   A    
C37   C51   A    
H8    C50   S    
C61   H33   S    
C60   H28   S    
C6    C16   A    
O5    V1    S    
O6    V2    S    
C27   C47   A    
O20   V3    S    
H1    C15   S    
C30   H14   S    
C6    H30   S    
O24   C60   S    
C30   C32   A    
C31   C33   A    
C53   O18   A    
C32   C34   A    
C11   C13   A    
C3    C22   S    
C29   C51   A    
C12   C14   A    
O4    C2    A    
C5    C15   A    
C24   C53   S    
O11   V4    S    
C31   O21   S    
C13   C19   S    
C29   C31   A    
C42   C44   A    
C52   C55   S    
O17   V3    S    
C29   H13   S    
C33   H15   S    
O6    C4    A    
O13   V3    S    
C43   O25   S    
C58   H21   S    
O1    V2    S    
O20   V4    S    
O2    V1    S    
H2    C16   S    
C38   C46   A    
O13   C53   A    
C6    C8    A    
O19   V4    S    
C9    C11   A    
C7    C9    A    
C48   H12   S    
C62   H34   S    
C44   O26   S    
C1    C28   S    
O3    V1    S    
C61   H31   S    
C60   H26   S    
C39   C47   A    
C25   C49   A    
O12   V3    S    
C32   O22   S    
C10   C12   A    
C51   C56   S    
C10   H4    S    
O3    C1    A    
C54   O17   A    
O25   C61   S    
O18   V4    S    
C7    C17   S    
C57   H19   S    
C8    C18   S    
C57   H18   S    
C34   H16   S    
C59   H25   S    
C4    C21   S    
C33   C35   A    
C28   C48   A    
C1    O8    A    
C19   C21   T    
O8    V2    S    
C20   C22   T    
C45   O23   S    
C12   H6    S    
C59   H24   S    
C47   H11   S    
C58   H22   S    
C8    C10   A    
C9    H3    S    
C2    C27   S    
O7    V1    S    
O22   C58   S    
C17   C23   T    
O11   C55   A    
C5    H29   S    
O19   V3    S    
C57   H17   S    
C27   C49   A    
O9    V2    S    
C58   H20   S    
C62   H35   S    
O10   V1    S    
C25   H9    S    
C26   H10   S    
C14   C16   A    
O26   C62   S    
C60   H27   S    
