data_mof_unit_55713.cif
_audit_creation_date              2012-12-11T15:17:38-0500
_audit_creation_method            fapswitch 2.2
_symmetry_space_group_name_H-M    P1
_symmetry_Int_Tables_number       1
_space_group_crystal_system       triclinic
_cell_length_a                    15.757423
_cell_length_b                    15.73039
_cell_length_c                    34.978162
_cell_angle_alpha                 89.80061
_cell_angle_beta                  89.790919
_cell_angle_gamma                 119.365319
_cell_volume                      7555.85489014

loop_
_atom_site_label
_atom_site_type_symbol
_atom_type_description
_atom_site_fract_x
_atom_site_fract_y
_atom_site_fract_z
_atom_type_partial_charge
C1    C     C_R   0.577746 0.439783 0.555069 0.550673
C2    C     C_R   0.560316 0.136358 0.554554 0.560245
C3    C     C_R   0.860865 0.421591 0.555466 0.554775
C4    C     C_R   0.438856 0.579058 0.055873 0.547921
C5    C     C_R   0.140320 0.561214 0.055849 0.550122
C6    C     C_R   0.419172 0.858003 0.056240 0.548665
C7    C     C_R   0.965984 0.481003 0.713116 0.354715
C8    C     C_R   0.513602 0.480183 0.712005 0.384923
C9    C     C_R   0.509302 0.028496 0.711478 0.387895
C10   C     C_R   0.474489 0.978023 0.212412 0.343181
C11   C     C_R   0.504829 0.512406 0.211203 0.340509
C12   C     C_R   0.016367 0.497500 0.211493 0.343888
C13   C     C_R   0.059072 0.434926 0.846164 -0.052104
C14   C     C_R   0.582844 0.612673 0.849645 -0.050585
C15   C     C_R   0.365195 0.946552 0.848147 -0.033843
C16   C     C_R   0.427496 0.049161 0.349031 -0.034487
C17   C     C_R   0.619606 0.576486 0.349191 -0.026029
C18   C     C_R   0.942619 0.367881 0.347559 -0.024932
C19   C     C_R   0.074171 0.444760 0.886513 0.224554
C20   C     C_R   0.569460 0.620065 0.890038 0.232788
C21   C     C_R   0.363636 0.933314 0.888915 0.256608
C22   C     C_R   0.441132 0.066416 0.389076 0.230612
C23   C     C_R   0.621959 0.567233 0.389833 0.236414
C24   C     C_R   0.922843 0.360861 0.387570 0.256443
C25   C     C_R   0.091926 0.608745 0.883187 0.236494
C26   C     C_R   0.410113 0.473124 0.887555 0.210347
C27   C     C_R   0.511916 0.918918 0.883875 0.212471
C28   C     C_R   0.611445 0.102665 0.382535 0.231079
C29   C     C_R   0.475591 0.407308 0.387534 0.235792
C30   C     C_R   0.921505 0.516867 0.385206 0.232072
C31   C     C_R   0.073901 0.598018 0.844030 0.275043
C32   C     C_R   0.419993 0.469129 0.847931 0.260557
C33   C     C_R   0.514339 0.933467 0.844428 0.269840
C34   C     C_R   0.597891 0.085029 0.343478 0.278874
C35   C     C_R   0.475953 0.411939 0.347523 0.262525
C36   C     C_R   0.932734 0.519656 0.345662 0.273570
C37   C     C_R   0.060130 0.512953 0.825566 -0.054605
C38   C     C_R   0.505334 0.537024 0.828844 -0.052807
C39   C     C_R   0.441921 0.946700 0.826379 -0.052149
C40   C     C_R   0.507383 0.058963 0.326717 -0.042283
C41   C     C_R   0.547643 0.495728 0.328185 -0.039337
C42   C     C_R   0.945366 0.447315 0.326967 -0.048164
C43   C     C_R   0.097523 0.536062 0.904730 -0.025965
C44   C     C_R   0.476374 0.554826 0.907948 -0.012937
C45   C     C_R   0.433972 0.909635 0.905949 -0.017892
C46   C     C_R   0.535255 0.095719 0.405760 -0.030038
C47   C     C_R   0.555552 0.475519 0.408118 0.003063
C48   C     C_R   0.908604 0.435684 0.406124 -0.029600
C49   C     C_R   0.579692 0.445289 0.445561 0.592422
C50   C     C_R   0.557400 0.137764 0.444837 0.591067
C51   C     C_R   0.861570 0.417803 0.444599 0.595204
C52   C     C_R   0.445059 0.579772 0.945308 0.583777
C53   C     C_R   0.139137 0.557971 0.944292 0.582455
C54   C     C_R   0.418158 0.863083 0.944826 0.578916
C55   C     C_R   0.896199 0.448865 0.595131 -0.000850
C56   C     C_R   0.541213 0.453441 0.592354 -0.009661
C57   C     C_R   0.548069 0.087691 0.591762 0.003432
C58   C     C_R   0.445861 0.897725 0.095576 -0.021313
C59   C     C_R   0.453288 0.545646 0.094052 -0.023225
C60   C     C_R   0.096671 0.548404 0.094485 -0.021894
C61   C     C_R   0.883978 0.370424 0.618091 -0.153366
C62   C     C_R   0.599464 0.541185 0.611309 -0.171361
C63   C     C_R   0.464027 0.071646 0.611556 -0.164408
C64   C     C_R   0.377411 0.914922 0.114566 -0.167142
C65   C     C_R   0.541422 0.607556 0.112012 -0.166951
C66   C     C_R   0.073983 0.460659 0.112836 -0.168109
C67   C     C_R   0.898106 0.379894 0.657084 -0.163766
C68   C     C_R   0.588803 0.548619 0.650223 -0.183335
C69   C     C_R   0.454751 0.055697 0.650204 -0.167478
C70   C     C_R   0.384918 0.935596 0.152989 -0.184595
C71   C     C_R   0.556311 0.595679 0.149921 -0.179724
C72   C     C_R   0.050910 0.446952 0.151003 -0.180921
C73   C     C_R   0.933212 0.470612 0.673885 0.047858
C74   C     C_R   0.518292 0.469382 0.670848 0.049761
C75   C     C_R   0.527469 0.051420 0.670712 0.058134
C76   C     C_R   0.465213 0.946712 0.173048 0.044539
C77   C     C_R   0.485354 0.518209 0.170878 0.046083
C78   C     C_R   0.044747 0.518597 0.171702 0.041722
C79   C     C_R   0.949818 0.552661 0.652093 0.276326
C80   C     C_R   0.450797 0.383652 0.652267 0.287733
C81   C     C_R   0.612904 0.063304 0.652827 0.274973
C82   C     C_R   0.537240 0.931282 0.155652 0.301040
C83   C     C_R   0.396501 0.450285 0.153879 0.299617
C84   C     C_R   0.065003 0.608037 0.154772 0.298833
C85   C     C_R   0.925886 0.542822 0.612406 0.005320
C86   C     C_R   0.460312 0.374875 0.612236 0.003111
C87   C     C_R   0.623873 0.077953 0.611955 0.003749
C88   C     C_R   0.528832 0.906033 0.116168 0.000177
C89   C     C_R   0.378770 0.462382 0.114692 -0.001854
C90   C     C_R   0.090276 0.624570 0.115253 -0.001486
C91   C     C_R   0.027550 0.498223 0.785791 0.328744
C92   C     C_R   0.511845 0.522456 0.786924 0.364981
C93   C     C_R   0.455967 0.970625 0.784851 0.359991
C94   C     C_R   0.494817 0.032516 0.286126 0.334672
C95   C     C_R   0.537381 0.502937 0.286577 0.336150
C96   C     C_R   0.965905 0.458923 0.285750 0.338845
Cr1   Cr    Cr6+3 0.522350 0.263930 0.500020 1.005842
Cr2   Cr    Cr6+3 0.736070 0.258420 0.500020 1.004069
Cr3   Cr    Cr6+3 0.741580 0.477650 0.500020 0.989167
Cr4   Cr    Cr6+3 0.263930 0.522350 0.000020 0.999203
Cr5   Cr    Cr6+3 0.258420 0.736070 0.000020 0.987656
Cr6   Cr    Cr6+3 0.477650 0.741580 0.000020 0.993821
H1    H     H_    0.861570 0.299477 0.606143 0.141563
H2    H     H_    0.657797 0.602738 0.596528 0.135505
H3    H     H_    0.406087 0.077777 0.597467 0.136250
H4    H     H_    0.316147 0.911072 0.099735 0.142734
H5    H     H_    0.598780 0.668579 0.096896 0.143962
H6    H     H_    0.076675 0.402240 0.097818 0.141887
H7    H     H_    0.887544 0.317278 0.673828 0.151358
H8    H     H_    0.637843 0.615907 0.664537 0.120637
H9    H     H_    0.390505 0.048634 0.664555 0.144220
H10   H     H_    0.329157 0.946109 0.166877 0.120451
H11   H     H_    0.624179 0.647661 0.163125 0.127067
H12   H     H_    0.036360 0.378944 0.164452 0.130330
N1    N     N_R   0.931050 0.455442 0.778119 -0.197685
N2    N     N_R   0.590478 0.521619 0.771375 -0.234296
N3    N     N_R   0.451905 0.048824 0.770397 -0.230565
N4    N     N_R   0.424670 0.942252 0.275635 -0.281050
N5    N     N_R   0.528936 0.578616 0.272129 -0.277023
N6    N     N_R   0.043735 0.454292 0.271715 -0.283129
N7    N     N_R   0.900557 0.446129 0.742186 -0.213148
N8    N     N_R   0.591953 0.502378 0.734381 -0.216438
N9    N     N_R   0.476345 0.076137 0.734095 -0.200857
N10   N     N_R   0.413839 0.915653 0.239238 -0.272393
N11   N     N_R   0.514061 0.583958 0.235124 -0.268517
N12   N     N_R   0.067888 0.471869 0.235033 -0.269581
N13   N     N_R   0.062445 0.521854 0.720733 -0.200471
N14   N     N_R   0.434993 0.480185 0.727468 -0.224343
N15   N     N_R   0.512808 0.950336 0.725585 -0.215720
N16   N     N_R   0.545992 0.067773 0.222736 -0.173309
N17   N     N_R   0.511734 0.435652 0.225437 -0.174043
N18   N     N_R   0.938939 0.503179 0.225274 -0.172959
N19   N     N_R   0.092919 0.529868 0.756533 -0.266206
N20   N     N_R   0.434604 0.501187 0.764125 -0.211875
N21   N     N_R   0.486367 0.922059 0.761511 -0.211285
N22   N     N_R   0.555763 0.094940 0.259088 -0.155363
N23   N     N_R   0.528143 0.431126 0.262435 -0.157488
N24   N     N_R   0.913686 0.483602 0.261823 -0.151104
O1    O     O_R   0.498680 0.159540 0.541860 -0.541353
O2    O     O_R   0.840460 0.339140 0.541860 -0.556412
O3    O     O_R   0.660860 0.501320 0.541860 -0.544576
O4    O     O_R   0.159540 0.498680 0.041860 -0.533116
O5    O     O_R   0.339140 0.840460 0.041860 -0.539533
O6    O     O_R   0.501320 0.660860 0.041860 -0.536343
O7    O     O_R   0.532760 0.358060 0.540030 -0.514678
O8    O     O_R   0.641940 0.174700 0.540030 -0.526142
O9    O     O_R   0.825300 0.467240 0.540030 -0.525452
O10   O     O_R   0.358060 0.532760 0.040030 -0.524300
O11   O     O_R   0.174700 0.641940 0.040030 -0.527764
O12   O     O_R   0.467240 0.825300 0.040030 -0.526084
O13   O     O_R   0.498590 0.161190 0.456930 -0.509821
O14   O     O_R   0.838810 0.337400 0.456930 -0.484221
O15   O     O_R   0.662600 0.501410 0.456930 -0.529204
O16   O     O_R   0.161190 0.498590 0.956930 -0.520259
O17   O     O_R   0.337400 0.838810 0.956930 -0.532347
O18   O     O_R   0.501410 0.662600 0.956930 -0.524137
O19   O     O_R   0.532680 0.359580 0.461300 -0.467206
O20   O     O_R   0.640420 0.173100 0.461300 -0.466331
O21   O     O_R   0.826900 0.467320 0.461300 -0.469813
O22   O     O_R   0.359580 0.532680 0.961300 -0.473569
O23   O     O_R   0.173100 0.640420 0.961300 -0.477678
O24   O     O_R   0.467320 0.826900 0.961300 -0.468778
O25   O     O_3   0.666667 0.333333 0.499990 -0.249795
O26   O     O_3   0.333333 0.666667 0.999990 -0.250032
C97   C     C_3   0.950293 0.639881 0.591113 -0.240314
C98   C     C_3   0.869312 0.639571 0.565757 -0.275463
C99   C     C_3   0.864325 0.734536 0.565850 -0.491959
H13   H     H_    0.832679 0.742221 0.593302 0.139288
H14   H     H_    0.938017 0.798004 0.560927 0.146552
H15   H     H_    0.816162 0.732376 0.541970 0.144811
H16   H     H_    0.884858 0.630312 0.534913 0.189242
H17   H     H_    0.798709 0.581674 0.577269 0.223122
H18   H     H_    0.959939 0.695642 0.613874 0.188403
H19   H     H_    0.024154 0.671966 0.574847 0.132070
C100  C     C_3   0.387764 0.279814 0.592605 -0.224389
C101  C     C_3   0.328594 0.296360 0.561384 -0.297806
C102  C     C_3   0.266591 0.203116 0.538796 -0.448731
H20   H     H_    0.311659 0.172067 0.527595 0.162931
H21   H     H_    0.207795 0.147929 0.557280 0.137187
H22   H     H_    0.233123 0.219937 0.514098 0.127475
H23   H     H_    0.376646 0.354375 0.540979 0.182084
H24   H     H_    0.280098 0.320633 0.574803 0.142004
H25   H     H_    0.425628 0.241721 0.581437 0.191364
H26   H     H_    0.334855 0.225272 0.612778 0.156700
C103  C     C_3   0.716430 0.079839 0.594898 -0.238564
C104  C     C_3   0.750718 0.092870 0.552796 -0.292093
C105  C     C_3   0.840198 0.079157 0.548053 -0.495891
H27   H     H_    0.903172 0.136526 0.564078 0.142807
H28   H     H_    0.825165 0.006451 0.558432 0.152147
H29   H     H_    0.861473 0.086325 0.517367 0.125625
H30   H     H_    0.691601 0.041437 0.533800 0.163138
H31   H     H_    0.779286 0.168731 0.543389 0.233234
H32   H     H_    0.779133 0.137422 0.610430 0.158459
H33   H     H_    0.708121 0.007686 0.602535 0.130680
C106  C     C_3   0.605031 0.888865 0.095113 -0.226220
C107  C     C_3   0.688103 0.886925 0.117128 -0.290518
C108  C     C_3   0.754344 0.869108 0.090119 -0.485641
H34   H     H_    0.711744 0.810944 0.069155 0.155307
H35   H     H_    0.802982 0.937017 0.074099 0.149239
H36   H     H_    0.799315 0.846218 0.107026 0.148692
H37   H     H_    0.734167 0.957363 0.131535 0.226937
H38   H     H_    0.656699 0.825966 0.138172 0.170035
H39   H     H_    0.566326 0.814710 0.083176 0.190085
H40   H     H_    0.637232 0.943745 0.071629 0.148223
C109  C     C_3   0.283285 0.392109 0.094169 -0.225036
C110  C     C_3   0.203771 0.300919 0.114741 -0.287152
C111  C     C_3   0.120234 0.237323 0.087720 -0.482149
H41   H     H_    0.098828 0.282198 0.069945 0.156920
H42   H     H_    0.141657 0.194942 0.068480 0.147638
H43   H     H_    0.055676 0.185115 0.104692 0.147280
H44   H     H_    0.233879 0.255307 0.126133 0.221812
H45   H     H_    0.171993 0.323942 0.138125 0.174396
H46   H     H_    0.246856 0.434624 0.086437 0.180747
H47   H     H_    0.303073 0.366752 0.067678 0.155359
C112  C     C_3   0.111900 0.719908 0.094534 -0.226120
C113  C     C_3   0.106281 0.802322 0.116103 -0.285190
C114  C     C_3   0.126736 0.887958 0.089404 -0.485287
H48   H     H_    0.189762 0.906628 0.070246 0.153185
H49   H     H_    0.062525 0.869396 0.071244 0.147060
H50   H     H_    0.142944 0.953596 0.106561 0.149250
H51   H     H_    0.033048 0.775602 0.128964 0.219606
H52   H     H_    0.162433 0.831075 0.138719 0.178703
H53   H     H_    0.188041 0.754155 0.084388 0.184823
H54   H     H_    0.062195 0.699890 0.069605 0.148094
O27   O     O_3   0.044495 0.360876 0.908714 -0.564671
C115  C     C_3   0.123519 0.346149 0.918709 -0.053733
H55   H     H_    0.124498 0.337749 0.950164 0.162645
H56   H     H_    0.194582 0.406851 0.909038 0.193803
H57   H     H_    0.113374 0.275571 0.908642 0.095021
O28   O     O_3   0.651822 0.668347 0.912968 -0.562293
C116  C     C_3   0.670589 0.762742 0.923763 -0.077273
H58   H     H_    0.668439 0.766801 0.955326 0.161680
H59   H     H_    0.619740 0.784150 0.910732 0.188011
H60   H     H_    0.746376 0.818099 0.916662 0.085717
O29   O     O_3   0.324528 0.980391 0.910876 -0.570121
C117  C     C_3   0.237381 0.917377 0.930868 -0.084759
H61   H     H_    0.250924 0.931253 0.962010 0.150858
H62   H     H_    0.209392 0.839893 0.924746 0.212896
H63   H     H_    0.177921 0.933592 0.924494 0.073406
O30   O     O_3   0.361160 0.043075 0.413075 -0.570952
C118  C     C_3   0.344010 0.123612 0.417209 -0.044103
H64   H     H_    0.350769 0.146679 0.447709 0.173807
H65   H     H_    0.393203 0.187040 0.398582 0.206871
H66   H     H_    0.266270 0.100880 0.411811 0.074309
O31   O     O_3   0.667296 0.651673 0.412077 -0.573361
C119  C     C_3   0.760705 0.671946 0.425017 -0.076643
H67   H     H_    0.783637 0.620915 0.413396 0.210926
H68   H     H_    0.816730 0.747492 0.417864 0.074264
H69   H     H_    0.761575 0.670789 0.456744 0.154078
O32   O     O_3   0.893550 0.270709 0.404960 -0.501929
C120  C     C_3   0.959118 0.272503 0.432992 -0.103122
H70   H     H_    0.920002 0.247142 0.460873 0.155125
H71   H     H_    0.025324 0.344634 0.436590 0.083293
H72   H     H_    0.979389 0.215818 0.426498 0.073533
O33   O     O_3   0.008508 0.644797 0.667470 -0.572397
C121  C     C_3   0.952912 0.677338 0.688399 -0.129774
H73   H     H_    0.872474 0.629692 0.686328 0.117514
H74   H     H_    0.971001 0.751174 0.677817 0.113367
H75   H     H_    0.975042 0.686236 0.718806 0.146004
O34   O     O_3   0.389018 0.302937 0.674306 -0.555142
C122  C     C_3   0.292419 0.286553 0.673208 -0.117747
H76   H     H_    0.242147 0.206447 0.672212 0.122805
H77   H     H_    0.276094 0.319442 0.647957 0.092083
H78   H     H_    0.275603 0.313728 0.699795 0.165992
O35   O     O_3   0.693226 0.093814 0.676857 -0.552261
C123  C     C_3   0.737752 0.032253 0.675583 -0.116797
H79   H     H_    0.811159 0.072723 0.660182 0.096200
H80   H     H_    0.690218 0.958017 0.663114 0.098010
H81   H     H_    0.756650 0.021231 0.705140 0.153528
O36   O     O_3   0.619560 0.950568 0.176298 -0.577390
C124  C     C_3   0.598321 0.873471 0.202289 -0.133811
H82   H     H_    0.550321 0.800175 0.189854 0.118509
H83   H     H_    0.565565 0.881992 0.229057 0.148428
H84   H     H_    0.667987 0.876734 0.210277 0.130730
O37   O     O_3   0.331742 0.368963 0.174796 -0.576272
C125  C     C_3   0.277127 0.393439 0.200201 -0.132433
H85   H     H_    0.251699 0.441223 0.186678 0.117055
H86   H     H_    0.318445 0.427625 0.226581 0.144541
H87   H     H_    0.211422 0.324819 0.209190 0.131902
O38   O     O_3   0.056761 0.676773 0.176741 -0.577349
C126  C     C_3   0.138620 0.724298 0.200906 -0.132654
H88   H     H_    0.207993 0.739994 0.186443 0.117285
H89   H     H_    0.128706 0.681808 0.227507 0.145632
H90   H     H_    0.145715 0.795217 0.209650 0.131582
C127  C     C_3   0.029155 0.340974 0.823109 -0.222605
C128  C     C_3   0.040701 0.257075 0.839684 -0.294557
C129  C     C_3   0.020954 0.179300 0.809733 -0.469877
H91   H     H_    0.945888 0.148662 0.798578 0.169652
H92   H     H_    0.073855 0.210466 0.785668 0.152544
H93   H     H_    0.029725 0.119889 0.822991 0.142403
H94   H     H_    0.115968 0.282998 0.848751 0.175832
H95   H     H_    0.989085 0.222460 0.863796 0.211910
H96   H     H_    0.951662 0.310868 0.815103 0.181524
H97   H     H_    0.071762 0.362370 0.795973 0.138319
C130  C     C_3   0.675850 0.680472 0.826555 -0.221461
C131  C     C_3   0.754504 0.775775 0.843821 -0.295028
C132  C     C_3   0.832951 0.838534 0.814439 -0.473193
H98   H     H_    0.873700 0.801336 0.804960 0.166637
H99   H     H_    0.800718 0.854418 0.789086 0.145211
H100  H     H_    0.884849 0.909194 0.827650 0.140844
H101  H     H_    0.721737 0.819498 0.853969 0.166382
H102  H     H_    0.791030 0.758829 0.867248 0.209187
H103  H     H_    0.712252 0.638222 0.818111 0.190290
H104  H     H_    0.652374 0.702103 0.799966 0.131599
C133  C     C_3   0.293601 0.969593 0.826584 -0.210353
C134  C     C_3   0.196971 0.946554 0.845733 -0.290275
C135  C     C_3   0.128747 0.960407 0.818414 -0.468861
H105  H     H_    0.163137 0.037256 0.808333 0.163775
H106  H     H_    0.109465 0.912342 0.793127 0.150593
H107  H     H_    0.060504 0.943212 0.833846 0.141053
H108  H     H_    0.159618 0.870558 0.856939 0.218374
H109  H     H_    0.212402 0.000069 0.868651 0.202650
H110  H     H_    0.331793 0.048281 0.819022 0.186992
H111  H     H_    0.274536 0.928216 0.799326 0.133345
C136  C     C_3   0.330455 0.013858 0.327473 -0.206123
C137  C     C_3   0.247229 0.024847 0.344566 -0.297940
C138  C     C_3   0.159444 0.984807 0.317764 -0.481339
H112  H     H_    0.178798 0.027367 0.290562 0.164908
H113  H     H_    0.133302 0.906398 0.311512 0.141343
H114  H     H_    0.099241 0.990775 0.331873 0.132936
H115  H     H_    0.221220 0.980384 0.371188 0.203365
H116  H     H_    0.272491 0.104065 0.348711 0.186895
H117  H     H_    0.347223 0.054296 0.299801 0.172486
H118  H     H_    0.301099 0.935169 0.321489 0.165071
C139  C     C_3   0.688533 0.669044 0.325790 -0.202951
C140  C     C_3   0.784252 0.745807 0.343187 -0.292624
C141  C     C_3   0.848535 0.823882 0.313900 -0.477644
H119  H     H_    0.871335 0.791637 0.290511 0.172546
H120  H     H_    0.809158 0.859967 0.301631 0.145188
H121  H     H_    0.915095 0.880119 0.328321 0.130506
H122  H     H_    0.767091 0.784162 0.365835 0.195048
H123  H     H_    0.825660 0.710211 0.353802 0.205297
H124  H     H_    0.710358 0.645385 0.299305 0.176545
H125  H     H_    0.647395 0.706617 0.317234 0.160867
C142  C     C_3   0.956683 0.291860 0.324395 -0.193857
C143  C     C_3   0.938454 0.195586 0.342683 -0.266376
C144  C     C_3   0.948766 0.129136 0.313338 -0.487661
H126  H     H_    0.896866 0.112749 0.289421 0.170463
H127  H     H_    0.024158 0.164067 0.301675 0.147262
H128  H     H_    0.932517 0.059154 0.327274 0.130209
H129  H     H_    0.994035 0.211478 0.364841 0.157433
H130  H     H_    0.863743 0.155593 0.354694 0.257433
H131  H     H_    0.908801 0.272054 0.298902 0.187471
H132  H     H_    0.033535 0.328077 0.314394 0.147821
O39   O     O_3   0.104202 0.692778 0.900014 -0.577637
C145  C     C_3   0.015232 0.674720 0.916632 -0.109980
H133  H     H_    0.005292 0.638765 0.944877 0.122852
H134  H     H_    0.951479 0.630653 0.897896 0.154773
H135  H     H_    0.017888 0.745652 0.921347 0.111815
O40   O     O_3   0.332861 0.397193 0.906154 -0.597321
C146  C     C_3   0.356752 0.323555 0.913781 -0.101981
H136  H     H_    0.418009 0.349631 0.934374 0.123172
H137  H     H_    0.374543 0.296756 0.887077 0.168698
H138  H     H_    0.292550 0.260805 0.927093 0.124072
O41   O     O_3   0.588691 0.915020 0.900793 -0.588578
C147  C     C_3   0.647400 0.004514 0.919138 -0.101504
H139  H     H_    0.606678 0.018122 0.942142 0.115725
H140  H     H_    0.677756 0.066039 0.898188 0.156359
H141  H     H_    0.708839 0.000827 0.932720 0.121316
O42   O     O_3   0.703068 0.134312 0.397366 -0.473307
C148  C     C_3   0.708625 0.052492 0.410679 -0.082678
H142  H     H_    0.690264 0.996976 0.387921 0.094815
H143  H     H_    0.660640 0.018956 0.435955 0.097665
H144  H     H_    0.784645 0.076928 0.419535 0.141861
O43   O     O_3   0.399909 0.332038 0.407310 -0.584037
C149  C     C_3   0.312718 0.337140 0.403820 -0.126693
H145  H     H_    0.318469 0.397476 0.385005 0.100925
H146  H     H_    0.289563 0.347863 0.432942 0.117738
H147  H     H_    0.253910 0.265746 0.392403 0.115964
O44   O     O_3   0.909982 0.588590 0.402949 -0.567811
C150  C     C_3   0.001610 0.673526 0.407372 -0.131613
H148  H     H_    0.063294 0.672691 0.391744 0.096147
H149  H     H_    0.019920 0.684999 0.438323 0.120980
H150  H     H_    0.995523 0.737158 0.396739 0.122749
O45   O     O_3   0.053151 0.664648 0.826192 -0.546610
C151  C     C_3   0.115557 0.710106 0.794682 -0.091999
H151  H     H_    0.075726 0.679802 0.767705 0.165213
H152  H     H_    0.184895 0.707247 0.795310 0.119526
H153  H     H_    0.134524 0.786887 0.794177 0.121998
O46   O     O_3   0.346102 0.394467 0.827777 -0.530514
C152  C     C_3   0.276660 0.423218 0.818745 -0.084768
H154  H     H_    0.308404 0.496277 0.804942 0.126332
H155  H     H_    0.238490 0.426397 0.844720 0.117658
H156  H     H_    0.224778 0.370099 0.798058 0.148479
O47   O     O_3   0.597121 0.950970 0.824291 -0.519461
C153  C     C_3   0.593614 0.861509 0.816324 -0.083248
H157  H     H_    0.536575 0.818055 0.795204 0.134127
H158  H     H_    0.580404 0.816016 0.842318 0.128081
H159  H     H_    0.664396 0.878170 0.803322 0.138563
O48   O     O_3   0.676577 0.097703 0.321341 -0.520900
C154  C     C_3   0.664253 0.006363 0.309501 -0.115941
H160  H     H_    0.662994 0.003736 0.277784 0.163332
H161  H     H_    0.597161 0.941240 0.320578 0.091673
H162  H     H_    0.727931 0.000048 0.319003 0.111537
O49   O     O_3   0.413916 0.328021 0.327603 -0.534754
C155  C     C_3   0.336160 0.335629 0.310804 -0.104263
H163  H     H_    0.333759 0.320075 0.279648 0.164933
H164  H     H_    0.339899 0.407967 0.314294 0.092289
H165  H     H_    0.266267 0.278068 0.323278 0.105746
O50   O     O_3   0.917118 0.586235 0.325033 -0.520216
C156  C     C_3   0.006194 0.665586 0.312279 -0.103853
H166  H     H_    0.998114 0.680795 0.281779 0.162569
H167  H     H_    0.070227 0.653520 0.314165 0.090945
H168  H     H_    0.021385 0.731786 0.328669 0.107912

loop_
_geom_bond_atom_site_label_1
_geom_bond_atom_site_label_2
_ccdc_geom_bond_type
C154  H162  S    
C6    C58   S    
C36   C42   A    
C144  H126  S    
C7    C73   S    
Cr2   O14   S    
C126  H90   S    
C101  H24   S    
C93   N3    A    
C128  H94   S    
C49   O15   A    
C1    C56   S    
C155  H164  S    
C10   N10   A    
C106  H39   S    
Cr5   O17   S    
C124  H82   S    
C4    O10   A    
C121  H75   S    
C38   C92   S    
C5    O11   A    
C71   H11   S    
C33   O47   S    
C108  H35   S    
C80   C86   A    
C89   C109  S    
C111  H43   S    
C129  H92   S    
C140  C141  S    
C63   H3    S    
C114  H49   S    
C25   O39   S    
C151  H153  S    
C137  H116  S    
O31   C119  S    
C148  H144  S    
C110  C111  S    
C107  C108  S    
C95   N5    A    
C147  H141  S    
C133  H111  S    
C31   C37   A    
C137  C138  S    
C138  H114  S    
C153  H158  S    
C112  C113  S    
C14   C38   A    
C56   C86   A    
O41   C147  S    
C8    C74   S    
C134  C135  S    
N4    N10   A    
C92   N2    A    
C15   C39   A    
C70   H10   S    
C16   C40   A    
C13   C127  S    
C131  C132  S    
C109  H47   S    
C152  H154  S    
C56   C62   A    
C153  H159  S    
C79   C85   A    
C144  H128  S    
C100  H25   S    
Cr3   O9    S    
C12   N18   A    
C61   H1    S    
C14   C130  S    
Cr1   O7    S    
Cr3   O3    S    
C143  C144  S    
C58   C88   A    
C4    O6    A    
O45   C151  S    
C64   H4    S    
C60   C90   A    
C29   C35   A    
C62   C68   A    
C85   C97   S    
C97   H19   S    
O43   C149  S    
C9    N9    A    
C116  H60   S    
O40   C146  S    
C142  C143  S    
C110  H45   S    
C141  H119  S    
C12   N12   A    
C118  H65   S    
C104  C105  S    
O46   C152  S    
C16   C136  S    
C25   C31   A    
C3    O9    A    
N1    N7    A    
Cr3   O21   S    
C1    O7    A    
C146  H136  S    
C25   C43   A    
C142  H131  S    
O44   C150  S    
C2    C57   S    
C26   C44   A    
C99   H14   S    
C41   C95   S    
C27   C33   A    
C131  H102  S    
C28   C46   A    
C17   C23   A    
C29   C47   A    
C18   C24   A    
C30   C48   A    
C18   C42   A    
C96   N24   A    
C122  H76   S    
C68   C74   A    
C117  H61   S    
C118  H64   S    
C30   O44   S    
C61   C67   A    
C143  H130  S    
C11   C77   S    
C149  H145  S    
C3    C55   S    
C50   O13   A    
C8    N14   A    
C63   C69   A    
C91   N1    A    
C102  H21   S    
C121  H74   S    
C152  H156  S    
C44   C52   S    
C81   O35   S    
C132  H99   S    
C49   O19   A    
C139  H125  S    
C139  C140  S    
C84   C90   A    
C7    N7    A    
C83   O37   S    
O42   C148  S    
C20   C44   A    
C151  H152  S    
C57   C63   A    
C21   C45   A    
C58   C64   A    
C83   C89   A    
C66   C72   A    
C95   N23   A    
C23   C47   A    
C24   C48   A    
O38   C126  S    
C76   C82   A    
C141  H120  S    
C120  H72   S    
C114  H48   S    
C62   H2    S    
C57   C87   A    
C64   C70   A    
N14   N20   A    
C136  H118  S    
C32   O46   S    
C145  H134  S    
C150  H150  S    
C147  H140  S    
C73   C79   A    
C149  H147  S    
C27   O41   S    
C123  H80   S    
Cr3   O25   S    
C102  H20   S    
C140  H123  S    
Cr6   O18   S    
C71   C77   A    
C156  H168  S    
C145  H135  S    
C130  H103  S    
Cr4   O16   S    
C154  H161  S    
C119  H67   S    
C5    C60   S    
C35   O49   S    
C92   N20   A    
C40   C94   S    
O50   C156  S    
C93   N21   A    
C123  H81   S    
C122  H78   S    
C126  H89   S    
C134  H108  S    
C117  H63   S    
C128  H95   S    
C118  H66   S    
C24   O32   S    
C19   O27   S    
C130  C131  S    
C59   C65   A    
C94   N4    A    
C8    N8    A    
C5    O4    A    
C82   C88   A    
C55   C61   A    
O30   C118  S    
C108  H34   S    
C35   C41   A    
C28   C34   A    
C125  H85   S    
Cr6   O26   S    
C115  H55   S    
C111  H42   S    
C7    N13   A    
C107  H37   S    
Cr1   O1    S    
C119  H69   S    
C124  H84   S    
C52   O22   A    
C149  H146  S    
C28   O42   S    
O37   C125  S    
C103  H33   S    
C112  H54   S    
Cr2   O25   S    
C120  H70   S    
C87   C103  S    
C114  H50   S    
C98   H17   S    
C148  H143  S    
N2    N8    A    
C42   C96   S    
C2    O1    A    
C11   N11   A    
N6    N12   A    
N18   N24   A    
C150  H148  S    
C72   H12   S    
C133  H110  S    
C86   C100  S    
C104  H30   S    
C138  H113  S    
C113  H51   S    
C39   C93   S    
C105  H29   S    
C43   C53   S    
Cr2   O20   S    
Cr1   O25   S    
C127  H97   S    
O29   C117  S    
C67   C73   A    
C27   C45   A    
C36   O50   S    
C60   C66   A    
C136  C137  S    
C74   C80   A    
C88   C106  S    
C90   C112  S    
C144  H127  S    
C19   C43   A    
C156  H166  S    
C22   O30   S    
C101  H23   S    
C146  H138  S    
C20   O28   S    
C13   C19   A    
C111  H41   S    
C14   C20   A    
C155  H163  S    
C54   O17   A    
C26   C32   A    
O34   C122  S    
C106  H40   S    
O32   C120  S    
C50   O20   A    
C135  H105  S    
C11   N17   A    
C23   O31   S    
C108  H36   S    
C30   C36   A    
C10   N16   A    
C17   C139  S    
C127  C128  S    
N17   N23   A    
C129  H91   S    
C125  H87   S    
Cr6   O24   S    
C31   O45   S    
Cr1   O13   S    
C129  H93   S    
C116  H59   S    
C81   C87   A    
Cr6   O12   S    
N5    N11   A    
C29   O43   S    
C22   C46   A    
C137  H115  S    
C2    O8    A    
C34   O48   S    
C99   H13   S    
O47   C153  S    
C16   C22   A    
Cr5   O26   S    
N13   N19   A    
C66   H6    S    
O49   C155  S    
C146  H137  S    
O48   C154  S    
C135  H107  S    
C153  H157  S    
C105  H27   S    
C6    O5    A    
C103  C104  S    
C21   O29   S    
Cr3   O15   S    
C117  H62   S    
C69   C75   A    
O28   C116  S    
C1    O3    A    
C6    O12   A    
C133  C134  S    
C152  H155  S    
O36   C124  S    
C53   O16   A    
C100  H26   S    
C55   C85   A    
C97   C98   S    
C69   H9    S    
C132  H98   S    
C139  H124  S    
C155  H165  S    
C154  H160  S    
C47   C49   S    
C109  C110  S    
C33   C39   A    
C34   C40   A    
C59   C89   A    
C128  C129  S    
C120  H71   S    
C77   C83   A    
C97   H18   S    
C84   O38   S    
C51   O21   A    
C136  H117  S    
C10   C76   S    
C110  H44   S    
C67   H7    S    
C48   C51   S    
C100  C101  S    
C150  H149  S    
C12   C78   S    
C72   C78   A    
C109  H46   S    
C80   O34   S    
C32   C38   A    
O35   C123  S    
C13   C37   A    
C98   H16   S    
N15   N21   A    
C142  H132  S    
C156  H167  S    
C99   H15   S    
C17   C41   A    
C15   C133  S    
C131  H101  S    
C119  H68   S    
C37   C91   S    
C113  C114  S    
Cr4   O26   S    
C122  H77   S    
C75   C81   A    
C68   H8    S    
Cr2   O8    S    
C126  H88   S    
C65   C71   A    
C134  H109  S    
Cr2   O2    S    
C135  H106  S    
Cr1   O19   S    
C26   O40   S    
C143  H129  S    
Cr4   O22   S    
C94   N22   A    
C91   N19   A    
C106  C107  S    
C102  H22   S    
C121  H73   S    
O27   C115  S    
C54   O24   A    
C101  C102  S    
C125  H86   S    
C45   C54   S    
C115  H56   S    
C70   C76   A    
C98   C99   S    
C132  H100  S    
C107  H38   S    
O33   C121  S    
C140  H122  S    
C151  H151  S    
C124  H83   S    
C96   N6    A    
N16   N22   A    
C103  H32   S    
C18   C142  S    
C112  H53   S    
C51   O14   A    
C141  H121  S    
C9    N15   A    
C52   O18   A    
C115  H57   S    
C148  H142  S    
C46   C50   S    
C82   O36   S    
Cr6   O6    S    
Cr5   O23   S    
N3    N9    A    
Cr4   O4    S    
Cr5   O5    S    
C53   O23   A    
C145  H133  S    
Cr4   O10   S    
C4    C59   S    
Cr5   O11   S    
C147  H139  S    
C65   H5    S    
C104  H31   S    
C138  H112  S    
C113  H52   S    
C105  H28   S    
C123  H79   S    
C78   C84   A    
C15   C21   A    
C127  H96   S    
C116  H58   S    
C79   O33   S    
C3    O2    A    
C9    C75   S    
O39   C145  S    
C130  H104  S    
