data_mof_unit_58411.cif
_audit_creation_date              2013-03-05T15:56:44-0500
_audit_creation_method            fapswitch 2.2
_symmetry_space_group_name_H-M    P1
_symmetry_Int_Tables_number       1
_space_group_crystal_system       triclinic
_cell_length_a                    20.989319
_cell_length_b                    21.700925
_cell_length_c                    13.878871
_cell_angle_alpha                 89.933853
_cell_angle_beta                  89.84255
_cell_angle_gamma                 89.76273
_cell_volume                      6321.57195731

loop_
_atom_site_label
_atom_site_type_symbol
_atom_site_description
_atom_site_fract_x
_atom_site_fract_y
_atom_site_fract_z
_atom_type_partial_charge
O1    O     O_R   0.064880 0.435140 0.582280 -0.594655
O2    O     O_R   0.935120 0.564860 0.417720 -0.538403
O3    O     O_R   0.935120 0.564860 0.582280 -0.592790
O4    O     O_R   0.064880 0.435140 0.417720 -0.538569
O5    O     O_R   0.935120 0.435140 0.417720 -0.576706
O6    O     O_R   0.064880 0.564860 0.582280 -0.620788
O7    O     O_R   0.064880 0.564860 0.417720 -0.576530
O8    O     O_R   0.935120 0.435140 0.582280 -0.621090
O9    O     O_R   0.564880 0.935140 0.582280 -0.541739
O10   O     O_R   0.435120 0.064860 0.417720 -0.589676
O11   O     O_R   0.435120 0.064860 0.582280 -0.549792
O12   O     O_R   0.564880 0.935140 0.417720 -0.589587
O13   O     O_R   0.435120 0.935140 0.417720 -0.608748
O14   O     O_R   0.564880 0.064860 0.582280 -0.601769
O15   O     O_R   0.564880 0.064860 0.417720 -0.610684
O16   O     O_R   0.435120 0.935140 0.582280 -0.617073
C1    C     C_R   0.084808 0.414023 0.499720 0.841832
C2    C     C_R   0.915049 0.585875 0.499841 0.843288
C3    C     C_R   0.915803 0.413213 0.499858 0.822577
C4    C     C_R   0.084487 0.586483 0.499563 0.823566
C5    C     C_R   0.585329 0.914373 0.500161 0.845559
C6    C     C_R   0.414535 0.085572 0.500317 0.832610
C7    C     C_R   0.415338 0.913505 0.500609 0.796865
C8    C     C_R   0.583622 0.087357 0.500214 0.789856
Cu1   Cu    Cu3+1 0.000000 0.500000 0.597420 0.946665
Cu2   Cu    Cu3+1 1.000000 0.500000 0.402580 0.993252
Cu3   Cu    Cu3+1 0.500000 1.000000 0.597420 0.961007
Cu4   Cu    Cu3+1 0.500000 0.000000 0.402580 0.944595
C9    C     C_R   0.138532 0.675082 0.417494 0.110397
C10   C     C_R   0.863307 0.323360 0.419213 0.110645
C11   C     C_R   0.876102 0.687237 0.440592 0.140529
C12   C     C_R   0.124398 0.313235 0.438839 0.141684
C13   C     C_R   0.634194 0.180171 0.579280 0.121497
C14   C     C_R   0.360309 0.824458 0.583311 0.105541
C15   C     C_R   0.372396 0.185011 0.563492 0.148892
C16   C     C_R   0.625498 0.813611 0.560310 0.146016
C17   C     C_R   0.131739 0.635936 0.498111 -0.078071
C18   C     C_R   0.869487 0.362818 0.499372 -0.077674
C19   C     C_R   0.867712 0.634978 0.498969 -0.061087
C20   C     C_R   0.132033 0.364876 0.498583 -0.062834
C21   C     C_R   0.629673 0.138196 0.501077 -0.110835
C22   C     C_R   0.367948 0.863872 0.502459 -0.118406
C23   C     C_R   0.366209 0.134077 0.501851 -0.069914
C24   C     C_R   0.633245 0.865610 0.501180 -0.065405
C25   C     C_R   0.170939 0.642994 0.578302 -0.282851
C26   C     C_R   0.830903 0.354807 0.580437 -0.283535
C27   C     C_R   0.813559 0.628455 0.556123 -0.234035
C28   C     C_R   0.185323 0.370713 0.557171 -0.236364
C29   C     C_R   0.671446 0.143132 0.422847 -0.267224
C30   C     C_R   0.329451 0.856156 0.421361 -0.262704
C31   C     C_R   0.312987 0.128178 0.442812 -0.233795
C32   C     C_R   0.687423 0.872228 0.443926 -0.230283
C33   C     C_R   0.218543 0.687542 0.579762 0.109922
C34   C     C_R   0.783683 0.309824 0.582429 0.109944
C35   C     C_R   0.766762 0.674243 0.558047 0.123374
C36   C     C_R   0.231756 0.324695 0.559771 0.122868
C37   C     C_R   0.719158 0.187724 0.420849 0.105464
C38   C     C_R   0.282465 0.810831 0.418810 0.106540
C39   C     C_R   0.265718 0.173656 0.441335 0.122222
C40   C     C_R   0.734598 0.826669 0.442481 0.122898
C41   C     C_R   0.226535 0.726486 0.498799 -0.002973
C42   C     C_R   0.775593 0.271253 0.501292 -0.001511
C43   C     C_R   0.774375 0.727308 0.499891 -0.005946
C44   C     C_R   0.225006 0.272305 0.500145 -0.005930
C45   C     C_R   0.726940 0.226708 0.501404 -0.014671
C46   C     C_R   0.274240 0.771897 0.499583 -0.023556
C47   C     C_R   0.272066 0.225845 0.501447 -0.008410
C48   C     C_R   0.727160 0.773672 0.500816 -0.007958
C49   C     C_R   0.186603 0.720325 0.417373 0.042037
C50   C     C_R   0.815882 0.277426 0.419880 0.040653
C51   C     C_R   0.829090 0.733941 0.440704 0.050019
C52   C     C_R   0.171337 0.266474 0.439096 0.049435
C53   C     C_R   0.685666 0.221704 0.581748 0.068347
C54   C     C_R   0.313505 0.778477 0.581461 0.092345
C55   C     C_R   0.325387 0.231546 0.563076 0.053689
C56   C     C_R   0.672579 0.767062 0.560212 0.053384
C57   C     C_R   0.258275 0.693691 0.660825 0.143219
C58   C     C_R   0.744296 0.302986 0.664071 0.154942
C59   C     C_R   0.712504 0.667845 0.616854 0.168027
C60   C     C_R   0.284772 0.330189 0.620813 0.167506
C61   C     C_R   0.759897 0.193210 0.340384 0.170685
C62   C     C_R   0.243157 0.804259 0.337312 0.170407
C63   C     C_R   0.212311 0.167935 0.380961 0.167474
C64   C     C_R   0.789028 0.833159 0.383976 0.167999
C65   C     C_R   0.807666 0.237919 0.340682 -0.255375
C66   C     C_R   0.195536 0.759409 0.337626 -0.254726
C67   C     C_R   0.165741 0.214096 0.380292 -0.263277
C68   C     C_R   0.835613 0.787021 0.383467 -0.262950
C69   C     C_R   0.305107 0.739156 0.660953 -0.223182
C70   C     C_R   0.696084 0.258874 0.663089 -0.241953
C71   C     C_R   0.666133 0.714084 0.617697 -0.262864
C72   C     C_R   0.330799 0.283715 0.622383 -0.263860
H1    H     H_    0.164564 0.612801 0.639623 0.176387
H2    H     H_    0.837101 0.384929 0.641735 0.176315
H3    H     H_    0.807615 0.586587 0.597477 0.202769
H4    H     H_    0.190886 0.412228 0.599238 0.204750
H5    H     H_    0.666987 0.111247 0.363404 0.175047
H6    H     H_    0.335608 0.886650 0.360347 0.174724
H7    H     H_    0.308001 0.086996 0.399836 0.207624
H8    H     H_    0.693131 0.913984 0.402245 0.205138
H9    H     H_    0.837872 0.241650 0.277730 0.139293
H10   H     H_    0.165931 0.755310 0.274349 0.139114
H11   H     H_    0.125371 0.208250 0.332908 0.142970
H12   H     H_    0.876778 0.793481 0.337519 0.142918
H13   H     H_    0.335043 0.743399 0.723984 0.176684
H14   H     H_    0.666852 0.253920 0.726959 0.164814
H15   H     H_    0.625119 0.707675 0.663959 0.144860
H16   H     H_    0.370789 0.289401 0.670526 0.143848
C73   C     C_R   0.056483 0.493901 0.794408 0.126110
C74   C     C_R   0.943272 0.503219 0.206401 0.122763
C75   C     C_R   0.943503 0.506176 0.794761 0.125463
C76   C     C_R   0.056714 0.496849 0.205958 0.121964
C77   C     C_R   0.556657 0.995533 0.793617 0.122931
C78   C     C_R   0.443551 0.006235 0.205607 0.119350
C79   C     C_R   0.443379 0.004910 0.794166 0.103680
C80   C     C_R   0.556467 0.993447 0.205268 0.118066
N1    N     N_R   0.000000 0.500000 0.743810 -0.255313
N2    N     N_R   1.000000 0.500000 0.256190 -0.244491
N3    N     N_R   0.500000 0.000000 0.743810 -0.251438
N4    N     N_R   0.500000 0.000000 0.256190 -0.255510
C81   C     C_R   0.942413 0.503587 0.897615 -0.009256
C82   C     C_R   0.057692 0.497662 0.103326 -0.028654
C83   C     C_R   0.057550 0.496725 0.897210 -0.008711
C84   C     C_R   0.942280 0.502576 0.103773 -0.029178
C85   C     C_R   0.442391 0.003168 0.896781 -0.017032
C86   C     C_R   0.557573 0.995742 0.102414 -0.010353
C87   C     C_R   0.557681 0.996342 0.896255 -0.024003
C88   C     C_R   0.442494 0.003447 0.102836 -0.010021
C89   C     C_R   0.999979 0.500158 0.948839 0.055317
C90   C     C_R   0.999983 0.500137 0.052088 0.071808
C91   C     C_R   0.500038 0.999597 0.947965 0.068170
C92   C     C_R   0.500039 0.999566 0.051205 0.055337
C93   C     C_R   0.884967 0.503622 0.950811 -0.147859
C94   C     C_R   0.115058 0.497106 0.050433 -0.185121
C95   C     C_R   0.114998 0.496890 0.949949 -0.146750
C96   C     C_R   0.884910 0.503326 0.051318 -0.184679
C97   C     C_R   0.385021 0.003799 0.949693 -0.176361
C98   C     C_R   0.615008 0.995079 0.049195 -0.154245
C99   C     C_R   0.615048 0.995079 0.948702 -0.178366
C100  C     C_R   0.385059 0.003664 0.050130 -0.155074
H17   H     H_    0.839075 0.502924 0.915663 0.173207
H18   H     H_    0.160862 0.497289 0.085990 0.163299
H19   H     H_    0.160897 0.497799 0.914454 0.173846
H20   H     H_    0.839102 0.503245 0.087243 0.163233
H21   H     H_    0.339196 0.003691 0.914226 0.168150
H22   H     H_    0.660922 0.995485 0.084282 0.176858
H23   H     H_    0.660862 0.994675 0.912807 0.167128
H24   H     H_    0.339148 0.002854 0.085592 0.176910
N5    N     N_3   0.095433 0.669343 0.337726 -0.563227
H25   H     H_    0.071556 0.711225 0.327746 0.219164
H26   H     H_    0.121474 0.658448 0.275681 0.204698
N6    N     N_3   0.906105 0.329767 0.338835 -0.563025
H27   H     H_    0.930775 0.288313 0.328868 0.218652
H28   H     H_    0.879697 0.340016 0.277052 0.205300
N7    N     N_3   0.933143 0.692471 0.383761 -0.563223
H29   H     H_    0.957449 0.732237 0.404500 0.203721
H30   H     H_    0.920595 0.695927 0.311111 0.243210
N8    N     N_3   0.068173 0.308625 0.380538 -0.561243
H31   H     H_    0.043651 0.268596 0.399723 0.202832
H32   H     H_    0.081744 0.306003 0.308126 0.244304
N9    N     N_3   0.586452 0.183098 0.654401 -0.585328
H33   H     H_    0.572222 0.229122 0.661422 0.196224
H34   H     H_    0.544375 0.162674 0.632226 0.259536
N10   N     N_3   0.399957 0.829336 0.667189 -0.612467
H35   H     H_    0.447746 0.828572 0.646503 0.258833
H36   H     H_    0.389120 0.870031 0.703893 0.229608
N11   N     N_3   0.427289 0.189308 0.624337 -0.594149
H37   H     H_    0.412327 0.190911 0.696207 0.254047
H38   H     H_    0.451793 0.229756 0.607359 0.192357
N12   N     N_3   0.568967 0.808384 0.618080 -0.593110
H39   H     H_    0.582032 0.805403 0.690573 0.247193
H40   H     H_    0.544744 0.768385 0.598197 0.201891
N13   N     N_3   0.250844 0.653832 0.743031 -0.601063
H41   H     H_    0.267884 0.610268 0.723373 0.213152
H42   H     H_    0.279128 0.668659 0.800341 0.218321
N14   N     N_3   0.753034 0.341212 0.747659 -0.600375
H43   H     H_    0.736010 0.385223 0.730522 0.210556
H44   H     H_    0.725393 0.325431 0.805359 0.218724
N15   N     N_3   0.704312 0.614400 0.676409 -0.577811
H45   H     H_    0.661503 0.593303 0.657173 0.211543
H46   H     H_    0.700208 0.628962 0.747954 0.243053
N16   N     N_3   0.291985 0.382895 0.682013 -0.574307
H47   H     H_    0.335306 0.403974 0.665061 0.210563
H48   H     H_    0.294468 0.367492 0.753326 0.244396
N17   N     N_3   0.752371 0.153595 0.258117 -0.602836
H49   H     H_    0.710988 0.167551 0.222281 0.212424
H50   H     H_    0.790013 0.159289 0.209447 0.220289
N18   N     N_3   0.251487 0.843401 0.254472 -0.603761
H51   H     H_    0.293575 0.829664 0.220058 0.212272
H52   H     H_    0.214704 0.836928 0.204892 0.219900
N19   N     N_3   0.205198 0.115284 0.319649 -0.569504
H53   H     H_    0.162170 0.093823 0.337124 0.216320
H54   H     H_    0.202120 0.130806 0.248455 0.243793
N20   N     N_3   0.797189 0.886598 0.324415 -0.571465
H55   H     H_    0.839881 0.907831 0.343877 0.216977
H56   H     H_    0.801531 0.872007 0.252915 0.242818
C101  C     C_2   0.116832 0.481261 0.743055 0.384615
H57   H     H_    0.133105 0.510242 0.685051 0.080019
O17   O     O_2   0.149377 0.436808 0.765756 -0.562806
C102  C     C_2   0.882417 0.507981 0.259304 0.412864
H58   H     H_    0.862703 0.468302 0.295788 0.069567
O18   O     O_2   0.852167 0.556160 0.258241 -0.550978
C103  C     C_2   0.883148 0.518364 0.743605 0.385515
H59   H     H_    0.866790 0.488705 0.686726 0.078929
O19   O     O_2   0.850682 0.563112 0.765228 -0.562042
C104  C     C_2   0.117533 0.491907 0.258428 0.412235
H60   H     H_    0.137107 0.531385 0.295289 0.070324
O20   O     O_2   0.147861 0.443781 0.256731 -0.551469
C105  C     C_2   0.617450 0.989818 0.740737 0.418728
H61   H     H_    0.636947 0.028668 0.701917 0.085953
O21   O     O_2   0.647725 0.941687 0.743853 -0.552973
C106  C     C_2   0.383228 0.018913 0.256970 0.387878
H62   H     H_    0.366852 0.989803 0.314770 0.084779
O22   O     O_2   0.350827 0.063507 0.234478 -0.560516
C107  C     C_2   0.382861 0.014463 0.742080 0.409879
H63   H     H_    0.364112 0.979647 0.694646 0.070958
O23   O     O_2   0.352510 0.062041 0.753511 -0.551157
C108  C     C_2   0.616763 0.981184 0.256491 0.389358
H64   H     H_    0.633139 0.010888 0.313285 0.084936
O24   O     O_2   0.649078 0.936277 0.235156 -0.560324

loop_
_geom_bond_atom_site_label_1
_geom_bond_atom_site_label_2
_geom_bond_distance
_ccdc_geom_bond_type
C76   C104  1.474857 S    
C68   H12   1.081943 S    
O1    Cu1   1.965444 S    
C103  H59   1.076947 S    
C8    C21   1.469856 S    
O5    Cu2   1.973160 S    
N7    H30   1.045360 S    
C73   C101  1.476601 S    
C14   C22   1.419307 A    
C28   C36   1.393006 A    
C107  H63   1.078939 S    
C25   H1    1.081817 S    
C100  H24   1.081050 S    
N9    H33   1.045842 S    
N17   H49   1.045665 S    
C73   N1    1.385366 A    
C12   C52   1.411438 A    
N13   H41   1.045623 S    
O10   C6    1.303719 A    
C103  O19   1.221259 D    
C99   H23   1.081772 S    
C35   C59   1.406524 A    
N9    H34   1.037402 S    
C7    C22   1.469298 S    
O12   Cu4   1.965897 S    
C54   C69   1.405135 A    
C63   N19   1.433945 S    
N10   H35   1.042647 S    
C39   C63   1.407353 A    
C53   C70   1.406356 A    
C14   N10   1.437119 S    
C107  O23   1.221239 D    
C104  O20   1.221058 D    
N17   H50   1.045691 S    
O6    Cu1   1.973157 S    
C75   C81   1.428662 A    
N12   H39   1.045413 S    
C78   C106  1.476336 S    
C46   C54   1.413315 A    
C29   C37   1.395669 A    
C42   C50   1.415998 A    
O3    C2    1.301698 A    
N18   H52   1.045622 S    
O14   C8    1.299317 A    
C101  O17   1.221250 D    
N16   H47   1.045650 S    
C82   C94   1.408499 A    
C16   C56   1.410204 A    
C39   C47   1.414396 A    
C77   N3    1.380155 A    
C33   C41   1.415273 A    
C41   C46   1.407868 A    
C72   H16   1.081818 S    
C64   N20   1.433937 S    
C102  H58   1.081586 S    
C35   C43   1.414828 A    
C93   C96   1.394926 A    
C15   N11   1.433789 S    
C11   C51   1.411598 A    
C36   C44   1.414791 A    
O13   Cu4   1.973160 S    
C60   N16   1.434208 S    
O14   Cu3   1.973157 S    
C15   C23   1.405148 A    
C81   C89   1.405258 A    
C59   C71   1.395058 A    
C61   C65   1.398130 A    
C74   C84   1.424653 A    
C24   C32   1.393295 A    
O16   Cu3   1.974303 S    
C44   C52   1.417576 A    
N20   H55   1.045590 S    
N15   H46   1.045615 S    
C27   C35   1.394506 A    
C25   C33   1.393356 A    
C80   C86   1.428433 A    
C83   C89   1.404900 A    
N8    H32   1.045379 S    
O8    Cu1   1.974303 S    
N5    H26   1.045450 S    
C74   N2    1.379799 A    
C87   C99   1.408880 A    
C88   C92   1.404986 A    
C61   N17   1.439453 S    
C10   C50   1.411633 A    
O13   C7    1.309199 A    
C38   C46   1.413632 A    
O11   Cu3   1.965897 S    
C9    C49   1.410735 A    
N13   H42   1.045647 S    
C31   H7    1.080624 S    
C97   C100  1.393954 A    
C30   H6    1.081901 S    
O8    C3    1.305667 A    
C77   C87   1.424842 A    
C84   C96   1.408850 A    
C74   C102  1.474868 S    
N19   H53   1.045637 S    
C30   C38   1.396273 A    
C44   C47   1.408646 A    
C71   H15   1.081854 S    
O3    Cu1   1.965897 S    
C70   H14   1.082203 S    
C38   C62   1.409583 A    
N11   H38   1.045519 S    
Cu4   N4    2.031728 S    
C45   C53   1.414513 A    
C75   C103  1.476676 S    
N11   H37   1.045498 S    
C104  H60   1.081457 S    
C73   C83   1.428406 A    
C34   C42   1.414899 A    
C85   C97   1.408736 A    
Cu1   Cu2   2.704158 S    
C62   C66   1.398010 A    
C9    N5    1.437454 S    
O12   C5    1.302467 A    
C32   H8    1.081393 S    
C58   C70   1.395958 A    
C51   C68   1.405434 A    
C62   N18   1.439373 S    
N18   H51   1.045582 S    
C1    C20   1.453100 S    
C64   C68   1.396590 A    
C60   C72   1.393890 A    
C13   N9    1.445368 S    
C2    C19   1.453967 S    
N19   H54   1.045648 S    
C76   C82   1.424594 A    
C3    C18   1.466288 S    
C94   H18   1.081871 S    
C5    C24   1.456941 S    
C78   C88   1.427945 A    
C85   C91   1.406585 A    
C10   N6    1.437332 S    
C6    C23   1.458907 S    
C26   H2    1.081918 S    
C86   C92   1.404998 A    
C57   C69   1.395607 A    
C26   C34   1.394203 A    
C105  H61   1.081262 S    
C79   C107  1.476996 S    
O2    Cu2   1.965444 S    
O15   C8    1.307412 A    
N6    H27   1.045266 S    
O7    Cu2   1.974300 S    
C55   C72   1.405631 A    
C22   C30   1.397985 A    
C67   H11   1.081980 S    
O4    C1    1.296136 A    
C13   C53   1.410341 A    
N14   H43   1.045735 S    
C43   C51   1.417860 A    
O16   C7    1.297333 A    
C79   N3    1.380850 A    
C12   C20   1.404786 A    
N8    H31   1.045386 S    
C9    C17   1.411303 A    
C59   N15   1.434082 S    
C11   N7    1.436723 S    
C15   C55   1.408957 A    
C31   C39   1.396671 A    
C17   C25   1.394841 A    
C91   C92   1.432864 A    
C66   H10   1.081168 S    
N20   H56   1.045609 S    
Cu3   Cu4   2.704158 S    
C52   C67   1.405575 A    
C65   H9    1.081245 S    
O9    Cu3   1.965444 S    
C19   C27   1.391880 A    
C89   C90   1.432977 A    
N6    H28   1.045507 S    
O10   Cu4   1.965444 S    
C20   C28   1.390947 A    
C43   C48   1.409360 A    
C86   C98   1.412112 A    
C57   N13   1.439476 S    
C28   H4    1.081036 S    
C42   C45   1.409067 A    
C16   N12   1.435028 S    
Cu2   N2    2.031728 S    
C106  O22   1.221253 D    
O2    C2    1.296703 A    
Cu1   N1    2.031728 S    
C63   C67   1.396767 A    
O4    Cu2   1.965897 S    
C97   H21   1.081681 S    
C94   C95   1.394629 A    
O5    C3    1.299288 A    
Cu3   N3    2.031728 S    
C48   C56   1.417202 A    
C21   C29   1.397987 A    
O6    C4    1.305852 A    
O11   C6    1.297165 A    
O1    C1    1.301881 A    
C36   C60   1.405955 A    
C98   H22   1.081014 S    
C108  O24   1.221264 D    
C75   N1    1.385102 A    
C41   C49   1.415612 A    
C69   H13   1.082712 S    
C87   C91   1.406596 A    
N10   H36   1.043968 S    
C77   C105  1.475122 S    
C88   C100  1.411801 A    
C13   C21   1.421380 A    
C96   H20   1.081860 S    
N5    H25   1.045325 S    
C84   C90   1.406770 A    
C76   N2    1.379346 A    
C4    C17   1.464381 S    
C40   C64   1.407240 A    
O9    C5    1.297375 A    
C108  H64   1.076798 S    
N12   H40   1.045501 S    
C23   C31   1.393617 A    
C79   C85   1.424733 A    
C95   H19   1.081059 S    
C105  O21   1.221133 D    
C34   C58   1.408854 A    
C11   C19   1.404388 A    
C37   C61   1.409882 A    
C58   N14   1.439529 S    
C101  H57   1.076739 S    
N16   H48   1.045668 S    
C18   C26   1.395569 A    
C16   C24   1.404248 A    
C98   C99   1.394731 A    
C56   C71   1.405404 A    
C29   H5    1.081874 S    
N15   H45   1.045592 S    
O15   Cu4   1.974300 S    
C12   N8    1.436588 S    
C80   N4    1.385144 A    
C47   C55   1.416375 A    
C106  H62   1.076967 S    
C40   C48   1.414627 A    
C32   C40   1.396493 A    
O7    C4    1.298156 A    
C83   C95   1.412311 A    
N7    H29   1.045383 S    
C27   H3    1.081595 S    
C14   C54   1.403449 A    
C93   H17   1.081082 S    
C10   C18   1.411259 A    
C81   C93   1.412115 A    
C33   C57   1.409064 A    
C50   C65   1.406208 A    
C80   C108  1.476352 S    
C82   C90   1.407093 A    
C102  O18   1.221068 D    
C78   N4    1.384920 A    
C49   C66   1.406257 A    
N14   H44   1.045759 S    
C37   C45   1.413031 A    
