data_mof_unit_18416.cif
_audit_creation_date              2012-12-10T17:02:28-0500
_audit_creation_method            fapswitch 2.2
_symmetry_space_group_name_H-M    P1
_symmetry_Int_Tables_number       1
_space_group_crystal_system       triclinic
_cell_length_a                    10.809084
_cell_length_b                    11.01396
_cell_length_c                    9.916637
_cell_angle_alpha                 112.30426
_cell_angle_beta                  99.64809
_cell_angle_gamma                 92.395722
_cell_volume                      1069.59018361

loop_
_atom_site_label
_atom_site_type_symbol
_atom_type_description
_atom_site_fract_x
_atom_site_fract_y
_atom_site_fract_z
_atom_type_partial_charge
C1    C     C_R   0.489845 0.252889 0.437915 0.762118
C2    C     C_R   0.511352 0.747217 0.562142 0.871532
C3    C     C_2   0.477222 0.109892 0.396663 -0.162661
C4    C     C_2   0.527966 0.890475 0.603269 -0.182600
C5    C     C_2   0.532799 0.061040 0.494827 0.245084
C6    C     C_2   0.472106 0.940421 0.506322 0.178427
C7    C     C_2   0.513799 0.509680 0.081839 0.030963
C8    C     C_2   0.489896 0.486208 0.917156 0.025268
C9    C     C_R   0.263041 0.513220 0.501540 0.784253
C10   C     C_R   0.736776 0.486202 0.498324 0.810482
C11   C     C_R   0.164832 0.653350 0.771632 -0.132285
C12   C     C_R   0.834527 0.343857 0.228524 -0.137106
C13   C     C_R   0.130022 0.675175 0.907126 -0.139009
C14   C     C_R   0.869283 0.321097 0.092825 -0.130703
C15   C     C_R   0.016565 0.613033 0.909461 -0.172871
C16   C     C_R   0.982759 0.382861 0.089986 -0.182841
C17   C     C_R   0.933590 0.537834 0.776345 -0.120260
C18   C     C_R   0.065805 0.458639 0.222863 -0.138545
C19   C     C_R   0.961763 0.525625 0.637162 0.096590
C20   C     C_R   0.037786 0.471751 0.362409 0.096846
C21   C     C_R   0.085587 0.569036 0.635652 0.056988
C22   C     C_R   0.913940 0.428540 0.364141 0.058992
C23   C     C_R   0.872109 0.470528 0.500345 -0.231191
C24   C     C_R   0.127446 0.527602 0.499351 -0.226715
Cu1   Cu    Cu3+1 0.521920 0.521810 0.644910 0.979233
Cu2   Cu    Cu3+1 0.478080 0.478190 0.355090 0.950401
H1    H     H_    0.007075 0.371306 0.984577 0.142929
H2    H     H_    0.992143 0.623984 0.014651 0.143529
H3    H     H_    0.253569 0.704227 0.774174 0.164943
H4    H     H_    0.745589 0.293647 0.226506 0.162384
H5    H     H_    0.192731 0.737324 0.010329 0.162649
H6    H     H_    0.806443 0.258670 0.989846 0.150226
H7    H     H_    0.850901 0.485219 0.785214 0.155793
H8    H     H_    0.148276 0.511059 0.213334 0.160979
H9    H     H_    0.624393 0.627772 0.934816 0.223647
H10   H     H_    0.369944 0.378749 0.066953 0.204967
N1    N     N_2   0.445130 0.445420 0.137360 -0.320767
N2    N     N_2   0.554870 0.554580 0.862640 -0.312169
O1    O     O_R   0.511700 0.332340 0.577400 -0.541760
O2    O     O_R   0.488300 0.667660 0.422600 -0.546591
O3    O     O_R   0.474680 0.295500 0.332650 -0.586176
O4    O     O_R   0.525320 0.704500 0.667350 -0.536775
O5    O     O_R   0.338170 0.518410 0.622370 -0.602612
O6    O     O_R   0.661830 0.481590 0.377630 -0.599752
O7    O     O_R   0.301150 0.481570 0.377630 -0.587092
O8    O     O_R   0.698850 0.518430 0.622370 -0.575705
C25   C     C_3   0.338837 0.878955 0.420516 -0.785631
H11   H     H_    0.278457 0.956436 0.414253 0.210070
H12   H     H_    0.340695 0.805980 0.307441 0.276725
H13   H     H_    0.291340 0.826877 0.477862 0.190506
C26   C     C_3   0.664571 0.125425 0.583551 -0.831655
H14   H     H_    0.727347 0.049086 0.587236 0.239719
H15   H     H_    0.710902 0.182337 0.530267 0.212475
H16   H     H_    0.660305 0.194860 0.697555 0.231126
C27   C     C_2   0.598225 0.976619 0.755093 0.330576
H17   H     H_    0.575832 0.076598 0.808799 0.122497
O9    O     O_2   0.680208 0.935937 0.822237 -0.513466
C28   C     C_2   0.409027 0.025314 0.243539 0.340525
H18   H     H_    0.332707 0.061522 0.188603 0.076364
O10   O     O_2   0.442728 0.918669 0.174483 -0.495117
C29   C     C_2   0.390488 0.379353 0.817046 0.434575
H19   H     H_    0.299808 0.401992 0.773342 0.086112
O11   O     O_2   0.407224 0.264200 0.789840 -0.599706
C30   C     C_2   0.620205 0.608558 0.180003 0.469577
H20   H     H_    0.712101 0.577851 0.205469 0.058894
O12   O     O_2   0.607846 0.726065 0.224776 -0.507201

loop_
_geom_bond_atom_site_label_1
_geom_bond_atom_site_label_2
_ccdc_geom_bond_type
Cu1   O4    S    
C10   O8    A    
C19   C23   A    
C27   H17   S    
Cu2   N1    S    
C9    O7    A    
C17   C19   A    
C2    O2    A    
C10   C23   S    
C11   C13   A    
C11   C21   A    
C2    C4    S    
C25   H11   S    
C20   C22   A    
C8    C29   S    
C3    C5    D    
C26   H16   S    
C30   H20   S    
Cu1   O5    S    
C16   H1    S    
C27   O9    D    
C7    N1    D    
Cu2   O6    S    
C7    C8    S    
C25   H12   S    
Cu1   Cu2   S    
Cu1   O1    S    
C18   H8    S    
Cu2   O2    S    
C15   H2    S    
C29   H19   S    
C17   H7    S    
C8    N2    D    
C2    O4    A    
C9    C24   S    
C1    O3    A    
H10   N1    S    
C19   C21   A    
C12   C14   A    
C25   H13   S    
C18   C20   A    
C13   C15   A    
C4    C27   S    
C5    C6    S    
Cu1   N2    S    
C14   C16   A    
C7    C30   S    
C9    O5    A    
C4    C6    D    
C6    C25   S    
C1    O1    A    
C10   O6    A    
C26   H14   S    
C3    C28   S    
C12   C22   A    
H9    N2    S    
C11   H3    S    
C16   C18   A    
C21   C24   A    
C1    C3    S    
C15   C17   A    
C22   C23   A    
C5    C26   S    
Cu2   O7    S    
C12   H4    S    
C28   H18   S    
C28   O10   D    
Cu1   O8    S    
C13   H5    S    
C29   O11   D    
C20   C24   A    
Cu2   O3    S    
C14   H6    S    
C26   H15   S    
C30   O12   D    
