data_mof_unit_21648.cif
_audit_creation_date              2012-12-10T17:08:45-0500
_audit_creation_method            fapswitch 2.2
_symmetry_space_group_name_H-M    P1
_symmetry_Int_Tables_number       1
_space_group_crystal_system       triclinic
_cell_length_a                    15.715535
_cell_length_b                    10.819873
_cell_length_c                    10.094771
_cell_angle_alpha                 90.928538
_cell_angle_beta                  89.695201
_cell_angle_gamma                 91.221089
_cell_volume                      1715.87939183

loop_
_atom_site_label
_atom_site_type_symbol
_atom_type_description
_atom_site_fract_x
_atom_site_fract_y
_atom_site_fract_z
_atom_type_partial_charge
C1    C     C_R   0.501411 0.263199 0.498644 0.849522
C2    C     C_2   0.468602 0.865700 0.503444 0.259398
C3    C     C_2   0.461392 0.066422 0.405407 0.320025
C4    C     C_R   0.338563 0.498790 0.500250 0.881447
C5    C     C_2   0.509660 0.131513 0.492515 0.292669
C6    C     C_2   0.558626 0.555534 0.924803 0.623574
C7    C     C_2   0.550085 0.571368 0.073989 0.538505
C8    C     C_R   0.492944 0.736721 0.500957 0.812480
C9    C     C_R   0.661555 0.504367 0.499698 0.863111
C10   C     C_3   0.046906 0.456243 0.628176 0.606956
C11   C     C_3   0.048645 0.454865 0.368977 0.636433
C12   C     C_3   0.947365 0.478025 0.634819 0.646660
C13   C     C_3   0.947529 0.446453 0.376467 0.592639
C14   C     C_1   0.750264 0.520889 0.499204 -0.208580
C15   C     C_3   0.083490 0.522583 0.498947 -0.224119
C16   C     C_3   0.846702 0.357534 0.761589 0.246387
C17   C     C_3   0.800514 0.233212 0.764621 -0.890638
C18   C     C_3   0.630602 0.728231 0.852723 0.144631
C19   C     C_3   0.686660 0.768680 0.737661 -0.765667
C20   C     C_3   0.136127 0.283066 0.677838 0.148463
C21   C     C_3   0.176575 0.186651 0.587336 -0.866072
C22   C     C_3   0.906105 0.250471 0.282939 0.149319
C23   C     C_3   0.917965 0.532423 0.497375 -0.226048
C24   C     C_3   0.904107 0.114791 0.318384 -0.835232
C25   C     C_3   0.071922 0.842432 0.652972 0.155144
C26   C     C_3   0.147930 0.896556 0.728911 -0.869994
C27   C     C_3   0.181643 0.779703 0.414025 0.134710
C28   C     C_3   0.235694 0.754447 0.291320 -0.746741
C29   C     C_3   0.874094 0.849174 0.531597 0.198093
C30   C     C_3   0.860201 0.942814 0.642964 -0.966797
C31   C     C_3   0.955775 0.668601 0.480467 0.605529
C32   C     C_3   0.057915 0.666002 0.500999 0.666187
C33   C     C_1   0.825584 0.532117 0.498782 0.217640
C34   C     C_1   0.174918 0.512322 0.499621 0.261497
C35   C     C_1   0.249968 0.504097 0.500396 -0.214800
C36   C     C_2   0.474229 0.933432 0.392798 0.309845
H1    H     H_    0.797778 0.429567 0.751381 0.195360
H2    H     H_    0.429343 0.856610 0.688121 0.350560
H3    H     H_    0.370787 0.058870 0.275655 0.339674
H4    H     H_    0.602880 0.138918 0.619132 0.331115
H5    H     H_    0.657543 0.772687 0.943460 0.204769
H6    H     H_    0.565397 0.763876 0.836569 0.146211
H7    H     H_    0.659115 0.737383 0.641917 0.251328
H8    H     H_    0.691770 0.871133 0.737514 0.219105
H9    H     H_    0.750858 0.729040 0.747513 0.283804
H10   H     H_    0.386215 0.454248 0.840464 0.384931
H11   H     H_    0.603026 0.651992 0.226332 0.392260
H12   H     H_    0.880933 0.371207 0.857151 0.166161
H13   H     H_    0.119241 0.239239 0.773452 0.155410
H14   H     H_    0.185425 0.355791 0.698110 0.180787
H15   H     H_    0.202673 0.230833 0.496970 0.288513
H16   H     H_    0.229809 0.142706 0.639473 0.231993
H17   H     H_    0.128654 0.114660 0.557908 0.257125
H18   H     H_    0.446176 0.347838 0.163715 0.403798
H19   H     H_    0.064350 0.475439 0.177714 0.380726
H20   H     H_    0.057865 0.273082 0.399845 0.390554
H21   H     H_    0.958236 0.266251 0.209618 0.176703
H22   H     H_    0.844154 0.271194 0.236502 0.155415
H23   H     H_    0.846204 0.160514 0.789159 0.264410
H24   H     H_    0.850523 0.096124 0.387871 0.264516
H25   H     H_    0.895044 0.056821 0.227568 0.221680
H26   H     H_    0.964943 0.090319 0.365800 0.252941
H27   H     H_    0.850652 0.481784 0.258634 0.349491
H28   H     H_    0.017064 0.851648 0.721494 0.210859
H29   H     H_    0.059993 0.896838 0.562789 0.145029
H30   H     H_    0.204994 0.903796 0.664310 0.244116
H31   H     H_    0.132677 0.990020 0.767890 0.220121
H32   H     H_    0.162584 0.837178 0.814240 0.293238
H33   H     H_    0.214247 0.743326 0.501736 0.162419
H34   H     H_    0.750009 0.234712 0.841962 0.223706
H35   H     H_    0.178658 0.881628 0.426624 0.148285
H36   H     H_    0.208093 0.800376 0.204337 0.261606
H37   H     H_    0.301466 0.791120 0.307198 0.204217
H38   H     H_    0.238214 0.653632 0.270295 0.286714
H39   H     H_    0.811407 0.817757 0.491284 0.185794
H40   H     H_    0.911447 0.898221 0.454280 0.190787
H41   H     H_    0.917279 0.004386 0.653802 0.255565
H42   H     H_    0.804893 0.000085 0.618691 0.247461
H43   H     H_    0.848350 0.896465 0.738653 0.285095
H44   H     H_    0.770684 0.212762 0.666994 0.267858
H45   H     H_    0.062126 0.461729 0.820838 0.343472
H46   H     H_    0.968934 0.627228 0.753341 0.400054
H47   H     H_    0.975970 0.689513 0.284125 0.421474
H48   H     H_    0.501447 0.949514 0.205821 0.346688
N1    N     N_2   0.500900 0.501330 0.852150 0.012186
N2    N     N_2   0.500920 0.501360 0.147810 0.008496
O1    O     O_R   0.499990 0.319060 0.613040 -0.619214
O2    O     O_3   0.086284 0.506562 0.743658 -0.766223
O3    O     O_3   0.925221 0.561674 0.739773 -0.798562
O4    O     O_3   0.933017 0.709766 0.352005 -0.771206
O5    O     O_3   0.496983 0.882383 0.271414 -0.756987
O6    O     O_3   0.436280 0.919532 0.618595 -0.775742
O7    O     O_3   0.401446 0.123527 0.328640 -0.795172
O8    O     O_3   0.571286 0.074782 0.566746 -0.784605
O9    O     O_3   0.632338 0.597988 0.863144 -0.633508
O10   O     O_3   0.422197 0.500607 0.904740 -0.682314
O11   O     O_3   0.599914 0.664227 0.130454 -0.809779
O12   O     O_R   0.500010 0.319100 0.386900 -0.594264
O13   O     O_3   0.060229 0.325551 0.619222 -0.600047
O14   O     O_3   0.480259 0.390201 0.094836 -0.672144
O15   O     O_3   0.074028 0.526170 0.259394 -0.709860
O16   O     O_3   0.087427 0.338578 0.349917 -0.770781
O17   O     O_3   0.917255 0.322964 0.400236 -0.590262
O18   O     O_3   0.913590 0.489538 0.255744 -0.783865
O19   O     O_3   0.084742 0.715069 0.627665 -0.615468
O20   O     O_3   0.097994 0.731359 0.393369 -0.613103
O21   O     O_3   0.917841 0.746124 0.579908 -0.633872
O22   O     O_R   0.377130 0.499990 0.613120 -0.628031
O23   O     O_R   0.377160 0.500030 0.386980 -0.595041
O24   O     O_R   0.499990 0.680900 0.613100 -0.641891
O25   O     O_R   0.500010 0.680940 0.386960 -0.583562
O26   O     O_R   0.622840 0.499970 0.613020 -0.568248
O27   O     O_R   0.622870 0.500010 0.386880 -0.643079
O28   O     O_3   0.905217 0.360131 0.653993 -0.542397
Zn1   Zn    Zn3+2 0.499980 0.499970 0.650990 1.007358
Zn2   Zn    Zn3+2 0.500020 0.500030 0.349010 1.021117

loop_
_geom_bond_atom_site_label_1
_geom_bond_atom_site_label_2
_ccdc_geom_bond_type
C1    O1    A    
C4    O23   A    
C24   H25   S    
C28   H38   S    
C16   H12   S    
C14   C33   T    
C5    O8    S    
C25   O19   S    
C15   C32   S    
C29   H40   S    
C4    O22   A    
C12   C23   S    
C10   O2    S    
C20   H13   S    
C6    N1    D    
C1    C5    S    
C26   H31   S    
O22   Zn1   S    
C18   C19   S    
C10   C15   S    
C18   H6    S    
N1    O10   S    
C7    N2    D    
H2    O6    S    
C13   C23   S    
N2    Zn2   S    
C34   C35   T    
H3    O7    S    
C20   H14   S    
O23   Zn2   S    
C30   H41   S    
C11   C15   S    
C16   C17   S    
C23   C33   S    
O25   Zn2   S    
H48   O5    S    
C13   O17   S    
N2    O14   S    
C15   C34   S    
O1    Zn1   S    
C27   H33   S    
C16   H1    S    
O27   Zn2   S    
C9    O26   A    
C4    C35   S    
C17   H34   S    
C32   O20   S    
C18   O9    S    
H18   O14   S    
C28   H36   S    
C22   H21   S    
C28   H37   S    
C19   H7    S    
C12   O28   S    
C26   H30   S    
C12   O3    S    
N1    Zn1   S    
C25   H29   S    
C3    O7    S    
C8    O25   A    
C27   O20   S    
C25   C26   S    
C17   H44   S    
C22   O17   S    
C25   H28   S    
C23   C31   S    
C9    C14   S    
C29   C30   S    
C8    O24   A    
O12   Zn2   S    
C31   C32   S    
C24   H24   S    
C31   O4    S    
C11   O15   S    
C13   O18   S    
C2    O6    S    
H46   O3    S    
C10   C12   S    
C17   H23   S    
C30   H43   S    
C36   O5    S    
C32   O19   S    
C22   C24   S    
C18   H5    S    
C21   H15   S    
C27   H35   S    
C19   H8    S    
C2    C36   D    
H47   O4    S    
C24   H26   S    
C7    O11   S    
C31   O21   S    
C2    C8    S    
H4    O8    S    
H27   O18   S    
C3    C5    D    
C16   O28   S    
C1    O12   A    
C22   H22   S    
C19   H9    S    
C6    C7    S    
C29   H39   S    
H19   O15   S    
H11   O11   S    
C26   H32   S    
H20   O16   S    
C21   H17   S    
C11   C13   S    
C20   O13   S    
C3    C36   S    
C11   O16   S    
O26   Zn1   S    
C10   O13   S    
C9    O27   A    
H45   O2    S    
C30   H42   S    
H10   O10   S    
C20   C21   S    
C6    O9    S    
C27   C28   S    
C29   O21   S    
O24   Zn1   S    
C21   H16   S    
