data_mof_unit_21171.cif
_audit_creation_date              2012-12-11T14:50:41-0500
_audit_creation_method            fapswitch 2.2
_symmetry_space_group_name_H-M    P1
_symmetry_Int_Tables_number       1
_space_group_crystal_system       triclinic
_cell_length_a                    20.705389
_cell_length_b                    7.087647
_cell_length_c                    20.328044
_cell_angle_alpha                 90.000034
_cell_angle_beta                  101.650278
_cell_angle_gamma                 89.999909
_cell_volume                      2921.7325987

loop_
_atom_site_label
_atom_site_type_symbol
_atom_type_description
_atom_site_fract_x
_atom_site_fract_y
_atom_site_fract_z
_atom_type_partial_charge
O1    O     O_R   0.423690 0.494470 0.435930 -0.532619
O2    O     O_R   0.576310 0.994470 0.564070 -0.532618
O3    O     O_R   0.556070 0.822310 0.435760 -0.535774
O4    O     O_R   0.443930 0.322310 0.564240 -0.535771
C1    C     C_R   0.575758 0.655379 0.420715 0.727705
C2    C     C_R   0.424242 0.155379 0.579285 0.727709
O5    O     O_R   0.422940 0.824080 0.428040 -0.540899
O6    O     O_R   0.577060 0.324080 0.571960 -0.540896
O7    O     O_R   0.442240 0.995960 0.556300 -0.536740
O8    O     O_R   0.557760 0.495960 0.443700 -0.536741
C3    C     C_R   0.398412 0.656593 0.410679 0.717871
C4    C     C_R   0.601588 0.156593 0.589321 0.717879
O9    O     O_3   0.506490 0.661310 0.542090 -0.372070
O10   O     O_3   0.493510 0.161310 0.457910 -0.372076
V1    V     V_3+5 0.498800 0.935560 0.492190 1.436498
V2    V     V_3+5 0.501200 0.435560 0.507810 1.436508
C5    C     C_R   0.837748 0.077807 0.857078 -0.100483
C6    C     C_R   0.162252 0.577807 0.142922 -0.100474
C7    C     C_R   0.662922 0.157634 0.642219 -0.113957
C8    C     C_R   0.337078 0.657635 0.357781 -0.113958
C9    C     C_R   0.764486 0.323339 0.694707 0.421538
C10   C     C_R   0.235515 0.823344 0.305292 0.421540
C11   C     C_R   0.708828 0.303987 0.642668 -0.257181
C12   C     C_R   0.291173 0.803991 0.357331 -0.257182
C13   C     C_R   0.673513 0.027003 0.695044 -0.180938
C14   C     C_R   0.326487 0.527003 0.304956 -0.180951
C15   C     C_R   0.728070 0.046084 0.748851 0.110664
C16   C     C_R   0.271930 0.546085 0.251149 0.110680
C17   C     C_R   0.774253 0.194947 0.749374 0.031058
C18   C     C_R   0.225747 0.694948 0.250626 0.031051
C19   C     C_R   0.828731 0.209213 0.804257 -0.138104
C20   C     C_R   0.171269 0.709212 0.195743 -0.138116
C21   C     C_R   0.791042 0.933306 0.855645 -0.065599
C22   C     C_R   0.208958 0.433307 0.144355 -0.065629
C23   C     C_R   0.736739 0.918323 0.802547 -0.060340
C24   C     C_R   0.263261 0.418324 0.197453 -0.060374
H1    H     H_    0.865737 0.317343 0.805684 0.196409
H2    H     H_    0.134261 0.817339 0.194317 0.196409
H3    H     H_    0.796973 0.829804 0.895641 0.137852
H4    H     H_    0.203027 0.329804 0.104359 0.137826
H5    H     H_    0.701937 0.804361 0.803012 0.117360
H6    H     H_    0.298063 0.304361 0.196989 0.117328
H7    H     H_    0.700826 0.404518 0.601741 0.158033
H8    H     H_    0.299176 0.904523 0.398257 0.158029
H9    H     H_    0.638010 0.914823 0.695535 0.125699
H10   H     H_    0.361990 0.414821 0.304465 0.125691
C25   C     C_3   0.246138 0.304549 0.799847 0.326895
C26   C     C_3   0.753863 0.804548 0.200154 0.326894
C27   C     C_3   0.259212 0.948452 0.806129 -0.233057
C28   C     C_3   0.740788 0.448452 0.193871 -0.232996
C29   C     C_3   0.308973 0.960931 0.758232 -0.320166
C30   C     C_3   0.691027 0.460932 0.241768 -0.320213
H11   H     H_    0.346680 0.336646 0.778239 0.216164
H12   H     H_    0.653322 0.836652 0.221765 0.216091
H13   H     H_    0.233740 0.809944 0.800293 0.183875
H14   H     H_    0.766260 0.309943 0.199707 0.183868
H15   H     H_    0.286035 0.951976 0.859136 0.238605
H16   H     H_    0.713964 0.451977 0.140864 0.238699
H17   H     H_    0.359768 0.977337 0.788576 0.194292
H18   H     H_    0.640232 0.477341 0.211424 0.194271
H19   H     H_    0.308054 0.826726 0.729679 0.143476
H20   H     H_    0.691945 0.326726 0.270321 0.143478
C31   C     C_1   0.378707 0.146473 0.624958 -0.178248
C32   C     C_1   0.621294 0.646472 0.375042 -0.178264
C33   C     C_3   0.208099 0.110934 0.792130 0.049444
C34   C     C_3   0.791900 0.610933 0.207870 0.049443
C35   C     C_3   0.295177 0.313352 0.750627 -0.378627
C36   C     C_3   0.704824 0.813352 0.249375 -0.378689
C37   C     C_3   0.292528 0.129455 0.708803 0.141632
C38   C     C_3   0.707473 0.629453 0.291198 0.141669
C39   C     C_3   0.221061 0.104408 0.668346 -0.340175
C40   C     C_3   0.778940 0.604401 0.331654 -0.340162
C41   C     C_3   0.170972 0.095879 0.716995 0.134331
C42   C     C_3   0.829028 0.595875 0.283005 0.134311
C43   C     C_1   0.340146 0.138808 0.662763 -0.039074
C44   C     C_1   0.659855 0.638806 0.337238 -0.039087
C45   C     C_1   0.160155 0.098772 0.837932 0.056835
C46   C     C_1   0.839844 0.598772 0.162068 0.056854
C47   C     C_1   0.121345 0.089342 0.875420 -0.094148
C48   C     C_1   0.878655 0.589343 0.124579 -0.094142
H21   H     H_    0.139864 0.225159 0.706398 0.076013
H22   H     H_    0.860136 0.725154 0.293603 0.076016
H23   H     H_    0.208160 0.226442 0.633687 0.129330
H24   H     H_    0.791842 0.726433 0.366315 0.129331
H25   H     H_    0.209141 0.419035 0.785588 0.042439
H26   H     H_    0.790860 0.919033 0.214412 0.042442
H27   H     H_    0.282439 0.436225 0.716353 0.106946
H28   H     H_    0.717565 0.936222 0.283650 0.106965
H29   H     H_    0.219095 0.979339 0.635376 0.167798
H30   H     H_    0.780905 0.479330 0.364623 0.167795
O11   O     O_R   0.942280 0.741210 0.056360 -0.531059
O12   O     O_R   0.057720 0.241210 0.943640 -0.531056
O13   O     O_R   0.077070 0.409690 0.071960 -0.532162
O14   O     O_R   0.922930 0.909690 0.928040 -0.532164
C49   C     C_R   0.101625 0.577500 0.089201 0.706592
C50   C     C_R   0.898375 0.077500 0.910799 0.706602
O15   O     O_R   0.943940 0.411580 0.064250 -0.536103
O16   O     O_R   0.056060 0.911580 0.935750 -0.536105
O17   O     O_R   0.923670 0.239840 0.935920 -0.540145
O18   O     O_R   0.076330 0.739840 0.064080 -0.540150
C51   C     C_R   0.924233 0.580104 0.079017 0.716560
C52   C     C_R   0.075766 0.080104 0.920983 0.716550
O19   O     O_3   0.993540 0.572620 0.957940 -0.370050
O20   O     O_3   0.006460 0.072620 0.042060 -0.370051
V3    V     V_3+5 0.001200 0.298330 0.007800 1.519797
V4    V     V_3+5 0.998800 0.798330 0.992200 1.519790
N1    N     N_2   0.125566 0.934662 0.706482 -0.496020
H31   H     H_    0.076152 0.969268 0.695693 0.277173
C53   C     C_3   0.141024 0.758581 0.676769 -0.503590
H32   H     H_    0.110036 0.644274 0.691332 0.203807
H33   H     H_    0.193300 0.718136 0.694271 0.180082
H34   H     H_    0.129797 0.770474 0.621159 0.197466
N2    N     N_2   0.874434 0.434657 0.293517 -0.496024
H35   H     H_    0.923849 0.469262 0.304301 0.277172
C54   C     C_3   0.858978 0.258577 0.323231 -0.503589
H36   H     H_    0.889966 0.144270 0.308669 0.203806
H37   H     H_    0.806702 0.218130 0.305730 0.180082
H38   H     H_    0.870206 0.270475 0.378841 0.197468
S1    S     S_3+6 0.820469 0.509238 0.688979 -0.006723
O21   O     O_2   0.827874 0.632257 0.750191 -0.328709
O22   O     O_2   0.886720 0.427485 0.685583 -0.335564
O23   O     O_3   0.793752 0.643090 0.620509 -0.490396
H39   H     H_    0.804810 0.570511 0.582620 0.334926
S2    S     S_3+6 0.179535 0.009250 0.311018 -0.006727
O24   O     O_2   0.172122 0.132247 0.249800 -0.328712
O25   O     O_2   0.113286 0.927505 0.314425 -0.335560
O26   O     O_3   0.206258 0.143126 0.379479 -0.490403
H40   H     H_    0.195205 0.070571 0.417374 0.334932
S3    S     S_3+6 0.288841 0.360342 0.884380 -0.025293
O27   O     O_2   0.312260 0.561175 0.885573 -0.339782
O28   O     O_2   0.243658 0.340207 0.933253 -0.340646
O29   O     O_3   0.354820 0.219481 0.908003 -0.509603
H41   H     H_    0.375278 0.261534 0.953959 0.378914
S4    S     S_3+6 0.711157 0.860340 0.115621 -0.025273
O30   O     O_2   0.687744 0.061179 0.114434 -0.339965
O31   O     O_2   0.756333 0.840197 0.066743 -0.340425
O32   O     O_3   0.645175 0.719487 0.092003 -0.509642
H42   H     H_    0.624500 0.762246 0.046202 0.378967

loop_
_geom_bond_atom_site_label_1
_geom_bond_atom_site_label_2
_ccdc_geom_bond_type
C5    C50   S    
C15   C17   A    
C24   H6    S    
O1    C3    A    
O2    C4    A    
C2    O7    A    
O20   V4    S    
C27   H15   S    
O8    V2    S    
O5    C3    A    
C21   H3    S    
C27   C33   S    
C25   S3    S    
C22   H4    S    
C25   H25   S    
C26   S4    S    
C42   H22   S    
S3    O27   D    
C53   H33   S    
C46   C48   T    
C41   N1    S    
C36   H28   S    
H12   C36   S    
C54   H36   S    
C34   C42   S    
C50   O17   A    
C33   C41   S    
O6    V2    S    
C27   C29   S    
C25   C35   S    
C37   C39   S    
C30   H18   S    
O13   V3    S    
C8    C12   A    
O29   H41   S    
C54   H37   S    
C29   H19   S    
C28   C30   S    
N1    H31   S    
C47   C52   S    
C20   H2    S    
C22   C24   A    
O12   C52   A    
S3    O29   S    
O15   V3    S    
S1    O22   D    
O13   C49   A    
C17   C19   A    
C6    C49   S    
N1    C53   S    
O11   V4    S    
C5    C21   A    
O11   C51   A    
O17   V3    S    
C41   H21   S    
O20   V3    S    
C39   H23   S    
C45   C47   T    
C34   C46   S    
C3    C8    S    
C33   C45   S    
C28   H16   S    
C40   C42   S    
C53   H34   S    
C39   C41   S    
C49   O18   A    
S4    O31   D    
C15   C23   A    
C27   H13   S    
C42   N2    S    
C9    C17   A    
C30   H20   S    
C28   H14   S    
C19   H1    S    
C1    C32   S    
N2    C54   S    
C35   H27   S    
C35   C37   S    
C2    C31   S    
O4    V2    S    
C7    C11   A    
C40   H30   S    
C39   H29   S    
O6    C4    A    
C54   H38   S    
C32   C44   T    
O19   V3    S    
O1    V2    S    
C26   C36   S    
S4    O32   S    
O14   C50   A    
O2    V1    S    
C28   C34   S    
C40   H24   S    
C23   H5    S    
S2    O26   S    
O4    C2    A    
C9    C11   A    
C38   C44   S    
C5    C19   A    
C26   H26   S    
C6    C20   A    
O26   H40   S    
C13   H9    S    
O3    V1    S    
C31   C43   T    
S2    O25   D    
N2    H35   S    
S1    O23   S    
O14   V4    S    
C10   C18   A    
C11   H7    S    
O18   V4    S    
O3    C1    A    
S1    O21   D    
C10   S2    S    
S4    O30   D    
C13   C15   A    
O32   H42   S    
C14   C16   A    
O16   V4    S    
C48   C51   S    
C16   C18   A    
O7    V1    S    
C1    O8    A    
C9    S1    S    
O16   C52   A    
C53   H32   S    
C18   C20   A    
C8    C14   A    
C6    C22   A    
C12   H8    S    
C4    C7    S    
O5    V1    S    
C21   C23   A    
C37   C43   S    
O19   V4    S    
C10   C12   A    
H11   C35   S    
C30   C38   S    
C14   H10   S    
C7    C13   A    
O12   V3    S    
C29   H17   S    
C16   C24   A    
C36   C38   S    
O9    V2    S    
O10   V1    S    
C38   C40   S    
C29   C37   S    
C26   C34   S    
O23   H39   S    
C25   C33   S    
O15   C51   A    
S2    O24   D    
S3    O28   D    
