data_mof_unit_7819.cif
_audit_creation_date              2012-12-10T17:53:23-0500
_audit_creation_method            fapswitch 2.2
_symmetry_space_group_name_H-M    P1
_symmetry_Int_Tables_number       1
_space_group_crystal_system       triclinic
_cell_length_a                    23.321563
_cell_length_b                    10.666664
_cell_length_c                    9.948275
_cell_angle_alpha                 89.634002
_cell_angle_beta                  88.484062
_cell_angle_gamma                 93.966711
_cell_volume                      2467.88908408

loop_
_atom_site_label
_atom_site_type_symbol
_atom_type_description
_atom_site_fract_x
_atom_site_fract_y
_atom_site_fract_z
_atom_type_partial_charge
C1    C     C_R   0.504057 0.260221 0.500796 0.862241
C2    C     C_R   0.124879 0.641137 0.553602 0.513013
C3    C     C_R   0.251417 0.645809 0.449869 -0.081609
C4    C     C_R   0.389704 0.500564 0.501291 0.832920
C5    C     C_R   0.309930 0.630965 0.457705 -0.220064
C6    C     C_R   0.328821 0.516558 0.502398 -0.007924
C7    C     C_R   0.289468 0.416761 0.538946 -0.244440
C8    C     C_R   0.230964 0.431940 0.532174 -0.082462
C9    C     C_R   0.211876 0.546054 0.486509 0.300568
C10   C     C_R   0.764424 0.490571 0.598837 0.156511
C11   C     C_R   0.704408 0.477969 0.604177 -0.273053
C12   C     C_R   0.971669 0.401003 0.291654 0.120372
C13   C     C_R   0.673285 0.512611 0.492866 -0.055212
C14   C     C_R   0.702291 0.561180 0.376576 -0.209833
C15   C     C_R   0.761818 0.575757 0.371778 -0.146452
C16   C     C_R   0.493124 0.737874 0.500567 0.877457
C17   C     C_R   0.792989 0.540363 0.482188 0.329015
C18   C     C_R   0.523367 0.107886 0.750299 -0.156862
C19   C     C_R   0.509442 0.045163 0.871342 -0.192105
C20   C     C_R   0.474097 0.934714 0.871792 -0.160621
C21   C     C_R   0.457429 0.879507 0.750435 0.138322
C22   C     C_R   0.479798 0.933818 0.626542 0.071693
C23   C     C_R   0.031505 0.405014 0.291846 -0.220235
C24   C     C_R   0.503634 0.057629 0.627106 0.067191
C25   C     C_R   0.505909 0.125506 0.503698 -0.115762
C26   C     C_R   0.498843 0.062901 0.381594 -0.226914
C27   C     C_R   0.489429 0.934945 0.380967 -0.214527
C28   C     C_R   0.610669 0.502053 0.498189 0.882520
C29   C     C_R   0.482700 0.869266 0.502775 -0.141392
C30   C     C_R   0.429322 0.325860 0.154787 -0.234236
C31   C     C_R   0.396105 0.229036 0.099460 0.025808
C32   C     C_R   0.393723 0.220804 0.961776 0.085044
C33   C     C_R   0.424486 0.311655 0.878499 0.085385
C34   C     C_R   0.062513 0.484921 0.378554 -0.021407
C35   C     C_R   0.464030 0.409047 0.933097 0.104471
C36   C     C_R   0.464956 0.411893 0.077662 0.116223
C37   C     C_R   0.533432 0.584368 0.068308 -0.113420
C38   C     C_R   0.533401 0.584463 0.925660 -0.131743
C39   C     C_R   0.883409 0.639454 0.549745 0.537614
C40   C     C_R   0.881581 0.473399 0.389101 0.517606
C41   C     C_R   0.941783 0.479319 0.379872 -0.011736
C42   C     C_R   0.973036 0.564931 0.463942 -0.099133
C43   C     C_R   0.944065 0.647463 0.549834 -0.030504
C44   C     C_3   0.950516 0.825627 0.725924 -0.776034
C45   C     C_R   0.033530 0.566286 0.463432 -0.021374
C46   C     C_R   0.065163 0.647256 0.549392 -0.053046
C47   C     C_R   0.036814 0.730337 0.631450 -0.154180
C48   C     C_R   0.976903 0.732627 0.632857 0.173603
C49   C     C_R   0.122253 0.483602 0.384199 0.513151
H1    H     H_    0.682355 0.439884 0.694249 0.158874
H2    H     H_    0.053464 0.343232 0.224856 0.190532
H3    H     H_    0.424780 0.330878 0.260148 0.230042
H4    H     H_    0.560713 0.653827 0.870039 0.156132
H5    H     H_    0.061563 0.793495 0.696305 0.191966
H6    H     H_    0.236764 0.733661 0.413464 0.148413
H7    H     H_    0.340508 0.707828 0.427611 0.132625
H8    H     H_    0.303779 0.326463 0.568134 0.126496
H9    H     H_    0.200361 0.354424 0.559643 0.145025
H10   H     H_    0.952975 0.225411 0.222560 0.191480
H11   H     H_    0.956369 0.339588 0.103218 0.185982
H12   H     H_    0.678970 0.589692 0.290046 0.163249
H13   H     H_    0.397648 0.758322 0.660131 0.183706
H14   H     H_    0.427667 0.701119 0.800109 0.226030
H15   H     H_    0.389716 0.097489 0.247263 0.189351
H16   H     H_    0.334553 0.192114 0.244092 0.202085
H17   H     H_    0.367695 0.037072 0.936663 0.221538
H18   H     H_    0.314077 0.136270 0.937582 0.214857
H19   H     H_    0.411669 0.217366 0.705221 0.200953
H20   H     H_    0.364409 0.324587 0.741997 0.179957
H21   H     H_    0.926122 0.891863 0.667171 0.267527
H22   H     H_    0.922119 0.775080 0.802781 0.266270
H23   H     H_    0.783947 0.613943 0.281928 0.150277
H24   H     H_    0.983519 0.883374 0.781108 0.206113
H25   H     H_    0.785167 0.356441 0.729310 0.187909
H26   H     H_    0.784125 0.502057 0.794818 0.205651
H27   H     H_    0.501416 0.112256 0.285839 0.173584
H28   H     H_    0.550499 0.194039 0.754500 0.169456
H29   H     H_    0.523523 0.085811 0.965354 0.148045
H30   H     H_    0.458831 0.892858 0.966748 0.140791
H31   H     H_    0.489203 0.887494 0.284950 0.170038
H32   H     H_    0.560876 0.653640 0.119375 0.140558
N1    N     N_R   0.854339 0.551638 0.473397 -0.353733
N2    N     N_3   0.796577 0.451567 0.710457 -0.441801
N3    N     N_R   0.151800 0.558606 0.473303 -0.355973
N4    N     N_R   0.499460 0.498800 0.142780 -0.107025
N5    N     N_R   0.499440 0.498720 0.857170 -0.111693
N6    N     N_3   0.941910 0.316660 0.201296 -0.374417
N7    N     N_3   0.412176 0.780801 0.755997 -0.447204
N8    N     N_3   0.362116 0.141586 0.183908 -0.462511
N9    N     N_3   0.356143 0.124707 0.903296 -0.467325
N10   N     N_3   0.408039 0.307950 0.742826 -0.350289
O1    O     O_R   0.500000 0.316780 0.614690 -0.613699
O2    O     O_R   0.583850 0.500050 0.614640 -0.616168
O3    O     O_R   0.583840 0.500030 0.385310 -0.612858
O4    O     O_2   0.852986 0.717448 0.624923 -0.566766
O5    O     O_2   0.849929 0.388916 0.316601 -0.530181
O6    O     O_2   0.150728 0.407289 0.302202 -0.561172
O7    O     O_2   0.155693 0.714869 0.639180 -0.562328
O8    O     O_R   0.500000 0.316750 0.385360 -0.640767
O9    O     O_R   0.416160 0.499970 0.614690 -0.607000
O10   O     O_R   0.416150 0.499950 0.385360 -0.631303
O11   O     O_R   0.500000 0.683250 0.614640 -0.625931
O12   O     O_R   0.500000 0.683220 0.385310 -0.618198
Zn1   Zn    Zn3+2 0.500000 0.500020 0.653130 0.940300
Zn2   Zn    Zn3+2 0.500000 0.499980 0.346870 0.938084

loop_
_geom_bond_atom_site_label_1
_geom_bond_atom_site_label_2
_ccdc_geom_bond_type
O3    Zn2   S    
C22   C29   A    
H14   N7    S    
C27   C29   A    
C41   C42   A    
C5    H7    S    
C2    N3    A    
C19   C20   A    
H25   N2    S    
N5    Zn1   S    
C1    O8    A    
C7    C8    A    
H17   N9    S    
C45   C46   A    
C2    C46   A    
H16   N8    S    
C15   H23   S    
C12   C23   A    
C26   C27   A    
C12   C41   A    
C38   N5    A    
C18   C24   A    
C49   N3    A    
C37   N4    A    
C18   C19   A    
C33   N10   S    
C30   C31   A    
C35   N5    A    
C10   C17   A    
C10   N2    S    
O9    Zn1   S    
H19   N10   S    
C44   H22   S    
C28   O3    A    
C17   N1    S    
C8    H9    S    
C3    H6    S    
C32   N9    S    
C35   C36   A    
C8    C9    A    
C31   N8    S    
C26   H27   S    
C13   C28   S    
C44   H21   S    
C13   C14   A    
C43   C48   A    
C12   N6    S    
C21   N7    S    
C21   C22   A    
C1    C25   S    
C37   H32   S    
H15   N8    S    
C40   O5    S    
N4    Zn2   S    
O2    Zn1   S    
H11   N6    S    
O10   Zn2   S    
O8    Zn2   S    
C40   N1    A    
C24   C25   A    
C4    C6    S    
C27   H31   S    
C39   C43   A    
C16   C29   S    
C14   H12   S    
H13   N7    S    
H18   N9    S    
C28   O2    A    
C42   C45   A    
C19   H29   S    
C37   C38   A    
C3    C9    A    
C16   O12   A    
C23   H2    S    
C47   C48   A    
C23   C34   A    
C4    O10   A    
O12   Zn2   S    
C34   C45   A    
O11   Zn1   S    
C39   O4    S    
C47   H5    S    
C16   O11   A    
C40   C41   A    
C1    O1    A    
C4    O9    A    
C22   C24   A    
C42   C43   A    
C15   C17   A    
C30   H3    S    
C46   C47   A    
C34   C49   A    
C20   H30   S    
C31   C32   A    
C39   N1    A    
C3    C5    A    
C6    C7    A    
C36   N4    A    
C30   C36   A    
C32   C33   A    
C25   C26   A    
C11   H1    S    
C11   C13   A    
H26   N2    S    
C5    C6    A    
C38   H4    S    
C18   H28   S    
C33   C35   A    
C44   H24   S    
H10   N6    S    
C10   C11   A    
O1    Zn1   S    
C9    N3    S    
C49   O6    S    
C20   C21   A    
C2    O7    S    
C14   C15   A    
H20   N10   S    
C7    H8    S    
C44   C48   S    
