data_mof_unit_44870.cif
_audit_creation_date              2012-12-11T17:36:10-0500
_audit_creation_method            fapswitch 2.2
_symmetry_space_group_name_H-M    P1
_symmetry_Int_Tables_number       1
_space_group_crystal_system       triclinic
_cell_length_a                    25.91368
_cell_length_b                    6.993503
_cell_length_c                    21.71129
_cell_angle_alpha                 89.999019
_cell_angle_beta                  96.092213
_cell_angle_gamma                 89.99982
_cell_volume                      3912.45901908

loop_
_atom_site_label
_atom_site_type_symbol
_atom_type_description
_atom_site_fract_x
_atom_site_fract_y
_atom_site_fract_z
_atom_type_partial_charge
O1    O     O_R   0.208650 0.594520 0.175450 -0.522454
O2    O     O_R   0.791350 0.405480 0.824550 -0.543891
O3    O     O_R   0.291350 0.094520 0.324550 -0.522455
O4    O     O_R   0.708650 0.905480 0.675450 -0.543891
O5    O     O_R   0.192980 0.260780 0.300160 -0.512468
O6    O     O_R   0.807020 0.739220 0.699840 -0.508178
O7    O     O_R   0.307020 0.760780 0.199840 -0.512465
O8    O     O_R   0.692980 0.239220 0.800160 -0.508175
C1    C     C_R   0.178876 0.432098 0.318368 0.700364
C2    C     C_R   0.821127 0.567910 0.681636 0.705745
C3    C     C_R   0.321123 0.932098 0.181630 0.700365
C4    C     C_R   0.678873 0.067909 0.818364 0.705817
O9    O     O_R   0.202550 0.264660 0.174420 -0.547041
O10   O     O_R   0.797450 0.735340 0.825580 -0.529223
O11   O     O_R   0.297450 0.764660 0.325580 -0.547036
O12   O     O_R   0.702550 0.235340 0.674420 -0.529271
O13   O     O_R   0.300990 0.096480 0.197920 -0.545535
O14   O     O_R   0.699010 0.903520 0.802080 -0.549291
O15   O     O_R   0.199010 0.596480 0.302080 -0.545534
O16   O     O_R   0.800990 0.403520 0.697920 -0.549293
C5    C     C_R   0.191364 0.433193 0.151267 0.724987
C6    C     C_R   0.808629 0.566359 0.848671 0.732121
C7    C     C_R   0.308634 0.933188 0.348734 0.725020
C8    C     C_R   0.691373 0.066363 0.651328 0.732207
O17   O     O_3   0.282290 0.427760 0.257860 -0.362118
O18   O     O_3   0.717710 0.572240 0.742140 -0.365693
O19   O     O_3   0.217710 0.927760 0.242140 -0.362127
O20   O     O_3   0.782290 0.072240 0.757860 -0.365676
V1    V     V_3+5 0.244010 0.152080 0.248540 1.477636
V2    V     V_3+5 0.755990 0.847920 0.751460 1.470976
V3    V     V_3+5 0.255990 0.652080 0.251460 1.477649
V4    V     V_3+5 0.744010 0.347920 0.748540 1.470938
C9    C     C_R   0.657220 0.054437 0.592625 -0.030693
C10   C     C_R   0.342882 0.937354 0.407578 -0.033417
C11   C     C_R   0.842778 0.554420 0.907376 -0.030716
C12   C     C_R   0.157111 0.437385 0.092426 -0.033434
C13   C     C_R   0.649358 0.010925 0.481749 -0.163440
C14   C     C_R   0.355270 0.854108 0.516073 -0.164828
C15   C     C_R   0.850640 0.510580 0.018242 -0.163463
C16   C     C_R   0.144719 0.354301 0.983919 -0.164833
C17   C     C_R   0.679964 0.024244 0.538064 -0.229985
C18   C     C_R   0.324050 0.860502 0.460100 -0.223066
C19   C     C_R   0.820037 0.523885 0.961921 -0.229915
C20   C     C_R   0.175935 0.360547 0.039897 -0.223065
C21   C     C_R   0.602641 0.066549 0.591249 0.132577
C22   C     C_R   0.394592 0.004479 0.410620 0.130331
C23   C     C_R   0.897355 0.566851 0.908774 0.132535
C24   C     C_R   0.105409 0.504591 0.089388 0.130323
C25   C     C_R   0.570331 0.026754 0.534522 0.039765
C26   C     C_R   0.429480 0.972692 0.465931 0.037499
C27   C     C_R   0.929667 0.526977 0.965490 0.039787
C28   C     C_R   0.070520 0.472924 0.034070 0.037515
C29   C     C_R   0.595112 0.012275 0.479380 0.116907
C30   C     C_R   0.407486 0.908808 0.519537 0.116628
C31   C     C_R   0.904885 0.512222 0.020623 0.116927
C32   C     C_R   0.092512 0.409112 0.980454 0.116629
C33   C     C_R   0.515152 0.995167 0.529843 0.063152
C34   C     C_R   0.485022 0.994315 0.470375 0.063059
C35   C     C_R   0.984850 0.495520 0.970161 0.063116
C36   C     C_R   0.014979 0.494560 0.029629 0.063047
C37   C     C_R   0.512024 0.986930 0.417490 -0.203812
C38   C     C_R   0.490450 0.937231 0.581429 -0.202844
C39   C     C_R   0.987977 0.487046 0.082514 -0.203807
C40   C     C_R   0.009554 0.437758 0.918560 -0.202845
C41   C     C_R   0.565800 0.992957 0.422033 -0.184497
C42   C     C_R   0.438032 0.892652 0.576157 -0.185049
C43   C     C_R   0.934199 0.492904 0.077969 -0.184492
C44   C     C_R   0.061970 0.393133 0.923826 -0.185041
H1    H     H_    0.584729 0.979360 0.380037 0.122060
H2    H     H_    0.421380 0.841478 0.616855 0.122960
H3    H     H_    0.915272 0.479145 0.119960 0.122060
H4    H     H_    0.078621 0.342046 0.883119 0.122958
H5    H     H_    0.284434 0.809198 0.458014 0.120776
H6    H     H_    0.721802 0.015914 0.538955 0.119545
H7    H     H_    0.215544 0.309168 0.041981 0.120772
H8    H     H_    0.778203 0.515304 0.961019 0.119569
H9    H     H_    0.668251 0.994445 0.439849 0.121466
H10   H     H_    0.338893 0.800046 0.556567 0.122319
H11   H     H_    0.831746 0.493857 0.060133 0.121463
H12   H     H_    0.161092 0.300263 0.943419 0.122319
H13   H     H_    0.492659 0.958090 0.372171 0.134259
H14   H     H_    0.511869 0.907391 0.625536 0.136358
H15   H     H_    0.007348 0.458183 0.127829 0.134255
H16   H     H_    0.988134 0.408063 0.874443 0.136345
C45   C     C_R   0.426551 0.798272 0.076400 -0.189916
C46   C     C_R   0.573537 0.201834 0.923710 -0.190451
C47   C     C_R   0.073480 0.298272 0.423644 -0.189910
C48   C     C_R   0.926470 0.701835 0.576300 -0.190452
H17   H     H_    0.443955 0.670985 0.058948 0.108764
H18   H     H_    0.556191 0.329135 0.941231 0.108630
H19   H     H_    0.056097 0.170989 0.441126 0.108765
H20   H     H_    0.943822 0.829137 0.558786 0.108631
C49   C     C_R   0.387302 0.779675 0.116247 0.196759
C50   C     C_R   0.612777 0.220389 0.883847 0.199993
C51   C     C_R   0.112725 0.279674 0.383791 0.196770
C52   C     C_R   0.887232 0.720390 0.616164 0.199987
C53   C     C_R   0.363748 0.942762 0.139588 -0.048816
C54   C     C_R   0.636248 0.057283 0.860408 -0.046800
C55   C     C_R   0.136250 0.442758 0.360408 -0.048819
C56   C     C_R   0.863752 0.557285 0.639593 -0.046818
C57   C     C_R   0.381027 0.121935 0.121537 -0.249613
C58   C     C_R   0.618875 0.878132 0.878347 -0.252723
C59   C     C_R   0.118932 0.621929 0.378406 -0.249630
C60   C     C_R   0.881116 0.378134 0.621642 -0.252720
H21   H     H_    0.363480 0.246420 0.138756 0.163691
H22   H     H_    0.636330 0.753635 0.861012 0.162913
H23   H     H_    0.136442 0.746413 0.361134 0.163711
H24   H     H_    0.863651 0.253638 0.638964 0.162916
C61   C     C_R   0.420095 0.140982 0.081792 -0.147408
C62   C     C_R   0.579813 0.859122 0.918102 -0.146407
C63   C     C_R   0.079866 0.640977 0.418152 -0.147407
C64   C     C_R   0.920177 0.359123 0.581886 -0.146414
H25   H     H_    0.432240 0.282249 0.068844 0.112759
H26   H     H_    0.567590 0.717864 0.930958 0.112671
H27   H     H_    0.067688 0.782243 0.431056 0.112762
H28   H     H_    0.932392 0.217866 0.569020 0.112672
C65   C     C_R   0.443058 0.978367 0.058913 0.110292
C66   C     C_R   0.556948 0.021756 0.941102 0.110426
C67   C     C_R   0.056941 0.478366 0.441086 0.110285
C68   C     C_R   0.943052 0.521757 0.558897 0.110426
C69   C     C_1   0.483222 0.994374 0.017390 -0.050678
C70   C     C_1   0.516783 0.005776 0.982626 -0.050659
C71   C     C_1   0.016777 0.494375 0.482609 -0.050680
C72   C     C_1   0.983215 0.505778 0.517373 -0.050659
N1    N     N_3   0.407671 0.123359 0.360551 -0.677869
H29   H     H_    0.417434 0.037395 0.324163 0.208530
H30   H     H_    0.437368 0.219335 0.375124 0.243443
N2    N     N_3   0.582583 0.144846 0.645111 -0.687522
H31   H     H_    0.579540 0.036609 0.677711 0.211218
H32   H     H_    0.547166 0.214265 0.633685 0.244069
N3    N     N_3   0.092339 0.623447 0.139465 -0.677854
H33   H     H_    0.082573 0.537458 0.175847 0.208517
H34   H     H_    0.062644 0.719444 0.124899 0.243428
N4    N     N_3   0.917401 0.645567 0.854964 -0.687380
H35   H     H_    0.920471 0.537556 0.822298 0.211173
H36   H     H_    0.952808 0.715004 0.866439 0.244055
N5    N     N_3   0.371417 0.593596 0.132122 -0.662697
H37   H     H_    0.404395 0.523745 0.153081 0.219688
H38   H     H_    0.358451 0.524756 0.090590 0.213183
N6    N     N_3   0.628681 0.406445 0.867980 -0.661619
H39   H     H_    0.595701 0.476212 0.846989 0.221192
H40   H     H_    0.641630 0.475379 0.909501 0.210912
N7    N     N_3   0.128612 0.093596 0.367920 -0.662717
H41   H     H_    0.095631 0.023790 0.346949 0.219641
H42   H     H_    0.141567 0.024707 0.409447 0.213231
N8    N     N_3   0.871331 0.906446 0.632035 -0.661613
H43   H     H_    0.904311 0.976222 0.653016 0.221200
H44   H     H_    0.858373 0.975371 0.590514 0.210905

loop_
_geom_bond_atom_site_label_1
_geom_bond_atom_site_label_2
_ccdc_geom_bond_type
O17   V3    S    
C55   C59   A    
C48   C52   A    
O1    C5    A    
C47   H19   S    
O19   V1    S    
C9    C21   A    
C22   N1    S    
O3    C7    A    
C10   C18   A    
C56   C60   A    
O15   V3    S    
N2    H31   S    
C62   C66   A    
C61   C65   A    
C71   C72   T    
C5    C12   S    
O7    C3    A    
C6    C11   S    
N5    H38   S    
C35   C40   A    
C26   C30   A    
C36   C39   A    
C40   C44   A    
O2    V4    S    
O9    V1    S    
N6    H40   S    
C14   C18   A    
O4    C8    A    
C51   C55   A    
C43   H3    S    
C50   C54   A    
C21   N2    S    
C57   C61   A    
N7    H41   S    
C60   H24   S    
O1    V3    S    
O13   V1    S    
C59   C63   A    
C66   C70   S    
O3    V1    S    
C65   C69   S    
C40   H16   S    
C46   C50   A    
C17   H6    S    
C45   C49   A    
C1    O15   A    
C15   C31   A    
C48   H20   S    
C2    O16   A    
C16   C32   A    
C47   C51   A    
O2    C6    A    
C16   H12   S    
C24   N3    S    
C58   H22   S    
C10   C22   A    
C21   C25   A    
C48   C68   A    
C11   C19   A    
C62   H26   S    
C16   C20   A    
O5    V1    S    
C12   C20   A    
C44   H4    S    
C13   C29   A    
C34   C37   A    
O11   C7    A    
C38   H14   S    
C11   C23   A    
C35   C36   A    
O12   C8    A    
O17   V1    S    
O10   V2    S    
N8    H44   S    
C57   H21   S    
C39   C43   A    
O7    V3    S    
C38   C42   A    
O19   V3    S    
C26   C34   A    
C33   C38   A    
N6    H39   S    
C46   H18   S    
C60   C64   A    
C45   H17   S    
O18   V4    S    
C15   C19   A    
C14   H10   S    
C32   C44   A    
C13   H9    S    
C39   H15   S    
O8    V4    S    
C37   H13   S    
C20   H7    S    
C2    C56   S    
C47   C67   A    
C23   C27   A    
C1    C55   S    
C63   H27   S    
C31   C43   A    
C14   C30   A    
O20   V4    S    
O8    C4    A    
C7    C10   S    
O9    C5    A    
C46   C66   A    
C45   C65   A    
C69   C70   T    
O14   V2    S    
C63   C67   A    
O6    V2    S    
O18   V2    S    
C67   C71   S    
C23   N4    S    
N1    H29   S    
C58   C62   A    
C27   C35   A    
N3    H33   S    
C49   C53   A    
C64   H28   S    
C29   C41   A    
C64   C68   A    
N8    H43   S    
O16   V4    S    
C19   H8    S    
N7    H42   S    
C3    O13   A    
C18   H5    S    
C4    C54   S    
C51   N7    S    
O5    C1    A    
N3    H34   S    
N2    H32   S    
O6    C2    A    
C25   C33   A    
N4    H36   S    
O11   V3    S    
N4    H35   S    
C30   C42   A    
C61   H25   S    
O12   V4    S    
C52   N8    S    
N5    H37   S    
C22   C26   A    
C8    C9    S    
C3    C53   S    
C9    C17   A    
O10   C6    A    
O20   V2    S    
C54   C58   A    
C33   C34   A    
C42   H2    S    
C41   H1    S    
C52   C56   A    
C12   C24   A    
C27   C31   A    
C13   C17   A    
O4    V2    S    
C25   C29   A    
C49   N5    S    
C68   C72   S    
C37   C41   A    
C24   C28   A    
C28   C36   A    
C4    O14   A    
N1    H30   S    
C50   N6    S    
C59   H23   S    
C53   C57   A    
C28   C32   A    
C15   H11   S    
