data_mof_unit_19297.cif
_audit_creation_date              2012-12-10T17:19:03-0500
_audit_creation_method            fapswitch 2.2
_symmetry_space_group_name_H-M    P1
_symmetry_Int_Tables_number       1
_space_group_crystal_system       triclinic
_cell_length_a                    18.345258
_cell_length_b                    18.328392
_cell_length_c                    34.382561
_cell_angle_alpha                 89.978316
_cell_angle_beta                  90.094744
_cell_angle_gamma                 89.986539
_cell_volume                      11560.7437231

loop_
_atom_site_label
_atom_site_type_symbol
_atom_type_description
_atom_site_fract_x
_atom_site_fract_y
_atom_site_fract_z
_atom_type_partial_charge
C1    C     C_R   0.632705 0.003037 0.520414 -0.197253
C2    C     C_R   0.867827 0.488710 0.979608 -0.186606
C3    C     C_R   0.528420 0.940113 0.959078 0.006429
C4    C     C_R   0.933712 0.491847 0.040862 0.018193
C5    C     C_R   0.066647 0.504533 0.958993 0.015751
C6    C     C_R   0.531773 0.942408 0.040947 0.013203
C7    C     C_R   0.475064 0.062785 0.958713 0.010282
C8    C     C_R   0.999966 0.500086 0.644308 0.941095
C9    C     C_R   0.000035 0.500097 0.355704 0.942345
C10   C     C_R   0.499804 0.999994 0.644293 0.934399
C11   C     C_R   0.500186 0.999970 0.355708 0.933814
C12   C     C_R   0.500010 0.000714 0.144248 0.947565
C13   C     C_R   0.445252 0.122190 0.019752 -0.193423
C14   C     C_R   0.500113 0.999791 0.855678 0.932271
C15   C     C_R   0.000040 0.500023 0.144274 0.945748
C16   C     C_R   0.999952 0.499996 0.855689 0.940213
C17   C     C_R   0.860387 0.640091 0.749888 0.784718
C18   C     C_R   0.139875 0.360087 0.250009 0.794584
C19   C     C_R   0.360001 0.860293 0.749869 0.779661
C20   C     C_R   0.639770 0.139848 0.249949 0.791597
C21   C     C_R   0.139710 0.360079 0.749910 0.784618
C22   C     C_R   0.860239 0.639842 0.249985 0.791163
C23   C     C_R   0.639806 0.139920 0.750027 0.783070
C24   C     C_R   0.558122 0.881453 0.980018 -0.188103
C25   C     C_R   0.360139 0.860228 0.250077 0.794030
C26   C     C_R   0.860081 0.360220 0.249982 0.787686
C27   C     C_R   0.139569 0.640013 0.749861 0.790790
C28   C     C_R   0.360051 0.139739 0.250024 0.780074
C29   C     C_R   0.639744 0.860083 0.750001 0.794242
C30   C     C_R   0.139724 0.640032 0.250055 0.788474
C31   C     C_R   0.860096 0.360116 0.750002 0.793896
C32   C     C_R   0.639782 0.860078 0.249988 0.778036
C33   C     C_R   0.360211 0.139892 0.750013 0.789967
C34   C     C_R   0.266020 0.625968 0.798225 -0.131170
C35   C     C_R   0.868028 0.486575 0.020043 -0.190290
C36   C     C_R   0.718542 0.388578 0.217316 -0.142115
C37   C     C_R   0.387953 0.281159 0.782917 -0.138090
C38   C     C_R   0.624771 0.731802 0.202592 -0.169760
C39   C     C_R   0.707880 0.399056 0.755552 -0.135056
C40   C     C_R   0.279335 0.613310 0.215205 -0.152107
C41   C     C_R   0.611627 0.718401 0.782388 -0.137008
C42   C     C_R   0.398423 0.291313 0.241215 -0.147679
C43   C     C_R   0.291710 0.398475 0.241834 -0.137702
C44   C     C_R   0.719960 0.611887 0.783171 -0.152239
C45   C     C_R   0.386593 0.720876 0.214918 -0.138153
C46   C     C_R   0.132162 0.511532 0.979799 -0.187354
C47   C     C_R   0.601003 0.292351 0.755125 -0.140498
C48   C     C_R   0.734797 0.626962 0.200606 -0.136941
C49   C     C_R   0.282012 0.389874 0.780773 -0.140198
C50   C     C_R   0.614177 0.278391 0.213477 -0.148699
C51   C     C_R   0.375416 0.731537 0.796702 -0.147667
C52   C     C_R   0.779339 0.112905 0.284882 -0.130616
C53   C     C_R   0.231550 0.875666 0.702561 -0.164899
C54   C     C_R   0.873524 0.765758 0.298963 -0.137852
C55   C     C_R   0.111965 0.219112 0.716593 -0.151244
C56   C     C_R   0.221837 0.886184 0.286336 -0.139562
C57   C     C_R   0.559254 0.882334 0.020376 -0.199090
C58   C     C_R   0.791749 0.100967 0.743777 -0.141173
C59   C     C_R   0.101478 0.208036 0.257767 -0.140042
C60   C     C_R   0.889124 0.782698 0.718496 -0.140888
C61   C     C_R   0.778885 0.887097 0.714867 -0.135687
C62   C     C_R   0.208286 0.101006 0.257357 -0.149972
C63   C     C_R   0.898628 0.207756 0.743729 -0.141055
C64   C     C_R   0.111619 0.781810 0.282632 -0.143292
C65   C     C_R   0.219362 0.111617 0.716797 -0.126683
C66   C     C_R   0.768018 0.875235 0.297314 -0.166059
C67   C     C_R   0.125946 0.766292 0.701009 -0.136499
C68   C     C_R   0.447630 0.122906 0.979276 -0.190377
C69   C     C_R   0.886927 0.220166 0.284633 -0.152807
C70   C     C_R   0.327901 0.617843 0.821309 -0.138013
C71   C     C_R   0.651726 0.401510 0.199250 -0.143969
C72   C     C_R   0.402436 0.349612 0.798679 -0.181161
C73   C     C_R   0.618892 0.671983 0.177775 -0.150172
C74   C     C_R   0.634748 0.418804 0.754965 -0.156940
C75   C     C_R   0.346193 0.600269 0.197338 -0.173240
C76   C     C_R   0.597754 0.650125 0.798544 -0.151912
C77   C     C_R   0.418073 0.364493 0.239796 -0.150966
C78   C     C_R   0.364880 0.417920 0.240178 -0.154980
C79   C     C_R   0.312635 0.741551 0.773323 0.078981
C80   C     C_R   0.651898 0.597322 0.799249 -0.162184
C81   C     C_R   0.399759 0.653719 0.197365 -0.135338
C82   C     C_R   0.581452 0.365590 0.754695 -0.166345
C83   C     C_R   0.673853 0.619856 0.176683 -0.140529
C84   C     C_R   0.350145 0.404199 0.796949 -0.136579
C85   C     C_R   0.600299 0.346146 0.196670 -0.169332
C86   C     C_R   0.382732 0.669985 0.820141 -0.163839
C87   C     C_R   0.846683 0.099411 0.302179 -0.136239
C88   C     C_R   0.170986 0.882232 0.678272 -0.143081
C89   C     C_R   0.880863 0.826963 0.322650 -0.139213
C90   C     C_R   0.681182 0.264251 0.232553 0.077284
C91   C     C_R   0.098250 0.151336 0.699794 -0.171890
C92   C     C_R   0.154062 0.900400 0.302859 -0.173524
C93   C     C_R   0.864871 0.081245 0.743345 -0.156846
C94   C     C_R   0.081913 0.134803 0.258926 -0.158125
C95   C     C_R   0.902370 0.850308 0.701352 -0.138764
C96   C     C_R   0.846975 0.901743 0.698826 -0.174738
C97   C     C_R   0.135164 0.081447 0.258746 -0.161498
C98   C     C_R   0.918164 0.134491 0.743385 -0.158086
C99   C     C_R   0.098677 0.848980 0.300320 -0.140978
C100  C     C_R   0.151572 0.097632 0.700129 -0.135965
C101  C     C_R   0.265422 0.320209 0.765249 0.065919
C102  C     C_R   0.828544 0.881746 0.321624 -0.143808
C103  C     C_R   0.118599 0.827525 0.677311 -0.139342
C104  C     C_R   0.900160 0.152942 0.302202 -0.172309
C105  C     C_R   0.500002 0.002516 0.520537 -0.019941
C106  C     C_R   0.499986 0.002495 0.479465 -0.019925
C107  C     C_R   0.000009 0.500306 0.520543 -0.016221
C108  C     C_R   0.000016 0.500308 0.479506 -0.016365
C109  C     C_R   0.999998 0.500064 0.020448 -0.015689
C110  C     C_R   0.999999 0.500046 0.979411 -0.016098
C111  C     C_R   0.500812 0.001606 0.020395 -0.009109
C112  C     C_R   0.367281 0.002784 0.479588 -0.197429
C113  C     C_R   0.742497 0.687775 0.225689 0.070435
C114  C     C_R   0.501058 0.001360 0.979361 -0.012363
C115  C     C_3   0.361531 0.909477 0.612476 0.106626
C116  C     C_3   0.294363 0.876246 0.592921 -0.382967
C117  C     C_3   0.283733 0.796722 0.604894 -0.902006
C118  C     C_3   0.638562 0.909603 0.387536 0.106408
C119  C     C_3   0.705609 0.876305 0.407203 -0.382756
C120  C     C_3   0.716214 0.796750 0.395305 -0.902482
C121  C     C_3   0.082785 0.348407 0.605483 0.063415
C122  C     C_3   0.087527 0.266510 0.613110 -0.348604
C123  C     C_3   0.166471 0.242003 0.618449 -0.916088
C124  C     C_R   0.675160 0.270457 0.752231 0.070778
C125  C     C_3   0.087417 0.649900 0.394365 0.064033
C126  C     C_3   0.093794 0.731414 0.385976 -0.355117
C127  C     C_3   0.173133 0.753947 0.380092 -0.908252
C128  C     C_3   0.652741 0.080018 0.608975 0.071913
C129  C     C_3   0.718740 0.081023 0.636182 -0.330082
C130  C     C_3   0.745273 0.158727 0.643558 -0.941893
C131  C     C_3   0.347058 0.079753 0.391070 0.070965
C132  C     C_3   0.280510 0.080679 0.364248 -0.330685
C133  C     C_3   0.253822 0.158370 0.356919 -0.939455
C134  C     C_3   0.919124 0.653265 0.605658 0.064425
C135  C     C_R   0.318802 0.735763 0.232941 0.070081
C136  C     C_3   0.915898 0.734780 0.614549 -0.355379
C137  C     C_3   0.837284 0.760786 0.619028 -0.912183
C138  C     C_3   0.910900 0.351732 0.394645 0.063923
C139  C     C_3   0.903135 0.269890 0.387646 -0.349409
C140  C     C_3   0.823631 0.248558 0.381015 -0.912256
C141  C     C_3   0.856003 0.402916 0.105415 0.061364
C142  C     C_3   0.775970 0.392093 0.115948 -0.344014
C143  C     C_3   0.759069 0.312014 0.124180 -0.919448
C144  C     C_3   0.157624 0.429054 0.894691 0.064443
C145  C     C_3   0.238895 0.430682 0.885237 -0.351703
C146  C     C_R   0.735234 0.680481 0.766084 0.074242
C147  C     C_3   0.270430 0.353689 0.882949 -0.920398
C148  C     C_3   0.645795 0.903378 0.103011 0.081142
C149  C     C_3   0.682181 0.848183 0.129998 -0.308970
C150  C     C_3   0.764157 0.860750 0.133111 -0.926271
C151  C     C_3   0.526717 0.168094 0.893951 0.070041
C152  C     C_3   0.515755 0.227512 0.863411 -0.329329
C153  C     C_3   0.583109 0.276003 0.859983 -0.970284
C154  C     C_3   0.143208 0.598351 0.105482 0.062657
C155  C     C_3   0.224175 0.610196 0.113517 -0.342322
C156  C     C_3   0.240742 0.690134 0.122317 -0.920378
C157  C     C_R   0.270174 0.324456 0.246229 0.073094
C158  C     C_3   0.842167 0.571541 0.894819 0.063442
C159  C     C_3   0.760020 0.569847 0.887663 -0.338788
C160  C     C_3   0.728292 0.646773 0.885480 -0.937580
C161  C     C_3   0.364121 0.112251 0.106447 0.086120
C162  C     C_3   0.337798 0.171442 0.134464 -0.315888
C163  C     C_3   0.256981 0.163121 0.143918 -0.912141
C164  C     C_3   0.494269 0.822618 0.899110 0.070067
C165  C     C_3   0.531143 0.748132 0.894410 -0.328027
C166  C     C_3   0.486999 0.687131 0.913395 -0.998935
C167  C     C_R   0.324519 0.269959 0.246039 0.065973
C168  C     C_R   0.680465 0.734679 0.765906 0.075565
C169  C     C_R   0.264376 0.681247 0.233050 0.077327
C170  C     C_R   0.729594 0.324827 0.752341 0.075863
C171  C     C_R   0.687234 0.741483 0.226282 0.071385
C172  C     C_R   0.001948 0.633065 0.520229 -0.188883
C173  C     C_R   0.319569 0.265436 0.765800 0.080452
C174  C     C_R   0.734855 0.319485 0.233608 0.071170
C175  C     C_R   0.257616 0.687577 0.773733 0.071045
C176  C     C_R   0.818901 0.235370 0.266914 0.073391
C177  C     C_R   0.187168 0.758134 0.725784 0.070491
C178  C     C_R   0.758404 0.812732 0.273665 0.068014
C179  C     C_R   0.234926 0.180319 0.733762 0.069200
C180  C     C_R   0.180605 0.765342 0.266413 0.065742
C181  C     C_R   0.824578 0.229564 0.747357 0.071586
C182  C     C_R   0.229783 0.175110 0.253174 0.073077
C183  C     C_R   0.995866 0.367588 0.479833 -0.188007
C184  C     C_R   0.764517 0.819431 0.733228 0.077814
C185  C     C_R   0.819818 0.765798 0.734206 0.065975
C186  C     C_R   0.175410 0.229584 0.253336 0.066766
C187  C     C_R   0.770153 0.175177 0.747420 0.074027
C188  C     C_R   0.235867 0.818994 0.267437 0.077798
C189  C     C_R   0.180383 0.234760 0.733747 0.074275
C190  C     C_R   0.812394 0.757720 0.274111 0.069070
C191  C     C_R   0.241180 0.813139 0.726209 0.065836
C192  C     C_R   0.764352 0.180957 0.267018 0.068932
C193  C     C_R   0.303754 0.804200 0.749805 -0.147180
C194  C     C_R   0.367325 0.000493 0.520049 -0.186274
C195  C     C_R   0.695950 0.195850 0.249815 -0.156516
C196  C     C_R   0.195900 0.304079 0.749753 -0.161331
C197  C     C_R   0.804208 0.695971 0.249921 -0.153313
C198  C     C_R   0.695862 0.196008 0.749978 -0.170731
C199  C     C_R   0.304146 0.804095 0.250238 -0.157316
C200  C     C_R   0.804378 0.696346 0.750123 -0.161440
C201  C     C_R   0.195991 0.303905 0.249948 -0.169719
C202  C     C_R   0.303963 0.195772 0.249788 -0.169936
C203  C     C_R   0.695750 0.803898 0.749721 -0.155788
C204  C     C_R   0.195736 0.696345 0.249871 -0.166807
C205  C     C_R   0.632666 0.000699 0.479954 -0.186440
C206  C     C_R   0.803945 0.304005 0.749976 -0.165677
C207  C     C_R   0.695899 0.803875 0.250025 -0.149580
C208  C     C_R   0.304017 0.195995 0.749949 -0.154749
C209  C     C_R   0.803801 0.304191 0.250158 -0.166676
C210  C     C_R   0.195549 0.696170 0.749836 -0.150227
C211  C     C_R   0.433498 0.994157 0.581615 0.339426
C212  C     C_R   0.566500 0.994197 0.418390 0.339493
C213  C     C_R   0.004019 0.433687 0.581850 0.333949
C214  C     C_R   0.006877 0.566584 0.418155 0.331677
C215  C     C_R   0.566438 0.006166 0.582046 0.332539
C216  C     C_R   0.998202 0.367530 0.520264 -0.188125
C217  C     C_R   0.433538 0.005995 0.417955 0.332680
C218  C     C_R   0.996233 0.566823 0.581872 0.331975
C219  C     C_R   0.992929 0.433955 0.418220 0.333656
C220  C     C_R   0.934408 0.488365 0.081724 0.330908
C221  C     C_R   0.066597 0.500992 0.918135 0.333853
C222  C     C_R   0.535582 0.944799 0.081708 0.328357
C223  C     C_R   0.478548 0.063392 0.917880 0.339373
C224  C     C_R   0.065578 0.511966 0.081804 0.332131
C225  C     C_R   0.933370 0.499155 0.918046 0.335144
C226  C     C_R   0.467038 0.059540 0.081641 0.321966
C227  C     C_R   0.004099 0.633015 0.479781 -0.188770
C228  C     C_R   0.524738 0.938343 0.918198 0.338448
C229  C     C_R   0.499887 0.000086 0.601955 -0.254364
C230  C     C_R   0.500098 0.000015 0.398046 -0.254566
C231  C     C_R   0.999947 0.500201 0.602001 -0.240188
C232  C     C_R   0.000061 0.500212 0.398033 -0.240087
C233  C     C_R   0.000020 0.500087 0.101925 -0.240567
C234  C     C_R   0.999969 0.500002 0.897970 -0.239931
C235  C     C_R   0.500267 0.001438 0.101818 -0.245607
C236  C     C_R   0.500548 0.000234 0.897974 -0.244167
C237  C     C_R   0.566854 0.003951 0.541134 0.019641
C238  C     C_R   0.131945 0.513782 0.020236 -0.188382
C239  C     C_R   0.433130 0.003795 0.458867 0.019574
C240  C     C_R   0.999689 0.567152 0.541006 0.017676
C241  C     C_R   0.996541 0.433536 0.459066 0.017158
C242  C     C_R   0.433174 0.999581 0.540883 0.034695
C243  C     C_R   0.566818 0.999656 0.459119 0.034753
C244  C     C_R   0.000428 0.433438 0.541006 0.016707
C245  C     C_R   0.003409 0.567066 0.459022 0.018183
C246  C     C_R   0.066273 0.508400 0.040953 0.017535
C247  C     C_R   0.933345 0.495602 0.958901 0.015456
C248  C     C_R   0.470659 0.061486 0.040738 0.018586
H1    H     H_    0.225004 0.583637 0.799860 0.117327
H2    H     H_    0.760633 0.569301 0.784913 0.117194
H3    H     H_    0.168217 0.182171 0.623372 0.272889
H4    H     H_    0.191339 0.269786 0.643930 0.273628
H5    H     H_    0.112082 0.618903 0.369911 0.177094
H6    H     H_    0.118990 0.638131 0.421466 0.138225
H7    H     H_    0.061757 0.744779 0.359507 0.224021
H8    H     H_    0.070673 0.762741 0.410729 0.215452
H9    H     H_    0.205936 0.740599 0.406329 0.259885
H10   H     H_    0.176175 0.813683 0.375067 0.274355
H11   H     H_    0.196560 0.725422 0.354494 0.272815
H12   H     H_    0.608311 0.112636 0.622565 0.165359
H13   H     H_    0.429774 0.761019 0.213806 0.122280
H14   H     H_    0.668148 0.105948 0.580874 0.138509
H15   H     H_    0.703857 0.055438 0.664407 0.209759
H16   H     H_    0.763718 0.048788 0.623021 0.221882
H17   H     H_    0.759335 0.185875 0.615677 0.264719
H18   H     H_    0.794791 0.157336 0.662137 0.270923
H19   H     H_    0.702474 0.190864 0.658658 0.275840
H20   H     H_    0.391212 0.112289 0.377179 0.165666
H21   H     H_    0.332202 0.105803 0.419217 0.138608
H22   H     H_    0.294819 0.054983 0.335977 0.210326
H23   H     H_    0.235812 0.048510 0.377719 0.221770
H24   H     H_    0.556739 0.254126 0.757940 0.153429
H25   H     H_    0.240421 0.185656 0.384846 0.264043
H26   H     H_    0.203870 0.156937 0.338678 0.272433
H27   H     H_    0.296269 0.190403 0.341478 0.275615
H28   H     H_    0.893003 0.622721 0.629859 0.173274
H29   H     H_    0.887399 0.643394 0.578398 0.139410
H30   H     H_    0.946626 0.746035 0.641738 0.220480
H31   H     H_    0.942077 0.765609 0.590488 0.217112
H32   H     H_    0.805716 0.749427 0.592110 0.260212
H33   H     H_    0.836561 0.820513 0.624290 0.272688
H34   H     H_    0.810876 0.732894 0.643996 0.273628
H35   H     H_    0.775952 0.584755 0.198933 0.118924
H36   H     H_    0.886952 0.381696 0.369579 0.178668
H37   H     H_    0.879269 0.365611 0.421388 0.136979
H38   H     H_    0.936007 0.254286 0.361910 0.230256
H39   H     H_    0.924554 0.239640 0.413249 0.214830
H40   H     H_    0.790166 0.263376 0.406720 0.259766
H41   H     H_    0.819723 0.188723 0.376487 0.273997
H42   H     H_    0.801610 0.276630 0.354873 0.273181
H43   H     H_    0.890593 0.379211 0.128787 0.182123
H44   H     H_    0.866683 0.372781 0.077784 0.136020
H45   H     H_    0.762992 0.425281 0.142003 0.228003
H46   H     H_    0.242521 0.433696 0.781069 0.124142
H47   H     H_    0.741139 0.411401 0.091545 0.214288
H48   H     H_    0.772187 0.277981 0.098401 0.258765
H49   H     H_    0.700219 0.305739 0.130813 0.276468
H50   H     H_    0.791166 0.292487 0.149561 0.271408
H51   H     H_    0.128182 0.400319 0.870897 0.167652
H52   H     H_    0.150453 0.397572 0.922250 0.140665
H53   H     H_    0.247260 0.459071 0.857058 0.215898
H54   H     H_    0.268298 0.461604 0.908217 0.220845
H55   H     H_    0.262191 0.324445 0.910899 0.260371
H56   H     H_    0.329860 0.356669 0.877172 0.266904
H57   H     H_    0.572296 0.237118 0.210906 0.117532
H58   H     H_    0.243871 0.322526 0.859119 0.276851
H59   H     H_    0.657857 0.959370 0.113909 0.167884
H60   H     H_    0.669755 0.897573 0.073475 0.133330
H61   H     H_    0.657829 0.853375 0.159307 0.249495
H62   H     H_    0.671943 0.792028 0.119077 0.224878
H63   H     H_    0.790133 0.855066 0.104113 0.259028
H64   H     H_    0.788251 0.819686 0.153129 0.274931
H65   H     H_    0.775467 0.916056 0.144867 0.269518
H66   H     H_    0.574353 0.134256 0.884818 0.143189
H67   H     H_    0.539351 0.194172 0.922413 0.146302
H68   H     H_    0.419336 0.770955 0.797149 0.110157
H69   H     H_    0.505168 0.201304 0.834856 0.205086
H70   H     H_    0.467916 0.261614 0.871343 0.230455
H71   H     H_    0.595858 0.301744 0.888432 0.266148
H72   H     H_    0.572907 0.319867 0.838427 0.265527
H73   H     H_    0.630713 0.243417 0.850151 0.275303
H74   H     H_    0.111071 0.620875 0.130076 0.183180
H75   H     H_    0.128873 0.629135 0.078482 0.135171
H76   H     H_    0.240862 0.575984 0.138598 0.233538
H77   H     H_    0.256321 0.592738 0.087778 0.213301
H78   H     H_    0.224832 0.725054 0.097295 0.259367
H79   H     H_    0.739184 0.069729 0.286013 0.123389
H80   H     H_    0.300054 0.696930 0.127648 0.273958
H81   H     H_    0.210724 0.708136 0.148659 0.272069
H82   H     H_    0.869203 0.599521 0.870019 0.167935
H83   H     H_    0.852198 0.603877 0.921851 0.140330
H84   H     H_    0.748741 0.540453 0.860077 0.222748
H85   H     H_    0.732949 0.539788 0.911715 0.219403
H86   H     H_    0.737987 0.676367 0.913195 0.259697
H87   H     H_    0.668593 0.643548 0.880480 0.268917
H88   H     H_    0.753481 0.677707 0.861183 0.279238
H89   H     H_    0.348517 0.057873 0.118247 0.171451
H90   H     H_    0.271025 0.919511 0.702198 0.112995
H91   H     H_    0.336316 0.119819 0.077951 0.128119
H92   H     H_    0.369719 0.168422 0.161908 0.234898
H93   H     H_    0.347200 0.225974 0.121235 0.214226
H94   H     H_    0.223858 0.165828 0.116887 0.257059
H95   H     H_    0.239705 0.207936 0.163587 0.269588
H96   H     H_    0.246938 0.110237 0.158772 0.278335
H97   H     H_    0.454806 0.830808 0.874894 0.132795
H98   H     H_    0.462619 0.822856 0.926841 0.149899
H99   H     H_    0.538353 0.736470 0.862980 0.202024
H100  H     H_    0.586101 0.749005 0.908077 0.243392
H101  H     H_    0.915910 0.724766 0.300556 0.119722
H102  H     H_    0.488976 0.692738 0.945551 0.271477
H103  H     H_    0.510464 0.633392 0.905301 0.262537
H104  H     H_    0.429185 0.689254 0.903890 0.270412
H105  H     H_    0.757485 0.432884 0.217688 0.123875
H106  H     H_    0.069034 0.259459 0.715144 0.117005
H107  H     H_    0.263146 0.928037 0.288903 0.114492
H108  H     H_    0.753318 0.056844 0.740881 0.148324
H109  H     H_    0.057506 0.246693 0.260498 0.147337
H110  H     H_    0.933415 0.743728 0.718723 0.123862
H111  H     H_    0.737549 0.928928 0.712250 0.113239
H112  H     H_    0.246843 0.056875 0.259879 0.149690
H113  H     H_    0.942768 0.246155 0.740961 0.148561
H114  H     H_    0.067344 0.742840 0.282351 0.123845
H115  H     H_    0.259450 0.068361 0.715778 0.123189
H116  H     H_    0.430620 0.240716 0.784446 0.110839
H117  H     H_    0.728596 0.919147 0.297640 0.114686
H118  H     H_    0.083557 0.725320 0.699444 0.118189
H119  H     H_    0.929945 0.260429 0.285882 0.117989
H120  H     H_    0.072162 0.832466 0.658039 0.122786
H121  H     H_    0.951830 0.142680 0.316417 0.130220
H122  H     H_    0.140532 0.045224 0.687029 0.129602
H123  H     H_    0.834388 0.928989 0.340183 0.123542
H124  H     H_    0.974893 0.118799 0.742713 0.152432
H125  H     H_    0.045928 0.860608 0.312855 0.128046
H126  H     H_    0.856782 0.953249 0.684338 0.131116
H127  H     H_    0.580635 0.770997 0.202394 0.119556
H128  H     H_    0.119631 0.024656 0.260117 0.151979
H129  H     H_    0.025205 0.119236 0.260342 0.150300
H130  H     H_    0.955352 0.862261 0.689188 0.129300
H131  H     H_    0.144474 0.951583 0.317694 0.131665
H132  H     H_    0.880392 0.024409 0.742518 0.153300
H133  H     H_    0.927260 0.831835 0.341949 0.123918
H134  H     H_    0.046311 0.140745 0.685942 0.130584
H135  H     H_    0.857287 0.047493 0.315949 0.128836
H136  H     H_    0.165157 0.929469 0.659681 0.123369
H137  H     H_    0.549356 0.355761 0.181596 0.135013
H138  H     H_    0.746227 0.443209 0.758539 0.147241
H139  H     H_    0.431074 0.662705 0.837553 0.139933
H140  H     H_    0.669318 0.573767 0.157165 0.126060
H141  H     H_    0.362020 0.457432 0.808874 0.130597
H142  H     H_    0.451467 0.643268 0.183419 0.129871
H143  H     H_    0.524699 0.381279 0.754708 0.153691
H144  H     H_    0.380510 0.474667 0.238795 0.149965
H145  H     H_    0.641348 0.545086 0.812794 0.132131
H146  H     H_    0.545077 0.638219 0.810966 0.129253
H147  H     H_    0.474784 0.379955 0.238041 0.150328
H148  H     H_    0.619182 0.475636 0.755118 0.151796
H149  H     H_    0.239074 0.570281 0.213995 0.117920
H150  H     H_    0.356137 0.548746 0.182927 0.130942
H151  H     H_    0.454476 0.360493 0.812280 0.135581
H152  H     H_    0.571851 0.666416 0.159008 0.129477
H153  H     H_    0.333417 0.570911 0.840175 0.122358
H154  H     H_    0.640371 0.454257 0.186508 0.129413
H155  H     H_    0.684693 0.003316 0.535372 0.176657
H156  H     H_    0.315292 0.002961 0.464630 0.176693
H157  H     H_    0.002466 0.685079 0.535145 0.176200
H158  H     H_    0.994031 0.315604 0.464927 0.176559
H159  H     H_    0.315380 0.999976 0.534939 0.178297
H160  H     H_    0.568014 0.758110 0.783189 0.121040
H161  H     H_    0.684611 0.000246 0.465062 0.178282
H162  H     H_    0.997762 0.315514 0.535194 0.176862
H163  H     H_    0.005901 0.685003 0.464854 0.175900
H164  H     H_    0.183627 0.519343 0.035185 0.176765
H165  H     H_    0.816034 0.484464 0.964649 0.176822
H166  H     H_    0.423934 0.169808 0.034473 0.174844
H167  H     H_    0.580828 0.834459 0.965357 0.179740
H168  H     H_    0.816331 0.481110 0.034910 0.176622
H169  H     H_    0.183957 0.515738 0.964911 0.178089
H170  H     H_    0.581570 0.835380 0.035361 0.176287
H171  H     H_    0.442280 0.252514 0.238355 0.146050
H172  H     H_    0.427300 0.170602 0.964135 0.179782
H173  H     H_    0.354091 0.907308 0.644501 0.162870
H174  H     H_    0.409975 0.874734 0.605586 0.142687
H175  H     H_    0.245214 0.908235 0.600958 0.225739
H176  H     H_    0.300826 0.878468 0.560843 0.222117
H177  H     H_    0.330240 0.763100 0.594596 0.262062
H178  H     H_    0.232763 0.775328 0.591692 0.267919
H179  H     H_    0.279661 0.791782 0.636983 0.278767
H180  H     H_    0.646197 0.907493 0.355525 0.162770
H181  H     H_    0.590076 0.874867 0.394330 0.142822
H182  H     H_    0.253109 0.442603 0.239514 0.146339
H183  H     H_    0.754824 0.908213 0.399203 0.225500
H184  H     H_    0.699001 0.878578 0.439269 0.222310
H185  H     H_    0.669620 0.763215 0.405558 0.262114
H186  H     H_    0.767087 0.775292 0.408598 0.267652
H187  H     H_    0.720445 0.791763 0.363229 0.279166
H188  H     H_    0.108099 0.378080 0.630257 0.175074
H189  H     H_    0.114632 0.360361 0.578547 0.138283
H190  H     H_    0.055755 0.253025 0.639591 0.227364
H191  H     H_    0.063236 0.236496 0.588178 0.216597
H192  H     H_    0.198816 0.254728 0.592023 0.260074
O1    O     O_3   0.000000 0.500000 0.750000 -0.494142
O2    O     O_R   0.060740 0.500000 0.337440 -0.650513
O3    O     O_R   0.500000 0.939260 0.662560 -0.652563
O4    O     O_R   0.500000 0.060740 0.337440 -0.649010
O5    O     O_R   0.560740 0.000000 0.162560 -0.645404
O6    O     O_R   0.439260 1.000000 0.837440 -0.631390
O7    O     O_R   0.000000 0.560740 0.162560 -0.653702
O8    O     O_R   0.000000 0.439260 0.837440 -0.646034
O9    O     O_R   0.439260 0.000000 0.162560 -0.654521
O10   O     O_R   0.560740 1.000000 0.837440 -0.629598
O11   O     O_R   0.000000 0.439260 0.162560 -0.652610
O12   O     O_3   0.000000 0.500000 0.250000 -0.491313
O13   O     O_R   0.000000 0.560740 0.837440 -0.645993
O14   O     O_R   0.853850 0.585450 0.727070 -0.647819
O15   O     O_R   0.146150 0.414550 0.272930 -0.640538
O16   O     O_R   0.414550 0.853850 0.727070 -0.649224
O17   O     O_R   0.585450 0.146150 0.272930 -0.636688
O18   O     O_R   0.146150 0.414550 0.727070 -0.644606
O19   O     O_R   0.853850 0.585450 0.272930 -0.633613
O20   O     O_R   0.585450 0.146150 0.727070 -0.651719
O21   O     O_R   0.414550 0.853850 0.272930 -0.631254
O22   O     O_R   0.853850 0.414550 0.272930 -0.643945
O23   O     O_3   0.500000 0.000000 0.750000 -0.497240
O24   O     O_R   0.146150 0.585450 0.727070 -0.635176
O25   O     O_R   0.414550 0.146150 0.272930 -0.646105
O26   O     O_R   0.585450 0.853850 0.727070 -0.634694
O27   O     O_R   0.146150 0.585450 0.272930 -0.647015
O28   O     O_R   0.853850 0.414550 0.727070 -0.642215
O29   O     O_R   0.585450 0.853850 0.272930 -0.644525
O30   O     O_R   0.414550 0.146150 0.727070 -0.641206
O31   O     O_R   0.353850 0.085450 0.227070 -0.653161
O32   O     O_R   0.646150 0.914550 0.772930 -0.633355
O33   O     O_R   0.914550 0.353850 0.227070 -0.648092
O34   O     O_3   0.500000 0.000000 0.250000 -0.489687
O35   O     O_R   0.085450 0.646150 0.772930 -0.632700
O36   O     O_R   0.646150 0.914550 0.227070 -0.646760
O37   O     O_R   0.353850 0.085450 0.772930 -0.629562
O38   O     O_R   0.085450 0.646150 0.227070 -0.645395
O39   O     O_R   0.914550 0.353850 0.772930 -0.640006
O40   O     O_R   0.353850 0.914550 0.772930 -0.635991
O41   O     O_R   0.646150 0.085450 0.227070 -0.640464
O42   O     O_R   0.914550 0.646150 0.772930 -0.643057
O43   O     O_R   0.085450 0.353850 0.227070 -0.643717
O44   O     O_R   0.646150 0.085450 0.772930 -0.646352
O45   O     O_R   0.060740 0.500000 0.662560 -0.649763
O46   O     O_R   0.353850 0.914550 0.227070 -0.644570
O47   O     O_R   0.085450 0.353850 0.772930 -0.646369
O48   O     O_R   0.914550 0.646150 0.227070 -0.637784
O49   O     O_3   0.368642 0.983879 0.601557 -0.658347
O50   O     O_3   0.631373 0.983987 0.398454 -0.658572
O51   O     O_3   0.008569 0.368653 0.602220 -0.647351
O52   O     O_3   0.012819 0.631409 0.397713 -0.650184
O53   O     O_3   0.631154 0.006887 0.602893 -0.644927
O54   O     O_3   0.368815 0.006644 0.397113 -0.645067
O55   O     O_3   0.992937 0.631830 0.602308 -0.648989
O56   O     O_R   0.939260 0.500000 0.337440 -0.651231
O57   O     O_3   0.985825 0.369155 0.397880 -0.648328
O58   O     O_3   0.870125 0.478527 0.102102 -0.651152
O59   O     O_3   0.131638 0.501519 0.897734 -0.645708
O60   O     O_3   0.569858 0.889602 0.102346 -0.648708
O61   O     O_3   0.462272 0.126032 0.897067 -0.634870
O62   O     O_3   0.129800 0.522565 0.102232 -0.649826
O63   O     O_3   0.868294 0.499039 0.897570 -0.645521
O64   O     O_3   0.440501 0.118783 0.102278 -0.649806
O65   O     O_3   0.548262 0.877785 0.897597 -0.633315
O66   O     O_R   0.500000 0.060740 0.662560 -0.648958
O67   O     O_R   0.500000 0.939260 0.337440 -0.652641
O68   O     O_R   0.939260 0.500000 0.662560 -0.649021
Zn1   Zn    Zn3+2 1.000000 0.586740 0.782740 0.972494
Zn2   Zn    Zn3+2 0.500000 0.913260 0.717260 0.961596
Zn3   Zn    Zn3+2 0.913260 0.500000 0.282740 0.969104
Zn4   Zn    Zn3+2 0.086740 0.500000 0.717260 0.968113
Zn5   Zn    Zn3+2 0.500000 0.913260 0.282740 0.966112
Zn6   Zn    Zn3+2 0.500000 0.086740 0.717260 0.957164
Zn7   Zn    Zn3+2 0.086740 0.500000 0.282740 0.965989
Zn8   Zn    Zn3+2 0.913260 0.500000 0.717260 0.964858
Zn9   Zn    Zn3+2 0.000000 0.413260 0.217260 0.962539
Zn10  Zn    Zn3+2 0.413260 0.000000 0.782740 0.978627
Zn11  Zn    Zn3+2 0.586740 0.000000 0.217260 0.959156
Zn12  Zn    Zn3+2 0.000000 0.413260 0.782740 0.968451
Zn13  Zn    Zn3+2 0.000000 0.586740 0.217260 0.965387
Zn14  Zn    Zn3+2 0.586740 0.000000 0.782740 0.974064
Zn15  Zn    Zn3+2 0.413260 0.000000 0.217260 0.950694
Zn16  Zn    Zn3+2 0.500000 0.086740 0.282740 0.962937

loop_
_geom_bond_atom_site_label_1
_geom_bond_atom_site_label_2
_ccdc_geom_bond_type
C225  C247  A    
O25   Zn16  S    
C191  C193  A    
C33   C208  S    
C126  C127  S    
C177  C191  A    
C221  C234  A    
C99   H125  S    
C117  H179  S    
C118  H180  S    
C106  C243  A    
C181  C187  A    
C17   O14   A    
C137  H32   S    
O27   Zn7   S    
O68   Zn8   S    
C32   O36   A    
C128  H12   S    
C122  H191  S    
O23   Zn2   S    
C63   C98   A    
C135  C199  A    
O22   Zn3   S    
C160  H86   S    
C59   C186  A    
C221  O59   S    
C39   C74   A    
O26   Zn2   S    
C7    C68   A    
C179  C208  A    
C161  H89   S    
C47   H24   S    
C50   C90   A    
C90   C195  A    
C77   H147  S    
C111  C248  A    
C151  H66   S    
C33   O30   A    
C226  O64   S    
C152  H69   S    
C76   H146  S    
C91   C100  A    
O35   Zn1   S    
C219  C232  A    
C36   C71   A    
C52   C192  A    
C23   O20   A    
C164  O65   S    
C125  O52   S    
O7    Zn13  S    
O1    Zn4   S    
C40   C169  A    
C141  H43   S    
C158  H82   S    
C147  H55   S    
C104  H121  S    
C14   O6    A    
C192  C195  A    
C38   C171  A    
C136  H31   S    
C116  H176  S    
C183  H158  S    
O37   Zn10  S    
O38   Zn13  S    
C94   C97   A    
C163  H95   S    
C65   H115  S    
C16   O13   A    
C219  C241  A    
C166  H103  S    
C224  C233  A    
O8    Zn12  S    
C156  H78   S    
C25   C199  S    
C79   C175  A    
C7    C223  A    
C134  O55   S    
C144  H52   S    
C172  H157  S    
C138  H37   S    
C93   H132  S    
O34   Zn15  S    
C127  H10   S    
C12   O5    A    
C154  C155  S    
C72   C84   A    
C54   C89   A    
C130  H19   S    
C137  H34   S    
C159  H85   S    
C106  C239  A    
C67   C177  A    
C158  C159  S    
C43   H182  S    
C86   H139  S    
C63   H113  S    
O41   Zn11  S    
C50   H57   S    
C42   C167  A    
O43   Zn9   S    
C107  C240  A    
C82   H143  S    
O23   Zn10  S    
O12   Zn9   S    
C54   H101  S    
C150  H64   S    
C16   O8    A    
C134  H29   S    
C45   C81   A    
C31   O28   A    
C144  C145  S    
C46   H169  S    
C139  C140  S    
C51   H68   S    
C160  H88   S    
C5    C46   A    
C90   C174  A    
C15   O11   A    
O6    Zn10  S    
C41   C76   A    
C132  H22   S    
C161  H91   S    
C189  C196  A    
C218  O55   S    
C18   C201  S    
C21   C196  S    
C146  C200  A    
C60   C95   A    
C13   C248  A    
C164  H98   S    
C155  C156  S    
C222  O60   S    
C42   H171  S    
C126  H8    S    
C165  H100  S    
C109  C110  A    
C220  O58   S    
C3    C228  A    
C73   C83   A    
C11   O67   A    
C143  H50   S    
C6    C222  A    
C227  H163  S    
C110  C247  A    
O47   Zn12  S    
C123  H192  S    
C63   C181  A    
C75   H150  S    
O12   Zn7   S    
C6    C111  A    
C118  O50   S    
C22   C197  S    
C101  C173  A    
O10   Zn14  S    
C128  C129  S    
C10   O3    A    
C61   C96   A    
C67   C103  A    
C70   H153  S    
C115  H174  S    
C123  H3    S    
C159  H84   S    
O4    Zn16  S    
C225  C234  A    
C55   C189  A    
C49   C84   A    
C172  C227  A    
C175  C210  A    
C5    C110  A    
C115  C116  S    
C115  O49   S    
C184  C185  A    
C121  H189  S    
C167  C202  A    
C130  H17   S    
C21   O18   A    
C64   C99   A    
O18   Zn4   S    
C24   C57   A    
C108  C241  A    
C151  O61   S    
C107  C108  A    
C215  C237  A    
C111  C114  A    
C129  H16   S    
C213  C231  A    
C101  C196  A    
C140  H41   S    
O13   Zn1   S    
C83   H140  S    
C151  H67   S    
C69   H119  S    
C211  C242  A    
C3    C24   A    
O20   Zn6   S    
C145  H53   S    
C148  H59   S    
O19   Zn3   S    
C66   H117  S    
C149  H62   S    
C45   C135  A    
C133  H25   S    
C187  C198  A    
C220  C233  A    
C18   O15   A    
C81   H142  S    
C1    C237  A    
C78   H144  S    
C217  O54   S    
C11   O4    A    
C139  H38   S    
O3    Zn2   S    
C177  C210  A    
C225  O63   S    
C72   H151  S    
C136  H30   S    
C91   H134  S    
C217  C230  A    
C62   C97   A    
O1    Zn8   S    
C45   H13   S    
C179  C189  A    
C17   O42   A    
C87   H135  S    
C41   H160  S    
C112  C194  A    
C19   O16   A    
C156  H80   S    
C162  H92   S    
C37   H116  S    
C172  C240  A    
C96   H126  S    
C39   H138  S    
C127  H11   S    
O45   Zn4   S    
C157  C201  A    
C171  C207  A    
C154  H74   S    
C144  O59   S    
C129  C130  S    
C224  C246  A    
C34   C70   A    
C61   C184  A    
C105  C237  A    
C54   C190  A    
C85   H137  S    
C58   C187  A    
C117  H178  S    
C213  C244  A    
C57   H170  S    
C76   C80   A    
C118  H181  S    
C136  C137  S    
C43   C157  A    
C162  H93   S    
C116  H175  S    
C226  C248  A    
C36   H105  S    
C79   C193  A    
C48   C83   A    
C181  C206  A    
C123  H4    S    
C169  C204  A    
C26   O22   A    
C173  C208  A    
C68   H172  S    
C125  H6    S    
C51   C79   A    
C25   O46   A    
C223  C236  A    
C140  H42   S    
O23   Zn14  S    
C58   H108  S    
C152  C153  S    
C190  C197  A    
C42   C77   A    
C92   H131  S    
C138  H36   S    
C52   H79   S    
C29   O32   A    
C152  H70   S    
C183  C241  A    
C128  O53   S    
C205  C243  A    
C40   H149  S    
C20   O41   A    
C112  H156  S    
C92   C99   A    
C53   H90   S    
C13   C68   A    
C21   O47   A    
C2    C35   A    
C216  C244  A    
C12   C235  S    
C120  H185  S    
C36   C174  A    
C60   C185  A    
C133  H27   S    
C119  H184  S    
C174  C209  A    
C98   H124  S    
C4    C109  A    
C214  C232  A    
C157  C167  A    
C9    O56   A    
C161  C162  S    
C69   C176  A    
O21   Zn5   S    
C77   C78   A    
C43   C78   A    
C158  H83   S    
C23   C198  S    
C165  C166  S    
C105  C106  A    
C9    C232  S    
C31   O39   A    
C32   O29   A    
C95   H130  S    
C164  C165  S    
O11   Zn9   S    
C58   C93   A    
C170  C206  A    
C212  C243  A    
C49   C101  A    
C178  C190  A    
C8    C231  S    
C41   C168  A    
C124  C198  A    
C13   H166  S    
C176  C209  A    
O5    Zn11  S    
C182  C186  A    
C166  H104  S    
C55   C91   A    
C34   C175  A    
C180  C188  A    
C50   C85   A    
C19   O40   A    
C4    C220  A    
C216  H162  S    
O34   Zn16  S    
C151  C152  S    
C127  H9    S    
C102  H123  S    
C59   C94   A    
C128  H14   S    
C217  C239  A    
C20   C195  S    
C141  O58   S    
C119  H183  S    
C97   H128  S    
C4    C35   A    
C137  H33   S    
C88   H136  S    
C184  C203  A    
C6    C57   A    
C74   C82   A    
C2    H165  S    
C51   C86   A    
C14   C236  S    
C145  C147  S    
C48   H35   S    
O46   Zn15  S    
C222  C235  A    
O33   Zn9   S    
C18   O43   A    
O9    Zn15  S    
C44   C80   A    
C71   H154  S    
C22   O48   A    
C148  H60   S    
O40   Zn10  S    
C131  H20   S    
C65   C179  A    
C121  O51   S    
C142  H47   S    
C213  O51   S    
C108  C245  A    
C153  H72   S    
C27   C210  S    
C186  C201  A    
C160  H87   S    
C94   H129  S    
C62   C182  A    
C34   H1    S    
C159  C160  S    
C16   C234  S    
C178  C207  A    
C238  C246  A    
C139  H39   S    
C49   H46   S    
C30   O38   A    
C89   H133  S    
C140  H40   S    
C53   C191  A    
C121  C122  S    
C22   O19   A    
C44   H2    S    
C120  H187  S    
C20   O17   A    
C125  C126  S    
C107  C244  A    
C165  H99   S    
C80   H145  S    
C105  C242  A    
C30   C204  S    
C143  H49   S    
C141  H44   S    
C162  C163  S    
C183  C216  A    
C146  C168  A    
C147  H56   S    
C211  C229  A    
C182  C202  A    
O34   Zn5   S    
C154  O62   S    
C65   C100  A    
C180  C204  A    
C119  C120  S    
O1    Zn12  S    
C215  O53   S    
O12   Zn3   S    
C115  H173  S    
C163  H96   S    
C56   H107  S    
C40   C75   A    
C28   C202  S    
C166  H102  S    
C14   O10   A    
O56   Zn3   S    
C149  C150  S    
O67   Zn5   S    
C144  H51   S    
C47   C124  A    
C60   H110  S    
C218  C240  A    
O28   Zn8   S    
C121  H188  S    
C135  C169  A    
C176  C192  A    
C138  C139  S    
O15   Zn7   S    
C87   C104  A    
C130  H18   S    
C100  H122  S    
C161  O64   S    
C9    O2    A    
C37   C72   A    
C142  C143  S    
O30   Zn6   S    
C205  H161  S    
C129  H15   S    
C7    C114  A    
O66   Zn6   S    
C219  O57   S    
O16   Zn2   S    
C48   C113  A    
C10   O66   A    
C5    C221  A    
C150  H63   S    
C29   C203  S    
C89   C102  A    
C134  H28   S    
C8    O45   A    
C66   C102  A    
C67   H118  S    
C95   C96   A    
C2    C247  A    
C132  H23   S    
O14   Zn8   S    
C113  C171  A    
C29   O26   A    
O48   Zn13  S    
C142  H45   S    
C149  H61   S    
C66   C178  A    
C138  O57   S    
C38   H127  S    
C224  O62   S    
C39   C170  A    
O1    Zn1   S    
C64   C180  A    
C143  H48   S    
C1    H155  S    
C227  C245  A    
C158  O63   S    
C116  C117  S    
C17   C200  S    
C228  O65   S    
C12   O9    A    
C47   C82   A    
C15   O7    A    
C118  C119  S    
C8    O68   A    
C71   C85   A    
O42   Zn1   S    
C214  O52   S    
C56   C188  A    
C132  C133  S    
C155  H77   S    
C164  H97   S    
C44   C146  A    
C64   H114  S    
C126  H7    S    
O17   Zn16  S    
C88   C103  A    
C214  C245  A    
C1    C205  A    
C150  H65   S    
C3    C114  A    
O34   Zn11  S    
O12   Zn13  S    
C154  H75   S    
C55   H106  S    
O39   Zn12  S    
C23   O44   A    
C84   H141  S    
C163  H94   S    
C117  H177  S    
C194  H159  S    
C148  C149  S    
C31   C206  S    
C153  H71   S    
C148  O60   S    
C75   C81   A    
C134  C136  S    
C155  H76   S    
C188  C199  A    
O23   Zn6   S    
C10   C229  S    
C226  C235  A    
C73   H152  S    
C33   O37   A    
C27   O35   A    
C212  C230  A    
C212  O50   S    
C131  H21   S    
O2    Zn7   S    
C112  C239  A    
C15   C233  S    
C24   H167  S    
C124  C170  A    
C223  O61   S    
C32   C207  S    
C125  H5    S    
O32   Zn14  S    
O44   Zn14  S    
C53   C88   A    
C156  H81   S    
C61   H111  S    
C109  C246  A    
C19   C193  S    
C11   C230  S    
O36   Zn11  S    
C131  O54   S    
C70   C86   A    
C122  H190  S    
C153  H73   S    
C145  H54   S    
C27   O24   A    
C69   C104  A    
C120  H186  S    
C35   H168  S    
C133  H26   S    
C194  C242  A    
O29   Zn5   S    
C215  C229  A    
C52   C87   A    
O31   Zn15  S    
O24   Zn4   S    
C168  C203  A    
C28   O31   A    
C28   O25   A    
C141  C142  S    
C26   O33   A    
C25   O21   A    
C26   C209  S    
C62   H112  S    
C46   C238  A    
C185  C200  A    
C131  C132  S    
C147  H58   S    
C218  C231  A    
C228  C236  A    
C37   C173  A    
C59   H109  S    
C56   C92   A    
C238  H164  S    
C30   O27   A    
C113  C197  A    
C103  H120  S    
C122  C123  S    
C74   H148  S    
C93   C98   A    
C211  O49   S    
C38   C73   A    
