data_mof_unit_25778.cif
_audit_creation_date              2012-12-10T17:10:27-0500
_audit_creation_method            fapswitch 2.2
_symmetry_space_group_name_H-M    P1
_symmetry_Int_Tables_number       1
_space_group_crystal_system       triclinic
_cell_length_a                    10.82906
_cell_length_b                    13.016968
_cell_length_c                    11.680992
_cell_angle_alpha                 99.158336
_cell_angle_beta                  94.403862
_cell_angle_gamma                 91.31645
_cell_volume                      1619.74462782

loop_
_atom_site_label
_atom_site_type_symbol
_atom_type_description
_atom_site_fract_x
_atom_site_fract_y
_atom_site_fract_z
_atom_type_partial_charge
C1    C     C_R   0.497825 0.299537 0.479462 0.892855
C2    C     C_R   0.502175 0.700463 0.520538 0.892854
C3    C     C_R   0.497789 0.812880 0.530810 -0.123923
C4    C     C_R   0.502211 0.187119 0.469190 -0.123922
C5    C     C_R   0.587209 0.028470 0.376797 -0.130444
C6    C     C_R   0.412791 0.971529 0.623203 -0.130444
C7    C     C_R   0.570084 0.134040 0.382945 -0.304514
C8    C     C_R   0.429916 0.865960 0.617054 -0.304513
C9    C     C_R   0.445406 0.133485 0.547799 0.344712
C10   C     C_R   0.554593 0.866515 0.452201 0.344712
C11   C     C_R   0.463879 0.026513 0.543049 0.048167
C12   C     C_R   0.536121 0.973487 0.456951 0.048167
C13   C     C_R   0.376665 0.404934 0.021841 0.327958
C14   C     C_R   0.623335 0.595066 0.978159 0.327958
C15   C     C_R   0.389887 0.414183 0.144789 -0.032231
C16   C     C_R   0.610113 0.585816 0.855211 -0.032231
C17   C     C_R   0.553811 0.539779 0.156875 0.096532
C18   C     C_R   0.446189 0.460221 0.843125 0.096532
C19   C     C_R   0.544928 0.534165 0.034093 -0.060745
C20   C     C_R   0.455072 0.465835 0.965907 -0.060745
C21   C     C_R   0.262532 0.495225 0.498836 0.911047
C22   C     C_R   0.737468 0.504775 0.501164 0.911048
C23   C     C_R   0.144846 0.687450 0.527189 -0.209213
C24   C     C_R   0.855154 0.312550 0.472811 -0.209214
C25   C     C_R   0.092178 0.783818 0.548430 -0.276298
C26   C     C_R   0.907822 0.216182 0.451571 -0.276297
C27   C     C_R   0.966112 0.791100 0.564354 0.411048
C28   C     C_R   0.033889 0.208899 0.435646 0.411048
C29   C     C_R   0.891719 0.698993 0.556572 0.415407
C30   C     C_R   0.108281 0.301007 0.443428 0.415407
C31   C     C_R   0.943689 0.599037 0.525358 -0.033811
C32   C     C_R   0.056311 0.400963 0.474642 -0.033811
C33   C     C_R   0.072690 0.593918 0.516391 -0.010934
C34   C     C_R   0.927310 0.406082 0.483609 -0.010934
C35   C     C_R   0.871736 0.504006 0.504322 -0.102591
C36   C     C_R   0.128264 0.495994 0.495678 -0.102591
Cu1   Cu    Cu3+1 0.509250 0.507730 0.615930 1.001339
Cu2   Cu    Cu3+1 0.490750 0.492270 0.384070 1.001339
H1    H     H_    0.243106 0.687521 0.517215 0.142831
H2    H     H_    0.756894 0.312479 0.482785 0.142831
H3    H     H_    0.150671 0.853341 0.553970 0.171614
H4    H     H_    0.849329 0.146659 0.446030 0.171614
H5    H     H_    0.386555 0.824840 0.678006 0.180394
H6    H     H_    0.613444 0.175160 0.321994 0.180394
H7    H     H_    0.641626 0.991231 0.309177 0.210905
H8    H     H_    0.358374 0.008769 0.690823 0.210904
H9    H     H_    0.377594 0.408636 0.789348 0.225603
H10   H     H_    0.622405 0.591364 0.210652 0.225603
H11   H     H_    0.669749 0.631899 0.811295 0.152213
H12   H     H_    0.330251 0.368101 0.188705 0.152213
N1    N     N_R   0.523180 0.519350 0.790130 -0.223779
N2    N     N_R   0.476820 0.480650 0.209870 -0.223779
O1    O     O_R   0.506570 0.354460 0.582000 -0.548994
O2    O     O_R   0.493430 0.645540 0.418000 -0.548993
O3    O     O_R   0.490940 0.341410 0.386200 -0.584385
O4    O     O_R   0.509060 0.658590 0.613800 -0.584385
O5    O     O_R   0.327470 0.506520 0.597900 -0.586849
O6    O     O_R   0.672530 0.493480 0.402100 -0.586849
O7    O     O_R   0.311840 0.493460 0.402100 -0.568620
O8    O     O_R   0.688160 0.506540 0.597900 -0.568620
O9    O     O_3   0.086793 0.112847 0.413017 -0.728988
H13   H     H_    0.022390 0.057051 0.411248 0.335671
O10   O     O_3   0.913207 0.887153 0.586984 -0.728988
H14   H     H_    0.977610 0.942949 0.588754 0.335670
O11   O     O_3   0.288548 0.337535 0.955837 -0.698735
H15   H     H_    0.242078 0.301141 0.008382 0.330156
O12   O     O_3   0.711452 0.662465 0.044163 -0.698735
H16   H     H_    0.757922 0.698859 0.991618 0.330156
O13   O     O_3   0.769901 0.705255 0.583089 -0.742284
H17   H     H_    0.752473 0.777001 0.619004 0.364907
O14   O     O_3   0.230099 0.294745 0.416911 -0.742284
H18   H     H_    0.247527 0.222999 0.380995 0.364907
Cl1   Cl    Cl    0.653536 0.800854 0.352372 -0.596022
Cl2   Cl    Cl    0.346464 0.199146 0.647628 -0.596022

loop_
_geom_bond_atom_site_label_1
_geom_bond_atom_site_label_2
_ccdc_geom_bond_type
C27   C29   A    
C19   C20   A    
C17   H10   S    
C18   H9    S    
C30   O14   S    
C21   C36   S    
C13   O11   S    
C22   C35   S    
C32   C36   A    
C24   C26   A    
C21   O7    A    
C22   O8    A    
Cu1   N1    S    
C10   Cl1   S    
Cu2   N2    S    
C33   C36   A    
C34   C35   A    
C15   H12   S    
C1    O1    A    
C17   C19   A    
Cu2   O6    S    
Cu1   O4    S    
Cu2   O3    S    
C23   C33   A    
C14   O12   S    
C8    H5    S    
Cu1   O1    S    
C28   O9    S    
O13   H17   S    
C4    C7    A    
C10   C12   A    
C17   N2    A    
C18   N1    A    
C29   O13   S    
O12   H16   S    
C16   H11   S    
C5    C12   A    
C3    C8    A    
C2    O2    A    
C25   H3    S    
C6    C11   A    
C5    C7    A    
C6    C8    A    
C7    H6    S    
C5    H7    S    
C24   C34   A    
O10   H14   S    
C32   C34   A    
C21   O5    A    
Cu1   Cu2   S    
Cu2   O2    S    
C31   C33   A    
C15   N2    A    
C9    C11   A    
C27   O10   S    
C13   C15   A    
C14   C16   A    
C9    Cl2   S    
C26   H4    S    
C16   N1    A    
C6    H8    S    
C13   C20   A    
C14   C19   A    
C22   O6    A    
C11   C12   A    
C25   C27   A    
C26   C28   A    
C1    C4    S    
C28   C30   A    
C2    C3    S    
C1    O3    A    
O14   H18   S    
C29   C31   A    
C3    C10   A    
C2    O4    A    
C30   C32   A    
C23   H1    S    
C31   C35   A    
C24   H2    S    
C18   C20   A    
C23   C25   A    
O9    H13   S    
Cu1   O8    S    
Cu2   O7    S    
O11   H15   S    
C4    C9    A    
Cu1   O5    S    
