data_mof_unit_51742.cif
_audit_creation_date              2012-12-10T17:51:24-0500
_audit_creation_method            fapswitch 2.2
_symmetry_space_group_name_H-M    P1
_symmetry_Int_Tables_number       1
_space_group_crystal_system       triclinic
_cell_length_a                    9.927218
_cell_length_b                    10.629673
_cell_length_c                    16.787767
_cell_angle_alpha                 91.227027
_cell_angle_beta                  85.379922
_cell_angle_gamma                 92.056044
_cell_volume                      1764.29888077

loop_
_atom_site_label
_atom_site_type_symbol
_atom_type_description
_atom_site_fract_x
_atom_site_fract_y
_atom_site_fract_z
_atom_type_partial_charge
C1    C     C_R   0.504029 0.739335 0.494386 0.987382
C2    C     C_R   0.345020 0.531796 0.786864 -0.152785
C3    C     C_R   0.426770 0.540943 0.136679 -0.157738
C4    C     C_R   0.414897 0.497472 0.214453 -0.024784
C5    C     C_R   0.657224 0.535865 0.220667 -0.102903
C6    C     C_R   0.669828 0.578264 0.142327 -0.036167
C7    C     C_R   0.552044 0.583419 0.100890 0.068326
C8    C     C_2   0.466451 0.664759 0.979308 -0.156944
C9    C     C_2   0.561870 0.606180 0.015401 -0.131609
C10   C     C_R   0.530036 0.503775 0.258984 -0.124198
C11   C     C_R   0.595142 0.886701 0.348661 0.318854
C12   C     C_R   0.481409 0.499748 0.653910 0.969061
C13   C     C_R   0.592458 0.952384 0.277558 -0.189036
C14   C     C_R   0.546852 0.074503 0.278940 0.430593
C15   C     C_R   0.511575 0.133657 0.351948 -0.127717
C16   C     C_R   0.511825 0.067671 0.424265 -0.054243
C17   C     C_R   0.539635 0.939541 0.422189 -0.027180
C18   C     C_R   0.514646 0.872889 0.494509 -0.219698
C19   C     C_R   0.490794 0.934464 0.568681 0.306364
C20   C     C_R   0.482410 0.063905 0.571087 0.350804
C21   C     C_R   0.491185 0.128341 0.499096 -0.209690
C22   C     C_R   0.853111 0.674387 0.596815 -0.109769
C23   C     C_R   0.497073 0.260914 0.502562 0.963006
C24   C     C_R   0.918996 0.759568 0.645543 -0.172450
C25   C     C_R   0.057718 0.756499 0.648512 0.444556
C26   C     C_R   0.131534 0.669371 0.601469 -0.183347
C27   C     C_R   0.068505 0.584426 0.549130 0.081052
C28   C     C_R   0.924279 0.585542 0.548092 0.112100
C29   C     C_R   0.932812 0.419729 0.452548 0.435083
C30   C     C_R   0.075413 0.419552 0.453169 -0.120085
C31   C     C_R   0.518255 0.495735 0.346501 0.890771
C32   C     C_R   0.471954 0.524940 0.741282 -0.157831
C33   C     C_R   0.589933 0.566432 0.776580 0.380354
C34   C     C_R   0.580764 0.637290 0.846122 -0.122531
C35   C     C_R   0.458470 0.642954 0.892897 0.051560
C36   C     C_R   0.338366 0.592034 0.863289 -0.040286
H1    H     H_    0.633851 0.911273 0.221643 0.210301
H2    H     H_    0.484876 0.231263 0.351643 0.169432
H3    H     H_    0.745892 0.677386 0.601828 0.232842
H4    H     H_    0.860914 0.825618 0.683037 0.215373
H5    H     H_    0.236760 0.669090 0.609256 0.231590
H6    H     H_    0.132316 0.353430 0.415403 0.209422
H7    H     H_    0.746699 0.535159 0.253546 0.241898
H8    H     H_    0.641784 0.557324 0.980740 0.186393
H9    H     H_    0.339134 0.534045 0.101977 0.175583
H10   H     H_    0.384039 0.708368 0.014890 0.199694
H11   H     H_    0.673658 0.673068 0.869538 0.205636
N1    N     N_R   0.857140 0.501200 0.500750 -0.133660
N2    N     N_R   0.142740 0.501280 0.500770 -0.130293
O1    O     O_R   0.385310 0.683220 0.500000 -0.635676
O2    O     O_R   0.614640 0.683250 0.500010 -0.598311
O3    O     O_R   0.371780 0.500010 0.615800 -0.633206
O4    O     O_R   0.601110 0.500030 0.615800 -0.587973
O5    O     O_R   0.385360 0.316750 0.499990 -0.600333
O6    O     O_R   0.614690 0.316780 0.500000 -0.558813
O7    O     O_R   0.398890 0.499970 0.384200 -0.621590
O8    O     O_R   0.628220 0.499990 0.384200 -0.549315
Zn1   Zn    Zn3+2 0.346870 0.499980 0.499990 1.009445
Zn2   Zn    Zn3+2 0.653130 0.500020 0.500010 1.071547
Cl1   Cl    Cl    0.751671 0.512209 0.746062 -0.578757
C37   C     C_2   0.806303 0.620339 0.107178 0.937442
O9    O     O_2   0.818264 0.695630 0.052771 -0.570155
O10   O     O_R   0.922046 0.575954 0.138012 -0.757021
H12   H     H_    0.008717 0.611926 0.109870 0.379221
Cl2   Cl    Cl    0.479983 0.849896 0.658977 -0.543143
Cl3   Cl    Cl    0.708545 0.764072 0.344576 -0.605553
Cl4   Cl    Cl    0.547809 0.158307 0.189934 -0.511609
Cl5   Cl    Cl    0.460555 0.145470 0.664093 -0.414465
Cl6   Cl    Cl    0.855771 0.314756 0.386622 -0.549646
C38   C     C_2   0.283450 0.438661 0.244336 0.971955
O11   O     O_2   0.280387 0.340059 0.280710 -0.607747
O12   O     O_R   0.162926 0.493142 0.227854 -0.769981
H13   H     H_    0.079993 0.443839 0.250863 0.384219
Cl7   Cl    Cl    0.138532 0.859310 0.714100 -0.412438
C39   C     C_2   0.209475 0.592439 0.914907 0.964527
O13   O     O_2   0.168035 0.691456 0.944195 -0.551285
O14   O     O_R   0.135904 0.479667 0.930013 -0.747861
H14   H     H_    0.049851 0.492331 0.965630 0.369543
C40   C     C_2   0.222247 0.467571 0.758073 1.016926
O15   O     O_2   0.228419 0.360464 0.730197 -0.518248
O16   O     O_R   0.099579 0.528528 0.763619 -0.754093
H15   H     H_    0.025396 0.475046 0.740419 0.389306

loop_
_geom_bond_atom_site_label_1
_geom_bond_atom_site_label_2
_ccdc_geom_bond_type
C8    C9    D    
C16   C21   A    
O6    Zn2   S    
C35   C36   A    
C4    C38   S    
O16   H15   S    
O4    Zn2   S    
O14   H14   S    
C26   C27   A    
N1    Zn2   S    
C6    C37   S    
C25   Cl7   S    
C3    C7    A    
C5    C6    A    
O8    Zn2   S    
C15   C16   A    
C2    C32   A    
C34   C35   A    
C37   O10   S    
C2    C40   S    
C10   C31   S    
C28   N1    A    
C19   C20   A    
C16   C17   A    
C14   Cl4   S    
C38   O11   D    
C31   O7    A    
C1    O1    A    
C13   H1    S    
C12   O4    A    
C11   Cl3   S    
C5    H7    S    
C22   C28   A    
C13   C14   A    
C12   C32   S    
C12   O3    A    
C33   C34   A    
C29   Cl6   S    
C29   N1    A    
O1    Zn1   S    
C24   C25   A    
C40   O16   S    
C18   C19   A    
C25   C26   A    
C3    H9    S    
N2    Zn1   S    
C40   O15   D    
C8    C35   S    
C39   O13   D    
C15   H2    S    
C29   C30   A    
C36   C39   S    
C39   O14   S    
C17   C18   A    
C1    C18   S    
C1    O2    A    
O3    Zn1   S    
C30   N2    A    
C33   Cl1   S    
C21   C23   S    
C22   C24   A    
O2    Zn2   S    
C4    C10   A    
C3    C4    A    
C23   O5    A    
O5    Zn1   S    
C2    C36   A    
C7    C9    S    
C11   C17   A    
C9    H8    S    
C20   Cl5   S    
O12   H13   S    
C23   O6    A    
C6    C7    A    
C32   C33   A    
C31   O8    A    
C5    C10   A    
C11   C13   A    
C22   H3    S    
C24   H4    S    
O7    Zn1   S    
C19   Cl2   S    
C37   O9    D    
C8    H10   S    
O10   H12   S    
C20   C21   A    
C27   C28   A    
C14   C15   A    
C30   H6    S    
C38   O12   S    
C34   H11   S    
C27   N2    A    
C26   H5    S    
