data_mof_unit_30021.cif
_audit_creation_date              2013-03-05T15:51:35-0500
_audit_creation_method            fapswitch 2.2
_symmetry_space_group_name_H-M    P1
_symmetry_Int_Tables_number       1
_space_group_crystal_system       triclinic
_cell_length_a                    8.56662
_cell_length_b                    17.558889
_cell_length_c                    18.794973
_cell_angle_alpha                 96.656899
_cell_angle_beta                  93.329258
_cell_angle_gamma                 96.626101
_cell_volume                      2782.004703

loop_
_atom_site_label
_atom_site_type_symbol
_atom_site_description
_atom_site_fract_x
_atom_site_fract_y
_atom_site_fract_z
_atom_type_partial_charge
P1    P     P_3+3 0.041170 0.434790 0.339740 0.455464
O1    O     O_2   0.870670 0.457200 0.328780 -0.382559
O2    O     O_3   0.123190 0.458470 0.416160 -0.364816
O3    O     O_3   0.645490 0.595990 0.371560 -0.371496
O4    O     O_2   0.752125 0.539044 0.253440 -0.380929
O5    O     O_3   0.005799 0.333759 0.322680 -0.592498
O6    O     O_3   0.647272 0.662873 0.234043 -0.533532
C1    C     C_3   0.599741 0.789869 0.206585 -0.665226
H1    H     H_    0.722434 0.819182 0.216364 0.197018
P2    P     P_3+3 0.658290 0.675180 0.554960 0.494177
P3    P     P_3+3 0.108073 0.737072 0.411105 0.516856
O7    O     O_2   0.831760 0.686240 0.533840 -0.333513
O8    O     O_3   0.064740 0.635370 0.406810 -0.350525
O9    O     O_2   0.990710 0.772871 0.460471 -0.326008
O10   O     O_3   0.675379 0.703730 0.648961 -0.634772
O11   O     O_3   0.059824 0.765897 0.326790 -0.554925
C2    C     C_3   0.017093 0.700048 0.275806 0.323488
H2    H     H_    0.908513 0.668192 0.290659 0.196766
H3    H     H_    0.103851 0.658115 0.276593 0.046987
C3    C     C_3   0.989613 0.722797 0.198965 -0.435728
H4    H     H_    0.866423 0.731346 0.190111 0.178948
C4    C     C_3   0.251933 0.724509 0.695243 0.188365
C5    C     C_3   0.350485 0.725083 0.767768 -0.678011
H5    H     H_    0.418794 0.675264 0.762895 0.228568
Ba1   Ba    Ba6+2 0.848080 0.535720 0.465810 1.616092
C6    C     C_3   0.958744 0.302454 0.384331 0.263166
H6    H     H_    0.857168 0.329853 0.404523 0.107390
H7    H     H_    0.057284 0.311776 0.426706 0.138301
C7    C     C_3   0.907601 0.215436 0.365678 -0.672150
H8    H     H_    0.800186 0.205324 0.328379 0.229663
H9    H     H_    0.877177 0.189765 0.414782 0.186730
C8    C     C_3   0.759876 0.656485 0.687704 0.349913
H10   H     H_    0.847464 0.631238 0.654582 0.086453
C9    C     C_3   0.851699 0.705074 0.754073 -0.508315
H11   H     H_    0.917798 0.755586 0.735236 0.217373
H12   H     H_    0.935509 0.669725 0.778088 0.162733
P4    P     P_3+3 0.148540 0.565270 0.660270 0.555812
O12   O     O_2   0.319030 0.542820 0.671260 -0.366633
O13   O     O_3   0.066510 0.541590 0.583850 -0.336091
O14   O     O_3   0.544220 0.404070 0.628440 -0.395252
O15   O     O_3   0.124891 0.664534 0.683663 -0.582867
P5    P     P_3+3 0.084986 0.264130 0.592389 0.443306
O16   O     O_3   0.618730 0.408150 0.464380 -0.402498
O17   O     O_3   0.124970 0.364690 0.593190 -0.396479
O18   O     O_2   0.204460 0.226802 0.545204 -0.380543
O19   O     O_3   0.136287 0.243626 0.678959 -0.520126
Ba2   Ba    Ba6+2 0.341750 0.464340 0.534200 1.574815
P6    P     P_3+3 0.608453 0.578184 0.276935 0.496442
C10   C     C_3   0.568115 0.727086 0.257775 0.424114
H13   H     H_    0.584474 0.761668 0.150010 0.266400
O20   O     O_3   0.570980 0.591910 0.535630 -0.362723
C11   C     C_3   0.500948 0.330134 0.308924 0.344876
H14   H     H_    0.575123 0.386487 0.325318 0.104109
C12   C     C_3   0.530477 0.300360 0.231207 -0.689004
H15   H     H_    0.472301 0.239975 0.217548 0.236626
H16   H     H_    0.476294 0.336141 0.193811 0.122567
P7    P     P_3+3 0.535001 0.310604 0.446138 0.445339
O21   O     O_2   0.357950 0.313790 0.466200 -0.356048
O22   O     O_3   0.534178 0.274800 0.354346 -0.573496
C13   C     C_3   0.043533 0.283278 0.726558 0.443123
H17   H     H_    0.071476 0.346673 0.726679 0.055689
H18   H     H_    0.916066 0.266312 0.710934 -0.017905
C14   C     C_3   0.075357 0.264230 0.803205 -0.339956
H19   H     H_    0.996621 0.295237 0.838426 0.120109
P8    P     P_3+3 0.573709 0.400470 0.720900 0.464243
C15   C     C_3   0.537028 0.254353 0.679390 0.327530
H20   H     H_    0.658150 0.263588 0.661460 0.019285
O23   O     O_2   0.451578 0.448073 0.756774 -0.341954
O24   O     O_3   0.519529 0.306295 0.740169 -0.544123
H21   H     H_    0.451320 0.261951 0.634973 0.175127
C16   C     C_3   0.503165 0.171608 0.697047 -0.651043
H22   H     H_    0.489203 0.131195 0.646420 0.195763
H23   H     H_    0.390866 0.164560 0.723622 0.215333
N1    N     N_R   0.185700 0.526343 0.951560 -0.014254
N2    N     N_R   0.237415 0.528699 0.020320 -0.020778
C17   C     C_2   0.305892 0.504130 0.292551 -0.434856
C18   C     C_3   0.435451 0.503196 0.241835 0.160210
C19   C     C_2   0.377023 0.498103 0.162561 -0.055798
C20   C     C_2   0.217845 0.489165 0.143757 -0.018570
C21   C     C_2   0.105429 0.479262 0.202363 -0.286150
C22   C     C_1   0.158456 0.477635 0.270292 0.307547
N3    N     N_R   0.013189 0.448163 0.041114 -0.069426
N4    N     N_R   0.960986 0.446071 0.972277 -0.079473
C23   C     C_R   0.046653 0.484458 0.925525 0.166917
C24   C     C_R   0.154120 0.488733 0.066678 0.134519
C25   C     C_R   0.085634 0.512374 0.796520 -0.269591
C26   C     C_R   0.031702 0.508487 0.723365 0.241806
C27   C     C_R   0.780877 0.440290 0.751647 0.281006
C28   C     C_R   0.835449 0.445793 0.824015 -0.262019
C29   C     C_R   0.989353 0.480545 0.847637 0.017520
C30   C     C_R   0.881097 0.468517 0.701251 -0.366512
H24   H     H_    0.979509 0.471511 0.188459 0.170626
H25   H     H_    0.203317 0.539925 0.813252 0.207678
H26   H     H_    0.756903 0.423248 0.861764 0.156645
H27   H     H_    0.345551 0.504070 0.348128 0.167519
C31   C     C_R   0.420923 0.724433 0.461884 -0.375577
C32   C     C_R   0.560842 0.747990 0.506713 0.223446
C33   C     C_R   0.606436 0.828636 0.526656 -0.246289
C34   C     C_R   0.511711 0.882760 0.501586 0.058328
C35   C     C_R   0.362363 0.856725 0.465474 -0.103327
C36   C     C_R   0.313886 0.776649 0.448161 0.121966
C37   C     C_R   0.577298 0.166622 0.495570 -0.132747
C38   C     C_R   0.633637 0.245620 0.499185 0.315687
C39   C     C_R   0.880681 0.223722 0.559174 0.201443
C40   C     C_R   0.824541 0.144894 0.557238 -0.166891
C41   C     C_R   0.672751 0.115827 0.525320 -0.008533
C42   C     C_1   0.617655 0.033607 0.519104 0.026390
C43   C     C_1   0.568467 0.965293 0.511758 0.088379
C44   C     C_R   0.783394 0.272889 0.531088 -0.547096
H28   H     H_    0.900077 0.106213 0.578449 0.177491
H29   H     H_    0.830338 0.331249 0.526946 0.148243
C45   C     C_2   0.625517 0.764293 0.332550 0.360923
H30   H     H_    0.568992 0.811672 0.357369 -0.028402
O25   O     O_2   0.737268 0.744306 0.365181 -0.496471
C46   C     C_2   0.467030 0.798130 0.784163 0.471115
H31   H     H_    0.552416 0.812318 0.745878 0.089378
O26   O     O_2   0.467113 0.842189 0.839562 -0.547327
C47   C     C_2   0.247132 0.717565 0.829662 0.801848
H32   H     H_    0.154007 0.753933 0.837608 -0.036765
O27   O     O_2   0.272799 0.673730 0.873590 -0.572759
C48   C     C_2   0.034024 0.174454 0.331946 0.685370
H33   H     H_    0.063668 0.183182 0.277900 0.043518
O28   O     O_2   0.102164 0.130146 0.364329 -0.596635
C49   C     C_2   0.648839 0.592129 0.707666 0.423553
H34   H     H_    0.591948 0.550200 0.665014 0.117972
O29   O     O_2   0.624290 0.584815 0.769971 -0.574032
N5    N     N_3   0.493629 0.849474 0.215365 -0.217663
H35   H     H_    0.531208 0.886856 0.262182 0.122616
H36   H     H_    0.506279 0.882627 0.172820 0.172622
N6    N     N_3   0.750909 0.733024 0.808966 -0.161177
H37   H     H_    0.801040 0.788131 0.832112 0.149914
H38   H     H_    0.753298 0.698503 0.850693 0.204306
C50   C     C_2   0.395964 0.703607 0.253292 0.506865
H39   H     H_    0.328244 0.729146 0.294123 -0.115495
O30   O     O_2   0.331839 0.661301 0.201299 -0.572903
N7    N     N_3   0.335533 0.340470 0.309477 -0.221130
H40   H     H_    0.270158 0.286114 0.306551 0.149834
H41   H     H_    0.318798 0.371212 0.358517 0.148725
C51   C     C_2   0.701691 0.304152 0.218254 0.689147
H42   H     H_    0.773152 0.359635 0.222048 0.053413
O31   O     O_2   0.759980 0.245352 0.200052 -0.591503
C52   C     C_2   0.010472 0.658225 0.141721 0.706469
H43   H     H_    0.949612 0.600977 0.143938 0.035710
O32   O     O_2   0.090911 0.669612 0.091541 -0.519798
N8    N     N_3   0.239669 0.290029 0.828965 -0.144829
H44   H     H_    0.256075 0.277112 0.881615 0.114791
H45   H     H_    0.257932 0.350320 0.832278 0.162737
N9    N     N_3   0.038184 0.181084 0.805475 -0.157743
H46   H     H_    0.125591 0.152290 0.781425 0.184010
H47   H     H_    0.041669 0.170896 0.859243 0.128725
C53   C     C_2   0.633652 0.151975 0.745704 0.633648
H48   H     H_    0.661527 0.184600 0.798470 0.029430
O33   O     O_2   0.709094 0.099373 0.726375 -0.544164
C54   C     C_2   0.491885 0.486650 0.106850 0.540991
H49   H     H_    0.454477 0.452737 0.055486 -0.013579
O34   O     O_2   0.629857 0.513777 0.117585 -0.552327
N10   N     N_3   0.825348 0.456539 0.627429 -0.170080
H50   H     H_    0.804212 0.508273 0.609132 0.129478
H51   H     H_    0.906667 0.430849 0.597592 0.167860
N11   N     N_3   0.427319 0.137997 0.458457 -0.134370
H52   H     H_    0.357744 0.109449 0.493480 0.160025
H53   H     H_    0.445237 0.097683 0.415154 0.137496
N12   N     N_3   0.263269 0.912389 0.445496 -0.206460
H54   H     H_    0.235343 0.901898 0.390072 0.141413
H55   H     H_    0.159385 0.905350 0.471757 0.174836
C55   C     C_2   0.749496 0.856045 0.575754 0.590695
H56   H     H_    0.848420 0.823377 0.575876 0.134993
O35   O     O_2   0.756870 0.914733 0.618201 -0.557430
C56   C     C_2   0.382217 0.645574 0.426702 0.861363
H57   H     H_    0.382418 0.636357 0.369421 -0.211178
O36   O     O_2   0.326059 0.593700 0.458386 -0.477200
N13   N     N_3   0.084054 0.794909 0.187690 -0.151252
H58   H     H_    0.200918 0.793747 0.205312 0.187136
H59   H     H_    0.043283 0.840991 0.218612 0.155853
C57   C     C_2   0.349392 0.722651 0.633321 0.695055
H60   H     H_    0.443150 0.768916 0.631544 -0.108619
O37   O     O_2   0.313605 0.674163 0.581891 -0.519810
C58   C     C_2   0.180525 0.799870 0.695350 0.362091
H61   H     H_    0.185986 0.840553 0.743810 0.050171
O38   O     O_2   0.111228 0.815245 0.641166 -0.563785

loop_
_geom_bond_atom_site_label_1
_geom_bond_atom_site_label_2
_geom_bond_distance
_ccdc_geom_bond_type
O14   Ba2   2.786942 S    
P1    Ba1   3.413141 S    
C40   H28   1.083146 S    
N10   H50   1.038929 S    
C26   C30   1.411015 A    
P3    O8    1.772971 S    
C56   H57   1.070117 S    
C8    C49   1.488020 S    
N12   H54   1.045314 S    
C4    C58   1.520375 S    
Ba1   O16   2.800496 S    
C5    C47   1.510911 S    
C45   O25   1.214510 D    
C32   C33   1.424965 A    
O10   C8    1.399929 S    
C57   O37   1.211520 D    
C15   H21   1.109511 S    
C18   C19   1.533187 S    
C11   H14   1.113228 S    
C34   C43   1.461319 S    
C6    H6    1.106933 S    
P4    O12   1.564573 D    
P5    O17   1.757561 S    
C13   C14   1.532512 S    
C30   N10   1.424648 S    
C49   O29   1.220361 D    
N12   H55   1.044340 S    
N9    H47   1.045839 S    
C9    H11   1.101275 S    
P2    O10   1.772509 S    
C44   H29   1.070005 S    
C17   H27   1.079663 S    
N8    H44   1.045780 S    
C39   C44   1.392537 A    
P3    O9    1.544596 D    
P7    O22   1.765734 S    
C4    O15   1.412686 S    
C41   C42   1.455304 S    
P1    C22   1.866748 S    
C46   H31   1.084225 S    
C4    C57   1.470691 S    
O1    Ba1   2.804927 S    
C2    C3    1.554583 S    
C13   H18   1.111197 S    
P1    O1    1.564332 D    
P5    O19   1.749119 S    
C28   H26   1.082568 S    
C47   H32   1.084354 S    
C45   H30   1.083232 S    
C11   O22   1.407744 S    
N2    C24   1.363518 A    
C52   H43   1.084116 S    
C16   C53   1.499332 S    
C15   C16   1.526753 S    
N13   H59   1.046066 S    
C1    H1    1.110958 S    
C46   O26   1.222969 D    
C7    C48   1.498842 S    
C42   C43   1.213952 T    
P4    Ba2   3.413740 S    
Ba1   Ba2   4.698260 S    
C54   O34   1.218485 D    
O17   Ba2   2.771027 S    
C15   H20   1.109475 S    
N10   H51   1.030765 S    
C31   C36   1.403335 A    
C55   O35   1.221020 D    
C56   O36   1.213916 D    
O8    Ba1   2.770487 S    
C55   H56   1.076792 S    
C23   C29   1.508029 S    
P2    O20   1.556324 S    
C39   C40   1.407519 A    
N8    H45   1.046146 S    
C11   C12   1.538612 S    
O3    Ba1   2.787708 S    
P7    C38   1.843486 S    
O4    P6    1.539513 D    
C12   H16   1.111740 S    
C48   H33   1.084829 S    
N1    N2    1.336048 A    
P1    O5    1.753410 S    
C58   H61   1.085596 S    
O2    Ba1   2.994120 S    
C17   C18   1.504712 S    
O6    C10   1.423040 S    
N7    H41   1.038896 S    
C25   C29   1.423297 A    
C37   N11   1.433712 S    
C16   H23   1.110377 S    
C19   C20   1.375055 D    
O11   C2    1.412019 S    
Ba2   O20   2.799869 S    
C20   C21   1.516551 S    
C13   H17   1.110959 S    
P1    O2    1.551281 S    
P5    O18   1.545665 D    
N11   H53   1.045501 S    
P6    C18   1.897387 S    
C21   H24   1.084229 S    
P2    C32   1.892305 S    
N6    H38   1.046002 S    
N5    H36   1.045674 S    
C7    H8    1.108259 S    
C25   H25   1.079178 S    
C3    C52   1.503758 S    
P3    O11   1.759686 S    
C1    N5    1.464879 S    
C12   C51   1.495892 S    
C27   C30   1.408910 A    
C53   H48   1.085329 S    
P8    O23   1.549512 D    
C31   C32   1.416056 A    
C3    H4    1.088982 S    
C2    H2    1.096506 S    
C54   H49   1.084446 S    
P3    C36   1.881221 S    
N9    H46   1.046095 S    
O12   Ba2   2.805337 S    
C33   C55   1.488182 S    
P2    O7    1.556734 D    
C10   C45   1.508799 S    
P2    Ba1   3.425103 S    
C3    N13   1.465743 S    
C33   C34   1.421641 A    
O14   P8    1.750959 S    
C50   H39   1.076352 S    
C11   N7    1.449725 S    
C52   O32   1.221359 D    
N4    C23   1.364945 A    
N5    H35   1.045536 S    
C1    H13   1.113456 S    
C14   N9    1.464043 S    
C20   C24   1.517052 S    
N13   H58   1.039296 S    
P8    C27   1.863688 S    
O13   Ba2   2.995073 S    
O3    P6    1.773144 S    
C10   C50   1.479587 S    
C12   H15   1.112914 S    
O19   C13   1.407937 S    
C25   C26   1.416266 A    
P4    C26   1.893116 S    
C19   C54   1.490486 S    
N1    C23   1.358634 A    
C21   C22   1.334649 D    
P5    C39   1.854770 S    
C17   C22   1.320835 D    
C58   O38   1.221853 D    
C51   H42   1.081735 S    
N3    C24   1.360408 A    
C40   C41   1.412960 A    
C6    H7    1.110636 S    
Ba1   O20   2.988743 S    
C34   C35   1.413778 A    
C38   C44   1.391758 A    
O7    Ba1   2.821740 S    
C31   C56   1.456297 S    
C8    H10   1.101868 S    
N6    H37   1.046313 S    
C16   H22   1.110819 S    
P4    O13   1.551310 S    
C57   H60   1.079344 S    
O6    P6    1.779530 S    
Ba2   O21   2.821825 S    
C51   O31   1.220364 D    
P7    O21   1.589618 D    
O5    C6    1.399306 S    
P8    O24   1.749934 S    
O2    Ba2   2.803247 S    
C35   C36   1.413779 A    
C2    H3    1.105568 S    
C37   C41   1.416892 A    
C35   N12   1.434031 S    
C9    H12   1.111141 S    
C53   O33   1.220647 D    
P4    O15   1.785064 S    
C37   C38   1.407660 A    
N11   H52   1.045431 S    
C47   O27   1.219717 D    
C48   O28   1.220572 D    
O16   P7    1.765634 S    
C5    H5    1.105355 S    
C5    C46   1.521172 S    
C14   H19   1.114731 S    
C15   O24   1.403248 S    
C27   C28   1.401119 A    
C9    N6    1.461052 S    
C6    C7    1.533925 S    
C7    H9    1.104601 S    
N3    N4    1.339103 A    
C50   O30   1.218071 D    
C4    C5    1.559525 S    
N7    H40   1.043319 S    
C28   C29   1.411129 A    
O16   Ba2   2.987863 S    
C1    C10   1.556153 S    
C14   N8    1.464175 S    
Ba1   O13   2.802560 S    
C8    C9    1.545013 S    
C49   H34   1.075722 S    
