data_mof_unit_32237.cif
_audit_creation_date              2012-12-10T19:09:03-0500
_audit_creation_method            fapswitch 2.2
_symmetry_space_group_name_H-M    P1
_symmetry_Int_Tables_number       1
_space_group_crystal_system       triclinic
_cell_length_a                    17.727792
_cell_length_b                    10.8496
_cell_length_c                    9.539182
_cell_angle_alpha                 89.964298
_cell_angle_beta                  88.80256
_cell_angle_gamma                 90.531189
_cell_volume                      1834.28091614

loop_
_atom_site_label
_atom_site_type_symbol
_atom_type_description
_atom_site_fract_x
_atom_site_fract_y
_atom_site_fract_z
_atom_type_partial_charge
C1    C     C_R   0.498297 0.262353 0.499927 0.798296
C2    C     C_R   0.885129 0.507821 0.486496 0.130078
C3    C     C_1   0.965730 0.511200 0.483618 -0.060884
C4    C     C_1   0.033365 0.512916 0.486146 0.100042
C5    C     C_R   0.148240 0.452161 0.607980 0.446134
C6    C     C_R   0.227431 0.443697 0.611076 0.168500
C7    C     C_R   0.272117 0.500933 0.503753 -0.244893
C8    C     C_R   0.236666 0.564386 0.395564 -0.325226
C9    C     C_R   0.157937 0.568616 0.388967 0.477353
C10   C     C_R   0.113998 0.512895 0.495431 -0.141239
C11   C     C_R   0.470930 0.062534 0.617972 0.038667
C12   C     C_R   0.355419 0.498382 0.501532 0.838059
C13   C     C_R   0.491667 0.129234 0.497773 -0.113550
C14   C     C_R   0.503462 0.064583 0.371423 -0.203675
C15   C     C_R   0.504770 0.936061 0.371371 -0.213600
C16   C     C_R   0.495655 0.870797 0.498171 -0.045417
C17   C     C_R   0.475480 0.936217 0.618907 -0.016223
C18   C     C_3   0.501885 0.932460 0.766799 0.265926
C19   C     C_3   0.493678 0.073326 0.767308 0.261421
C20   C     C_R   0.546402 0.578674 0.071875 0.240002
C21   C     C_R   0.450630 0.428902 0.076360 -0.090063
C22   C     C_R   0.451386 0.427799 0.927506 -0.094096
C23   C     C_R   0.500287 0.737694 0.499839 0.824808
C24   C     C_R   0.546850 0.577726 0.924089 0.292296
C25   C     C_3   0.630908 0.575668 0.916484 -0.478175
C26   C     C_3   0.630389 0.580348 0.074773 -0.538818
C27   C     C_R   0.644410 0.500708 0.498565 0.793003
C28   C     C_R   0.846467 0.457801 0.602877 -0.149991
C29   C     C_R   0.767791 0.455541 0.607184 -0.189211
C30   C     C_R   0.727267 0.503001 0.494765 -0.027543
C31   C     C_R   0.766648 0.553043 0.378416 -0.198191
C32   C     C_R   0.845284 0.555468 0.374303 -0.141012
Cu1   Cu    Cu3+1 0.500000 0.499980 0.640670 0.956550
Cu2   Cu    Cu3+1 0.500000 0.500020 0.359330 0.934676
H1    H     H_    0.877073 0.420415 0.690095 0.132031
H2    H     H_    0.516803 0.888743 0.273564 0.148430
H3    H     H_    0.461920 0.879642 0.836318 0.105177
H4    H     H_    0.546567 0.128533 0.778655 0.111287
H5    H     H_    0.411600 0.369601 0.133832 0.140372
H6    H     H_    0.414396 0.365796 0.872716 0.189462
H7    H     H_    0.652923 0.486967 0.875381 0.205508
H8    H     H_    0.655675 0.658866 0.865350 0.219432
H9    H     H_    0.653931 0.495681 0.121974 0.224489
H10   H     H_    0.738787 0.415142 0.697183 0.136276
H11   H     H_    0.652650 0.668851 0.116359 0.184681
H12   H     H_    0.736797 0.592274 0.291875 0.141880
H13   H     H_    0.874920 0.594963 0.284235 0.139894
H14   H     H_    0.270390 0.612128 0.316205 0.185950
H15   H     H_    0.515739 0.112836 0.274162 0.153627
N1    N     N_R   0.500470 0.500930 0.147930 -0.180807
N2    N     N_R   0.500480 0.500890 0.852020 -0.194626
O1    O     O_R   0.500000 0.319640 0.618810 -0.577978
O2    O     O_R   0.500010 0.319680 0.381230 -0.587738
O3    O     O_R   0.391250 0.499990 0.618840 -0.583519
O4    O     O_R   0.391260 0.500020 0.381250 -0.581914
O5    O     O_R   0.499990 0.680320 0.618770 -0.557369
O6    O     O_R   0.500000 0.680360 0.381190 -0.594253
O7    O     O_R   0.608740 0.499980 0.618750 -0.580697
O8    O     O_R   0.608750 0.500010 0.381160 -0.583104
O9    O     O_3   0.577975 0.895310 0.772528 -0.567092
C33   C     C_3   0.602233 0.903085 0.912254 -0.361389
H16   H     H_    0.567171 0.843770 0.983500 0.149398
H17   H     H_    0.602305 0.999741 0.950565 0.152636
H18   H     H_    0.661312 0.870936 0.916294 0.194617
O10   O     O_3   0.431872 0.113107 0.850841 -0.576186
C34   C     C_3   0.452515 0.115404 0.992714 -0.369217
H19   H     H_    0.502508 0.176065 0.009127 0.159328
H20   H     H_    0.463271 0.021066 0.032527 0.157686
H21   H     H_    0.404781 0.152785 0.055879 0.195647
O11   O     O_3   0.105225 0.388280 0.707769 -0.538413
C35   C     C_3   0.067320 0.471658 0.798257 -0.326567
H22   H     H_    0.096447 0.562741 0.808488 0.132746
H23   H     H_    0.063436 0.429984 0.904387 0.181920
H24   H     H_    0.008752 0.485614 0.763711 0.172976
N3    N     N_2   0.260229 0.370367 0.717459 -0.366675
H25   H     H_    0.308654 0.324386 0.688110 0.262939
C36   C     C_3   0.264006 0.427952 0.854037 -0.626828
H26   H     H_    0.284987 0.360608 0.931333 0.211492
H27   H     H_    0.207657 0.457418 0.891571 0.232450
H28   H     H_    0.302201 0.509627 0.849824 0.217045
O12   O     O_3   0.123182 0.634488 0.284334 -0.554453
C37   C     C_3   0.136409 0.576243 0.154100 -0.327383
H29   H     H_    0.121580 0.476257 0.158218 0.156831
H30   H     H_    0.195821 0.589607 0.117409 0.160807
H31   H     H_    0.099882 0.619533 0.075362 0.185196

loop_
_geom_bond_atom_site_label_1
_geom_bond_atom_site_label_2
_ccdc_geom_bond_type
C34   H20   S    
Cu1   O7    S    
O12   C37   S    
C7    C8    A    
C36   H26   S    
Cu1   O1    S    
C11   C19   S    
C5    O11   S    
C28   C29   A    
C18   H3    S    
C5    C6    A    
C34   H21   S    
C15   C16   A    
C2    C32   A    
C18   C19   S    
C33   H17   S    
C1    O2    A    
C20   N1    A    
C26   H11   S    
C20   C24   A    
C28   H1    S    
C16   C17   A    
C31   H12   S    
Cu2   O6    S    
O11   C35   S    
C9    C10   A    
C24   N2    A    
C34   H19   S    
Cu2   O4    S    
C13   C14   A    
C27   C30   S    
C21   N1    A    
C26   H9    S    
Cu1   Cu2   S    
C36   H27   S    
C7    C12   S    
Cu2   N1    S    
C23   O5    A    
C24   C25   S    
C25   H7    S    
C35   H23   S    
C8    C9    A    
C25   C26   S    
O9    C33   S    
C33   H18   S    
N3    H25   S    
C8    H14   S    
C29   C30   A    
C19   H4    S    
C31   C32   A    
C21   H5    S    
C22   H6    S    
C17   C18   S    
N3    C36   S    
C18   O9    S    
O10   C34   S    
C16   C23   S    
C37   H30   S    
C29   H10   S    
Cu2   O8    S    
C32   H13   S    
C1    C13   S    
C4    C10   S    
C3    C4    T    
C15   H2    S    
C36   H28   S    
Cu1   O3    S    
C23   O6    A    
C11   C17   A    
C27   O7    A    
C25   H8    S    
C35   H24   S    
C6    C7    A    
Cu1   N2    S    
C37   H31   S    
C2    C3    S    
C5    C10   A    
C27   O8    A    
C11   C13   A    
C30   C31   A    
C20   C26   S    
Cu1   O5    S    
C19   O10   S    
C33   H16   S    
C1    O1    A    
C12   O4    A    
C14   H15   S    
C35   H22   S    
Cu2   O2    S    
C37   H29   S    
C14   C15   A    
C2    C28   A    
C21   C22   A    
C12   O3    A    
C9    O12   S    
C22   N2    A    
C6    N3    S    
