data_mof_unit_48269.cif
_audit_creation_date              2012-10-26T18:34:40-0400
_audit_creation_method            fapswitch 2.2
_symmetry_space_group_name_H-M    P1
_symmetry_Int_Tables_number       1
_space_group_crystal_system       triclinic
_cell_length_a                    10.960065
_cell_length_b                    9.673006
_cell_length_c                    17.697762
_cell_angle_alpha                 90.275671
_cell_angle_beta                  95.730124
_cell_angle_gamma                 91.267153
_cell_volume                      1866.38136479

loop_
_atom_site_label
_atom_site_type_symbol
_atom_type_description
_atom_site_fract_x
_atom_site_fract_y
_atom_site_fract_z
_atom_type_partial_charge
C1    C     C_R   0.261842 0.499513 0.498262 0.577641
C2    C     C_R   0.498905 0.501159 0.645354 0.549495
C3    C     C_R   0.869066 0.503879 0.487068 -0.019922
C4    C     C_R   0.126167 0.501500 0.493753 0.007325
C5    C     C_R   0.477720 0.642557 0.847713 0.083478
C6    C     C_R   0.519904 0.391937 0.147964 0.099739
C7    C     C_R   0.456533 0.630406 0.157202 0.099498
C8    C     C_R   0.407995 0.403508 0.841994 0.070109
C9    C     C_R   0.495276 0.636619 0.769804 0.095037
C10   C     C_R   0.549693 0.389214 0.228593 0.113897
C11   C     C_R   0.507018 0.633186 0.232753 0.103106
C12   C     C_R   0.736524 0.501228 0.495537 0.532374
C13   C     C_R   0.453766 0.389221 0.770767 0.099710
C14   C     C_R   0.485178 0.507964 0.729666 0.013407
C15   C     C_R   0.521709 0.506373 0.271836 -0.029788
C16   C     C_R   0.435252 0.068827 0.443252 0.211107
C17   C     C_R   0.580637 0.928332 0.550405 0.214602
C18   C     C_R   0.571181 0.076892 0.554832 0.237794
C19   C     C_R   0.421060 0.922917 0.450665 0.254587
C20   C     C_R   0.430513 0.526619 0.883046 0.001016
C21   C     C_R   0.463149 0.509694 0.114144 -0.012870
C22   C     C_3   0.428532 0.856528 0.718158 -0.251247
C23   C     C_1   0.428820 0.524421 0.964348 0.101611
C24   C     C_3   0.641833 0.152987 0.246049 -0.279530
C25   C     C_3   0.685826 0.779921 0.222753 -0.298119
C26   C     C_3   0.601975 0.215603 0.799906 -0.271819
C27   C     C_3   0.314620 0.169770 0.333773 -0.280739
C28   C     C_3   0.784147 0.908635 0.629164 -0.330112
C29   C     C_3   0.732085 0.221303 0.629662 -0.234905
C30   C     C_3   0.316291 0.828302 0.330538 -0.240989
C31   C     C_3   0.059512 0.325548 0.326612 -0.292385
C32   C     C_3   0.844182 0.785065 0.407131 -0.290055
C33   C     C_3   0.881721 0.133772 0.451776 -0.315519
C34   C     C_1   0.438723 0.518163 0.032691 0.096161
C35   C     C_3   0.139054 0.745880 0.628534 -0.297529
C36   C     C_R   0.054791 0.391912 0.458707 0.117435
C37   C     C_R   0.938106 0.628057 0.499342 0.103477
C38   C     C_R   0.927490 0.385394 0.462884 0.103631
C39   C     C_R   0.066144 0.622098 0.514124 0.099299
C40   C     C_R   0.510694 0.500838 0.355946 0.526369
Cu1   Cu    Cu3+1 0.500000 0.640660 0.500000 0.964336
Cu2   Cu    Cu3+1 0.500000 0.359340 0.500000 0.955860
H1    H     H_    0.609263 0.805473 0.754972 0.269323
H2    H     H_    0.734761 0.873880 0.247244 0.120027
H3    H     H_    0.664116 0.796408 0.160897 0.212952
H4    H     H_    0.747948 0.690917 0.231852 0.132943
H5    H     H_    0.425052 0.183869 0.745629 0.268392
H6    H     H_    0.622935 0.105784 0.790561 0.135405
H7    H     H_    0.587397 0.224767 0.860893 0.205977
H8    H     H_    0.682691 0.281300 0.789109 0.150845
H9    H     H_    0.506049 0.159693 0.352462 0.297154
H10   H     H_    0.235925 0.101999 0.344959 0.134586
H11   H     H_    0.317448 0.176628 0.271371 0.151625
H12   H     H_    0.411117 0.874209 0.656232 0.174631
H13   H     H_    0.304658 0.274630 0.356350 0.215839
H14   H     H_    0.660230 0.753323 0.603036 0.329203
H15   H     H_    0.848237 0.821274 0.633946 0.138989
H16   H     H_    0.787744 0.953975 0.686935 0.148064
H17   H     H_    0.816960 0.981991 0.587792 0.137427
H18   H     H_    0.604830 0.084521 0.669773 0.252216
H19   H     H_    0.793096 0.185480 0.679120 0.084044
H20   H     H_    0.718068 0.332327 0.640421 0.177416
H21   H     H_    0.780585 0.209147 0.578517 0.161317
H22   H     H_    0.236048 0.889167 0.425856 0.215721
H23   H     H_    0.454033 0.956023 0.746902 0.142409
H24   H     H_    0.309948 0.715680 0.318655 0.171929
H25   H     H_    0.398153 0.873869 0.307649 0.203452
H26   H     H_    0.233937 0.874658 0.299810 0.114851
H27   H     H_    0.111772 0.203945 0.422511 0.249222
H28   H     H_    0.020293 0.226713 0.301588 0.140807
H29   H     H_    0.134671 0.361758 0.293635 0.132718
H30   H     H_    0.987493 0.405071 0.319586 0.158182
H31   H     H_    0.922665 0.841871 0.514014 0.234802
H32   H     H_    0.776914 0.869177 0.402289 0.134289
H33   H     H_    0.799244 0.692737 0.377843 0.158252
H34   H     H_    0.342428 0.818311 0.739951 0.153134
H35   H     H_    0.925877 0.815766 0.378127 0.113341
H36   H     H_    0.773504 0.290301 0.397771 0.280069
H37   H     H_    0.794748 0.084040 0.465709 0.138492
H38   H     H_    0.949730 0.131860 0.502746 0.131431
H39   H     H_    0.916964 0.074053 0.405294 0.136168
H40   H     H_    0.116751 0.831323 0.520488 0.232807
H41   H     H_    0.179508 0.847287 0.648451 0.125712
H42   H     H_    0.196155 0.661525 0.654307 0.164950
H43   H     H_    0.045664 0.736803 0.647335 0.132206
H44   H     H_    0.725541 0.345602 0.274836 0.242698
H45   H     H_    0.673769 0.096186 0.298407 0.120235
H46   H     H_    0.709592 0.133050 0.204969 0.179351
H47   H     H_    0.549097 0.112373 0.224686 0.210443
H48   H     H_    0.592378 0.767962 0.316977 0.273064
I1    I     I_    0.523724 0.827960 0.911707 -0.325525
I2    I     I_    0.568732 0.232741 0.072057 -0.328567
I3    I     I_    0.385269 0.817314 0.108991 -0.311015
I4    I     I_    0.320045 0.230806 0.891123 -0.324891
N1    N     N_R   0.500000 0.852070 0.500000 -0.243018
N2    N     N_2   0.318022 0.851878 0.411536 -0.454982
N3    N     N_2   0.106041 0.305634 0.405890 -0.509914
N4    N     N_2   0.880213 0.757540 0.486543 -0.484651
N5    N     N_2   0.858064 0.273048 0.426181 -0.505646
N6    N     N_2   0.134368 0.738256 0.546804 -0.485691
N7    N     N_R   0.500000 0.147930 0.500000 -0.233744
N8    N     N_2   0.527287 0.760109 0.732848 -0.478867
N9    N     N_2   0.640059 0.299178 0.263530 -0.528841
N10   N     N_2   0.574877 0.754979 0.259385 -0.518472
N11   N     N_2   0.494599 0.257502 0.750646 -0.487756
N12   N     N_2   0.427357 0.114518 0.367463 -0.529582
N13   N     N_2   0.661043 0.857802 0.605837 -0.499400
N14   N     N_2   0.615436 0.145591 0.623690 -0.441888
O1    O     O_R   0.319640 0.618740 0.499990 -0.439440
O2    O     O_R   0.680360 0.381260 0.500010 -0.514402
O3    O     O_R   0.680360 0.618740 0.500010 -0.489642
O4    O     O_R   0.319640 0.381260 0.499990 -0.492589
O5    O     O_R   0.500000 0.618830 0.391250 -0.506320
O6    O     O_R   0.500000 0.381170 0.608750 -0.446509
O7    O     O_R   0.500000 0.618830 0.608750 -0.496764
O8    O     O_R   0.500000 0.381170 0.391250 -0.497566

loop_
_geom_bond_atom_site_label_1
_geom_bond_atom_site_label_2
_ccdc_geom_bond_type
C4    C36   A    
C8    C13   A    
C2    O6    A    
Cu1   Cu2   S    
C22   H34   S    
C24   H47   S    
C32   H33   S    
C12   O2    A    
C22   H23   S    
C5    C20   A    
Cu1   N1    S    
C28   H15   S    
C7    C11   A    
C8    C20   A    
C10   N9    S    
C10   C15   A    
C17   N13   S    
C1    O4    A    
C32   H32   S    
C27   H13   S    
C28   N13   S    
C25   H2    S    
Cu2   O4    S    
C30   N2    S    
C3    C12   S    
C1    O1    A    
C32   H35   S    
C11   C15   A    
Cu2   O6    S    
C31   H28   S    
C3    C38   A    
C9    N8    S    
H5    N11   S    
C20   C23   S    
C29   N14   S    
C36   N3    S    
C17   N1    A    
C30   H25   S    
H18   N14   S    
C16   N12   S    
C31   H29   S    
Cu1   O1    S    
C13   C14   A    
Cu1   O7    S    
H44   N9    S    
C26   N11   S    
C37   N4    S    
C16   C19   A    
H31   N4    S    
C7    I3    S    
C29   H19   S    
C13   N11   S    
C8    I4    S    
H22   N2    S    
C22   H12   S    
C26   H7    S    
C35   H41   S    
C33   H37   S    
C21   C34   S    
C27   N12   S    
C7    C21   A    
C6    C21   A    
C33   N5    S    
C18   N7    A    
C9    C14   A    
H14   N13   S    
C5    C9    A    
C2    O7    A    
C40   O5    A    
C4    C39   A    
C23   C34   T    
C17   C18   A    
C25   N10   S    
C30   H24   S    
C24   H46   S    
H48   N10   S    
C11   N10   S    
Cu2   O8    S    
C31   H30   S    
C28   H16   S    
C35   N6    S    
Cu2   N7    S    
C25   H3    S    
C19   N1    A    
C27   H10   S    
C28   H17   S    
C29   H20   S    
H40   N6    S    
Cu1   O5    S    
C38   N5    S    
C6    C10   A    
C35   H42   S    
C27   H11   S    
C33   H38   S    
C26   H6    S    
C22   N8    S    
C1    C4    S    
C24   N9    S    
C26   H8    S    
Cu2   O2    S    
H1    N8    S    
C37   C39   A    
C35   H43   S    
C39   N6    S    
C40   O8    A    
H9    N12   S    
C6    I2    S    
C36   C38   A    
C29   H21   S    
C32   N4    S    
C31   N3    S    
C2    C14   S    
C24   H45   S    
C18   N14   S    
C15   C40   S    
C16   N7    A    
C5    I1    S    
Cu1   O3    S    
H36   N5    S    
C33   H39   S    
C25   H4    S    
C12   O3    A    
C30   H26   S    
C19   N2    S    
C3    C37   A    
H27   N3    S    
