data_mof_unit_54949.cif
_audit_creation_date              2012-12-10T18:47:47-0500
_audit_creation_method            fapswitch 2.2
_symmetry_space_group_name_H-M    P1
_symmetry_Int_Tables_number       1
_space_group_crystal_system       triclinic
_cell_length_a                    9.915641
_cell_length_b                    10.63606
_cell_length_c                    15.472425
_cell_angle_alpha                 89.375262
_cell_angle_beta                  66.692286
_cell_angle_gamma                 88.411608
_cell_volume                      1498.03399954

loop_
_atom_site_label
_atom_site_type_symbol
_atom_type_description
_atom_site_fract_x
_atom_site_fract_y
_atom_site_fract_z
_atom_type_partial_charge
C1    C     C_R   0.499059 0.739458 0.498932 0.943616
C2    C     C_R   0.518427 0.935851 0.416534 0.118586
C3    C     C_R   0.505269 0.128024 0.499186 -0.151942
C4    C     C_R   0.494724 0.871976 0.500826 -0.151932
C5    C     C_R   0.962996 0.410614 0.450689 0.242118
C6    C     C_R   0.037006 0.589389 0.549307 0.242143
C7    C     C_R   0.105973 0.411558 0.451139 -0.094675
C8    C     C_R   0.894028 0.588444 0.548859 -0.094696
C9    C     C_R   0.407362 0.501727 0.676264 0.878191
C10   C     C_R   0.592638 0.498285 0.323736 0.878172
C11   C     C_R   0.348975 0.515077 0.778201 -0.040667
C12   C     C_R   0.500936 0.260542 0.501075 0.943640
C13   C     C_R   0.651026 0.484995 0.221794 -0.040699
C14   C     C_R   0.179816 0.607112 0.924015 -0.126496
C15   C     C_R   0.820227 0.393080 0.075947 -0.126474
C16   C     C_R   0.218889 0.582505 0.828595 -0.181773
C17   C     C_R   0.781145 0.417628 0.171375 -0.181753
C18   C     C_R   0.439289 0.475102 0.822886 -0.182747
C19   C     C_R   0.560702 0.524990 0.177121 -0.182730
C20   C     C_R   0.414904 0.516501 0.912931 0.065050
C21   C     C_R   0.585107 0.483658 0.087057 0.065061
C22   C     C_R   0.276043 0.572256 0.967858 0.058733
C23   C     C_R   0.325105 0.528823 0.106663 0.144064
C24   C     C_R   0.723985 0.427939 0.032114 0.058734
C25   C     C_R   0.522981 0.497278 0.950587 -0.016406
C26   C     C_R   0.477030 0.502908 0.049400 -0.016403
C27   C     C_3   0.250812 0.479232 0.206205 -0.862258
C28   C     C_3   0.749161 0.520961 0.793769 -0.862270
C29   C     C_3   0.446070 0.864029 0.676400 -0.815969
C30   C     C_3   0.553964 0.135969 0.323606 -0.815913
C31   C     C_3   0.930076 0.307717 0.397007 -0.822102
C32   C     C_3   0.069932 0.692295 0.602979 -0.822113
C33   C     C_R   0.674904 0.471384 0.893318 0.144060
C34   C     C_R   0.233579 0.582635 0.065488 0.129114
C35   C     C_R   0.766451 0.417590 0.934482 0.129099
C36   C     C_R   0.475273 0.933953 0.584974 0.108311
C37   C     C_R   0.524728 0.066046 0.415038 0.108298
C38   C     C_R   0.481541 0.064152 0.583481 0.118575
H1    H     H_    0.468019 0.586600 0.214809 0.193906
H2    H     H_    0.221002 0.557446 0.257897 0.264289
H3    H     H_    0.148842 0.430726 0.214041 0.250072
H4    H     H_    0.778979 0.442736 0.742086 0.264289
H5    H     H_    0.680727 0.593230 0.776673 0.236665
H6    H     H_    0.851120 0.569495 0.785919 0.250073
H7    H     H_    0.437683 0.761307 0.671100 0.204895
H8    H     H_    0.536169 0.880376 0.700129 0.255904
H9    H     H_    0.340128 0.897758 0.731231 0.261945
H10   H     H_    0.562481 0.238678 0.328889 0.204872
H11   H     H_    0.659856 0.102165 0.268766 0.261968
H12   H     H_    0.531958 0.413465 0.785220 0.193892
H13   H     H_    0.463819 0.119707 0.299905 0.255886
H14   H     H_    0.032449 0.260548 0.347448 0.201461
H15   H     H_    0.864947 0.234908 0.446572 0.261228
H16   H     H_    0.871574 0.345697 0.354480 0.257954
H17   H     H_    0.967563 0.739476 0.652531 0.201453
H18   H     H_    0.128429 0.654320 0.645510 0.257959
H19   H     H_    0.135068 0.765094 0.553407 0.261234
H20   H     H_    0.852269 0.384570 0.205259 0.154436
H21   H     H_    0.147782 0.615562 0.794699 0.154449
H22   H     H_    0.074702 0.653232 0.962128 0.183670
H23   H     H_    0.925360 0.346999 0.037818 0.183669
H24   H     H_    0.187861 0.340938 0.412585 0.153949
H25   H     H_    0.812141 0.659066 0.587411 0.153958
H26   H     H_    0.319217 0.406936 0.223302 0.236659
I1    I     I_    0.027155 0.668247 0.154279 -0.365656
I2    I     I_    0.972887 0.332015 0.845673 -0.365690
I3    I     I_    0.450879 0.164507 0.709625 -0.351998
I4    I     I_    0.548990 0.835507 0.290407 -0.352036
N1    N     N_R   0.142780 0.500030 0.500020 -0.090701
N2    N     N_R   0.857220 0.499970 0.499980 -0.090704
O1    O     O_R   0.385370 0.683250 0.500010 -0.612386
O2    O     O_R   0.614630 0.316750 0.499990 -0.612386
O3    O     O_R   0.614700 0.683220 0.500000 -0.601629
O4    O     O_R   0.385300 0.316780 0.500000 -0.601612
O5    O     O_R   0.319830 0.500020 0.632250 -0.600421
O6    O     O_R   0.680170 0.499980 0.367750 -0.600453
O7    O     O_R   0.549160 0.499990 0.632240 -0.616851
O8    O     O_R   0.450840 0.500010 0.367760 -0.616835
Zn1   Zn    Zn3+2 0.346870 0.500020 0.500000 0.966547
Zn2   Zn    Zn3+2 0.653130 0.499980 0.500000 0.966527

loop_
_geom_bond_atom_site_label_1
_geom_bond_atom_site_label_2
_ccdc_geom_bond_type
C6    N1    A    
C6    C32   S    
C30   H13   S    
C4    C36   A    
C11   C18   A    
C12   O4    A    
C31   H14   S    
C21   C26   A    
O1    Zn1   S    
C10   O8    A    
C29   C36   S    
C1    O1    A    
C29   H9    S    
C30   H10   S    
C19   C21   A    
C2    I4    S    
C20   C25   A    
C23   C26   A    
C3    C12   S    
C10   O6    A    
C3    C38   A    
C23   C27   S    
C32   H17   S    
C17   H20   S    
C12   O2    A    
C32   H19   S    
C34   I1    S    
C22   C34   A    
C24   C35   A    
C13   C19   A    
N2    Zn2   S    
C5    C7    A    
O8    Zn1   S    
C6    C8    A    
C35   I2    S    
C25   C26   A    
C28   H6    S    
C30   C37   S    
C29   H7    S    
C16   H21   S    
C2    C4    A    
C7    H24   S    
C5    N2    A    
C11   C16   A    
C27   H3    S    
C27   H2    S    
C23   C34   A    
C15   H23   S    
C9    O7    A    
C31   H15   S    
C9    C11   S    
C19   H1    S    
C15   C24   A    
C30   H11   S    
C20   C22   A    
C28   C33   S    
O4    Zn1   S    
C14   C16   A    
N1    Zn1   S    
C18   H12   S    
O7    Zn2   S    
C15   C17   A    
O6    Zn2   S    
C10   C13   S    
C7    N1    A    
C14   H22   S    
C28   H5    S    
C8    N2    A    
C13   C17   A    
C29   H8    S    
C1    C4    S    
C1    O3    A    
C14   C22   A    
C36   C38   A    
O2    Zn2   S    
C2    C37   A    
C28   H4    S    
C33   C35   A    
O3    Zn2   S    
C18   C20   A    
C31   H16   S    
C27   H26   S    
C8    H25   S    
C38   I3    S    
C3    C37   A    
C21   C24   A    
C9    O5    A    
O5    Zn1   S    
C32   H18   S    
C25   C33   A    
C5    C31   S    
