data_mof_unit_45503.cif
_audit_creation_date              2012-12-11T17:10:39-0500
_audit_creation_method            fapswitch 2.2
_symmetry_space_group_name_H-M    P1
_symmetry_Int_Tables_number       1
_space_group_crystal_system       triclinic
_cell_length_a                    14.886123
_cell_length_b                    14.865008
_cell_length_c                    14.935372
_cell_angle_alpha                 109.23657
_cell_angle_beta                  110.34854
_cell_angle_gamma                 108.941284
_cell_volume                      2540.27325282

loop_
_atom_site_label
_atom_site_type_symbol
_atom_type_description
_atom_site_fract_x
_atom_site_fract_y
_atom_site_fract_z
_atom_type_partial_charge
C1    C     C_R   0.186184 0.279415 0.254659 -0.141744
C2    C     C_R   0.447890 0.445278 0.770581 0.078357
C3    C     C_R   0.572408 0.200150 0.499971 0.057978
C4    C     C_R   0.203281 0.577178 0.497740 0.070409
C5    C     C_R   0.473755 0.720659 0.406497 -0.142303
C6    C     C_R   0.815222 0.563632 0.595393 -0.146700
C7    C     C_R   0.499420 0.407588 0.198633 -0.148527
C8    C     C_R   0.702998 0.795410 0.805345 0.030010
C9    C     C_R   0.800704 0.710337 0.806400 -0.170681
C10   C     C_R   0.408440 0.499981 0.196783 -0.149443
C11   C     C_R   0.565269 0.814928 0.590466 -0.141354
C12   C     C_R   0.520392 0.427575 0.739878 -0.160599
C13   C     C_R   0.726299 0.471066 0.411344 -0.129191
C14   C     C_R   0.548594 0.824144 0.496832 0.074167
C15   C     C_R   0.830779 0.547289 0.506399 0.062395
C16   C     C_R   0.443050 0.442254 0.136614 0.090064
C17   C     C_R   0.799150 0.801588 0.870040 0.051277
C18   C     C_R   0.105060 0.617469 0.194640 -0.132159
C19   C     C_R   0.109206 0.637268 0.294616 -0.145159
C20   C     C_R   0.024052 0.562924 0.297138 0.116307
C21   C     C_R   0.934059 0.469440 0.197515 -0.185337
C22   C     C_R   0.929951 0.450550 0.097683 -0.100007
C23   C     C_R   0.507592 0.202294 0.409208 -0.187978
C24   C     C_R   0.015439 0.524401 0.096257 -0.100202
C25   C     C_R   0.935180 0.573781 0.410841 -0.240730
C26   C     C_R   0.937174 0.595554 0.510778 0.064105
C27   C     C_R   0.041501 0.654406 0.609284 0.034569
C28   C     C_R   0.134763 0.670326 0.601560 -0.232107
C29   C     C_R   0.125433 0.618126 0.499599 0.044324
C30   C     C_R   0.028899 0.584312 0.403564 0.034670
C31   C     C_R   0.079332 0.790047 0.789395 -0.194723
C32   C     C_R   0.108149 0.823682 0.899330 -0.123502
C33   C     C_R   0.119344 0.754657 0.942328 0.093837
C34   C     C_R   0.294642 0.601292 0.589722 -0.135901
C35   C     C_R   0.099326 0.650701 0.874180 -0.179638
C36   C     C_R   0.070463 0.616948 0.764492 -0.179347
C37   C     C_R   0.060101 0.686324 0.721404 0.107049
C38   C     C_R   0.471029 0.362331 0.889223 0.098140
C39   C     C_R   0.411371 0.401320 0.832872 0.063841
C40   C     C_R   0.334566 0.420421 0.858632 -0.202152
C41   C     C_R   0.336623 0.424394 0.954355 -0.203514
C42   C     C_R   0.416290 0.410418 0.024142 0.048135
C43   C     C_R   0.476890 0.371841 0.985876 0.084220
C44   C     C_3   0.596875 0.403276 0.040822 0.083052
C45   C     C_R   0.602410 0.294370 0.591392 0.036566
C46   C     C_3   0.589593 0.389296 0.933042 -0.553331
C47   C     C_R   0.547216 0.924774 0.392886 0.176670
C48   C     C_R   0.594152 0.924171 0.491724 0.034626
C49   C     C_R   0.671689 0.025579 0.588666 -0.209750
C50   C     C_R   0.677925 0.122156 0.590415 -0.205832
C51   C     C_R   0.607169 0.117396 0.494716 0.032749
C52   C     C_R   0.553890 0.020104 0.394398 0.166032
C53   C     C_3   0.439456 0.959586 0.297011 -0.529258
C54   C     C_3   0.432056 0.855751 0.295728 -0.548274
C55   C     C_R   0.970129 0.078062 0.116199 0.152649
C56   C     C_R   0.201562 0.508260 0.407542 -0.154197
C57   C     C_R   0.067451 0.075763 0.166587 0.033914
C58   C     C_R   0.060666 0.973098 0.142685 -0.206148
C59   C     C_R   0.964614 0.877240 0.052001 -0.198989
C60   C     C_R   0.876804 0.885011 0.985798 0.026455
C61   C     C_R   0.876287 0.984086 0.027018 0.177504
C62   C     C_3   0.845609 0.044856 0.970095 -0.489994
C63   C     C_3   0.948284 0.147534 0.067382 -0.541220
C64   C     C_R   0.434053 0.525217 0.748429 -0.138313
C65   C     C_R   0.276087 0.184780 0.249309 -0.131512
C66   C     C_R   0.173254 0.175616 0.224430 0.069624
H1    H     H_    0.124997 0.303636 0.251944 0.113270
H2    H     H_    0.872870 0.617360 0.681452 0.131670
H3    H     H_    0.521756 0.345889 0.170641 0.089264
H4    H     H_    0.854993 0.680220 0.836309 0.107364
H5    H     H_    0.348367 0.524204 0.166550 0.087092
H6    H     H_    0.620494 0.879629 0.675248 0.100961
H7    H     H_    0.706168 0.437536 0.326601 0.091731
H8    H     H_    0.012279 0.509522 0.018937 0.093943
H9    H     H_    0.171335 0.674340 0.193430 0.102259
H10   H     H_    0.179025 0.710103 0.370071 0.114586
H11   H     H_    0.543664 0.366089 0.739402 0.123376
H12   H     H_    0.867651 0.410589 0.197073 0.111307
H13   H     H_    0.860578 0.378423 0.021418 0.110075
H14   H     H_    0.859530 0.543542 0.337013 0.128568
H15   H     H_    0.212201 0.710485 0.677336 0.126343
H16   H     H_    0.073440 0.845036 0.757691 0.127239
H17   H     H_    0.123548 0.904082 0.951546 0.127519
H18   H     H_    0.107986 0.596930 0.906806 0.107442
H19   H     H_    0.057719 0.537484 0.713393 0.122872
H20   H     H_    0.282390 0.444545 0.812885 0.126105
H21   H     H_    0.487339 0.155072 0.325625 0.111874
H22   H     H_    0.283899 0.448746 0.978368 0.122473
H23   H     H_    0.611811 0.341701 0.060429 0.115209
H24   H     H_    0.643486 0.466309 0.939644 0.214150
H25   H     H_    0.596803 0.317536 0.889638 0.167870
H26   H     H_    0.716862 0.029811 0.665862 0.128550
H27   H     H_    0.728371 0.195793 0.669559 0.142593
H28   H     H_    0.380461 0.979450 0.316833 0.203671
H29   H     H_    0.439020 0.962547 0.223446 0.191218
H30   H     H_    0.369456 0.817878 0.315640 0.198464
H31   H     H_    0.331190 0.663014 0.674124 0.082968
H32   H     H_    0.426876 0.798887 0.221246 0.192359
H33   H     H_    0.132529 0.967551 0.184859 0.137259
H34   H     H_    0.964264 0.800146 0.026869 0.136730
H35   H     H_    0.848555 0.021488 0.892749 0.195402
H36   H     H_    0.769464 0.046490 0.963313 0.195703
H37   H     H_    0.009911 0.182868 0.045318 0.206222
H38   H     H_    0.930329 0.206899 0.115611 0.194320
H39   H     H_    0.149005 0.480405 0.322144 0.117748
H40   H     H_    0.382420 0.558774 0.761539 0.097389
H41   H     H_    0.296644 0.120063 0.237384 0.096837
H42   H     H_    0.445442 0.696484 0.321255 0.110803
N1    N     N_R   0.291070 0.347930 0.293870 -0.040376
N2    N     N_R   0.708930 0.502750 0.556810 -0.043674
N3    N     N_R   0.502760 0.445970 0.293860 -0.037481
N4    N     N_R   0.652110 0.708890 0.706130 -0.051543
N5    N     N_R   0.708930 0.652070 0.706130 -0.045195
N6    N     N_R   0.445950 0.502780 0.293850 -0.037193
N7    N     N_R   0.502760 0.708900 0.556790 -0.042159
N8    N     N_R   0.652110 0.445950 0.443190 -0.037808
N9    N     N_R   0.554050 0.497220 0.706150 -0.042510
N10   N     N_R   0.497240 0.291100 0.443210 -0.041490
N11   N     N_R   0.347890 0.554050 0.556810 -0.037949
N12   N     N_R   0.554050 0.347900 0.556830 -0.052189
N13   N     N_R   0.291070 0.497250 0.443190 -0.038986
N14   N     N_R   0.497240 0.554030 0.706140 -0.042239
N15   N     N_R   0.347890 0.291110 0.293870 -0.038482
N16   N     N_R   0.445950 0.652100 0.443170 -0.038041
Ni1   Ni    Ni4+2 0.369690 0.500010 0.369700 0.213545
Ni2   Ni    Ni4+2 0.630310 0.499990 0.630300 0.199357
Ni3   Ni    Ni4+2 0.500000 0.369720 0.369720 0.207147
Ni4   Ni    Ni4+2 0.500000 0.630280 0.630280 0.199534
N17   N     N_3   0.642706 0.834901 0.848311 -0.228531
H43   H     H_    0.618736 0.790591 0.885396 0.106186
H44   H     H_    0.569828 0.815811 0.783046 0.096130
N18   N     N_3   0.153412 0.791525 0.055861 -0.234282
H45   H     H_    0.226281 0.789800 0.092587 0.116897
H46   H     H_    0.093335 0.734853 0.059747 0.091883
C67   C     C_3   0.677059 0.522687 0.135017 -0.932454
H47   H     H_    0.761316 0.546657 0.147966 0.253799
H48   H     H_    0.651844 0.579763 0.115751 0.260356
H49   H     H_    0.681285 0.531907 0.213184 0.239692
N19   N     N_3   0.700583 0.349392 0.696559 -0.235782
H50   H     H_    0.767385 0.370279 0.683697 0.098208
H51   H     H_    0.710285 0.424255 0.746596 0.098958

loop_
_geom_bond_atom_site_label_1
_geom_bond_atom_site_label_2
_ccdc_geom_bond_type
C67   H49   S    
C40   C41   A    
C18   H9    S    
N2    N8    A    
C53   H29   S    
C25   H14   S    
C41   C42   A    
C3    C23   A    
C19   C20   A    
C57   C66   S    
C43   C44   S    
C2    C12   A    
C23   N10   A    
C67   H47   S    
C20   C30   S    
C53   C54   S    
C5    N16   A    
C26   C27   A    
C29   C30   A    
C31   H16   S    
C18   C24   A    
C19   H10   S    
C22   H13   S    
C8    N4    A    
C38   C39   A    
C11   C14   A    
N12   Ni2   S    
C45   N19   S    
C34   H31   S    
C18   C19   A    
C40   H20   S    
C41   H22   S    
C34   N11   A    
C1    N1    A    
C6    C15   A    
C2    C39   S    
C35   C36   A    
C44   C46   S    
N18   H45   S    
N8    Ni3   S    
C55   C63   S    
C21   H12   S    
C11   N7    A    
N9    Ni2   S    
C54   H30   S    
C4    C29   S    
C10   N6    A    
C62   H35   S    
C65   H41   S    
N11   Ni4   S    
C44   C67   S    
C6    H2    S    
C53   H28   S    
C1    H1    S    
C59   C60   A    
C23   H21   S    
C21   C22   A    
C4    C56   A    
C59   H34   S    
C6    N2    A    
N18   H46   S    
N4    N5    A    
C2    C64   A    
C1    C66   A    
N11   N13   A    
C4    C34   A    
C38   C46   S    
C51   C52   A    
C9    H4    S    
C63   H37   S    
C39   C40   A    
N6    Ni1   S    
C3    C51   S    
C11   H6    S    
N1    N15   A    
C15   C26   S    
C14   C48   S    
N5    Ni2   S    
C17   C60   S    
C58   C59   A    
C3    C45   A    
N7    Ni4   S    
C31   C37   A    
C60   C61   A    
N9    N14   A    
N13   Ni1   S    
C62   C63   S    
N15   Ni3   S    
C47   C48   A    
N19   H50   S    
C12   H11   S    
C50   C51   A    
C5    C14   A    
N2    Ni2   S    
C47   C54   S    
C45   N12   A    
C9    C17   A    
C48   C49   A    
C13   H7    S    
C49   C50   A    
C13   C15   A    
N3    Ni3   S    
C22   C24   A    
N10   Ni3   S    
C49   H26   S    
C16   C42   S    
C8    N17   S    
C52   C53   S    
C33   N18   S    
N17   H43   S    
N1    Ni1   S    
C25   C30   A    
C67   H48   S    
C32   H17   S    
C28   C29   A    
N7    N16   A    
C28   H15   S    
C31   C32   A    
C7    C16   A    
C58   H33   S    
C63   H38   S    
C7    H3    S    
C35   H18   S    
C50   H27   S    
C64   H40   S    
C47   C52   A    
C46   H24   S    
C36   H19   S    
C8    C17   A    
C9    N5    A    
C56   N13   A    
C55   C57   A    
C25   C26   A    
C38   C43   A    
C10   C16   A    
C32   C33   A    
N19   H51   S    
C24   H8    S    
C57   C58   A    
C27   C37   S    
C64   N14   A    
C55   C61   A    
C33   C35   A    
C7    N3    A    
N3    N6    A    
C65   N15   A    
N14   Ni4   S    
C61   C62   S    
N10   N12   A    
C56   H39   S    
N4    Ni4   S    
C13   N8    A    
C10   H5    S    
C12   N9    A    
C20   C21   A    
C36   C37   A    
C65   C66   A    
C42   C43   A    
C27   C28   A    
C54   H32   S    
N17   H44   S    
C46   H25   S    
C44   H23   S    
N16   Ni1   S    
C62   H36   S    
C5    H42   S    
