data_mof_unit_55888.cif
_audit_creation_date              2012-12-10T17:31:22-0500
_audit_creation_method            fapswitch 2.2
_symmetry_space_group_name_H-M    P1
_symmetry_Int_Tables_number       1
_space_group_crystal_system       triclinic
_cell_length_a                    19.25919
_cell_length_b                    18.157799
_cell_length_c                    12.336446
_cell_angle_alpha                 90.096374
_cell_angle_beta                  128.922606
_cell_angle_gamma                 90.128747
_cell_volume                      3356.32294071

loop_
_atom_site_label
_atom_site_type_symbol
_atom_type_description
_atom_site_fract_x
_atom_site_fract_y
_atom_site_fract_z
_atom_type_partial_charge
C1    C     C_R   0.606719 0.894448 0.646081 0.840600
C2    C     C_R   0.607084 0.105503 0.646447 0.847446
C3    C     C_R   0.106752 0.394465 0.646117 0.840853
C4    C     C_R   0.107052 0.605521 0.646408 0.847287
C5    C     C_R   0.225426 0.792572 0.011945 -0.064632
C6    C     C_R   0.233017 0.214802 0.023222 -0.066125
C7    C     C_R   0.725483 0.292561 0.011978 -0.064633
C8    C     C_R   0.732999 0.714833 0.023266 -0.066083
C9    C     C_R   0.652307 0.283044 0.011854 -0.174518
C10   C     C_R   0.667344 0.733970 0.036781 -0.171720
C11   C     C_R   0.152345 0.782920 0.012025 -0.174495
C12   C     C_R   0.167180 0.233728 0.036438 -0.171768
C13   C     C_R   0.572945 0.251360 0.894264 0.404169
C14   C     C_R   0.586438 0.764278 0.921905 0.411861
C15   C     C_R   0.072986 0.751184 0.894518 0.404151
C16   C     C_R   0.086269 0.263963 0.921440 0.412087
C17   C     C_R   0.572834 0.215868 0.793494 0.483099
C18   C     C_R   0.579583 0.791230 0.809728 0.487292
C19   C     C_R   0.072808 0.715783 0.793616 0.483195
C20   C     C_R   0.079547 0.291076 0.809468 0.487065
C21   C     C_R   0.303113 0.826813 0.126766 -0.194546
C22   C     C_R   0.307686 0.175185 0.131217 -0.185817
C23   C     C_R   0.803181 0.326745 0.126879 -0.194452
C24   C     C_R   0.807614 0.675113 0.131125 -0.185817
C25   C     C_R   0.236299 0.843549 0.237842 -0.243518
C26   C     C_R   0.256803 0.179561 0.266968 -0.268613
C27   C     C_R   0.736190 0.343707 0.237633 -0.243598
C28   C     C_R   0.757069 0.679823 0.267333 -0.268593
C29   C     C_R   0.658141 0.174297 0.714568 -0.052719
C30   C     C_R   0.657210 0.825767 0.714171 -0.047997
C31   C     C_R   0.158024 0.674361 0.714438 -0.052843
C32   C     C_R   0.157332 0.325830 0.714284 -0.047937
C33   C     C_R   0.682838 0.001293 0.285520 -0.280045
C34   C     C_R   0.182836 0.501303 0.285517 -0.280212
C35   C     C_R   0.344393 0.995500 0.628474 0.629101
C36   C     C_R   0.844394 0.495519 0.628476 0.629162
C37   C     C_R   0.311989 0.989657 0.704143 0.349765
C38   C     C_R   0.811987 0.489656 0.704130 0.349870
C39   C     C_R   0.386292 0.100570 0.344476 0.838732
C40   C     C_R   0.383644 0.901535 0.341038 0.838856
C41   C     C_R   0.886302 0.600577 0.344487 0.838575
C42   C     C_R   0.883643 0.401538 0.341037 0.839034
C43   C     C_R   0.372279 0.990639 0.849789 -0.337846
C44   C     C_R   0.872273 0.490621 0.849780 -0.337964
C45   C     C_R   0.464273 0.998016 0.922721 -0.029407
C46   C     C_R   0.964269 0.498005 0.922718 -0.029450
C47   C     C_R   0.494616 0.000846 0.842638 0.141294
C48   C     C_R   0.994615 0.500840 0.842637 0.141193
C49   C     C_R   0.527347 0.999442 0.072709 -0.028062
C50   C     C_R   0.027344 0.499436 0.072706 -0.028124
C51   C     C_R   0.619775 0.001051 0.139603 -0.033613
C52   C     C_R   0.119773 0.501055 0.139601 -0.033735
C53   C     C_R   0.648536 0.002083 0.060406 0.555967
C54   C     C_R   0.148534 0.502089 0.060405 0.555946
C55   C     C_R   0.587430 0.002093 0.915960 -0.202734
C56   C     C_R   0.087428 0.502093 0.915960 -0.202751
C57   C     C_R   0.502973 0.999699 0.160315 -0.042503
C58   C     C_R   0.002971 0.499692 0.160314 -0.042471
C59   C     C_R   0.654643 0.000515 0.365137 0.773659
C60   C     C_R   0.154643 0.500522 0.365136 0.773595
C61   C     C_R   0.658968 0.308166 0.126434 0.663818
C62   C     C_R   0.681963 0.718835 0.161791 0.660820
C63   C     C_R   0.159092 0.807959 0.126722 0.663846
C64   C     C_R   0.181631 0.218460 0.161275 0.660942
C65   C     C_R   0.307894 0.854378 0.236960 -0.140674
C66   C     C_R   0.317021 0.153878 0.248508 -0.128025
C67   C     C_R   0.807880 0.354401 0.236942 -0.140654
C68   C     C_R   0.817079 0.653928 0.248582 -0.128089
C69   C     C_R   0.718819 0.197524 0.694040 -0.187751
C70   C     C_R   0.714768 0.800544 0.688776 -0.186132
C71   C     C_R   0.218593 0.697681 0.693741 -0.187402
C72   C     C_R   0.215016 0.300715 0.689068 -0.186171
C73   C     C_R   0.274298 0.757719 0.766911 -0.117757
C74   C     C_R   0.271580 0.241748 0.763417 -0.155539
C75   C     C_R   0.774596 0.257514 0.767303 -0.117358
C76   C     C_R   0.771256 0.741526 0.763038 -0.156119
C77   C     C_R   0.278845 0.789072 0.874010 -0.083417
C78   C     C_R   0.278696 0.212317 0.873846 -0.097255
C79   C     C_R   0.779088 0.288908 0.874321 -0.082871
C80   C     C_R   0.778435 0.712148 0.873558 -0.097288
C81   C     C_R   0.719689 0.266086 0.898570 0.031846
C82   C     C_R   0.722557 0.737171 0.903576 0.040202
C83   C     C_R   0.219557 0.766155 0.898434 0.031923
C84   C     C_R   0.222682 0.237225 0.903666 0.040147
C85   C     C_R   0.649915 0.216751 0.802837 -0.091057
C86   C     C_R   0.652691 0.786373 0.809140 -0.102373
C87   C     C_R   0.149824 0.716769 0.802783 -0.090983
C88   C     C_R   0.152767 0.286369 0.809137 -0.102455
Cu1   Cu    Cu3+1 0.526340 0.000000 0.421010 1.007279
Cu2   Cu    Cu3+1 0.026340 0.500000 0.421010 1.007275
Cu3   Cu    Cu3+1 0.473640 0.000000 0.578990 1.065561
Cu4   Cu    Cu3+1 0.973640 0.500000 0.578990 1.065542
H1    H     H_    0.238949 0.864251 0.322722 0.222605
H2    H     H_    0.266650 0.168036 0.361656 0.183269
H3    H     H_    0.738775 0.364484 0.322410 0.222638
H4    H     H_    0.767031 0.668383 0.362142 0.183387
H5    H     H_    0.753795 0.002110 0.338227 0.215313
H6    H     H_    0.253793 0.502126 0.338224 0.215339
H7    H     H_    0.434309 0.000571 0.118559 0.137666
H8    H     H_    0.934306 0.500559 0.118555 0.137665
H9    H     H_    0.345632 0.981571 0.903517 0.157756
H10   H     H_    0.845626 0.481538 0.903504 0.157771
H11   H     H_    0.616879 0.001733 0.866553 0.212860
H12   H     H_    0.116877 0.501735 0.866553 0.212879
H13   H     H_    0.361375 0.831859 0.132955 0.173018
H14   H     H_    0.359643 0.160083 0.126253 0.171286
H15   H     H_    0.861512 0.331683 0.133229 0.173047
H16   H     H_    0.859421 0.659830 0.125920 0.171237
H17   H     H_    0.723140 0.169580 0.620841 0.186668
H18   H     H_    0.716519 0.826500 0.611538 0.184318
H19   H     H_    0.222882 0.669774 0.620479 0.186700
H20   H     H_    0.216805 0.326716 0.611900 0.184226
H21   H     H_    0.326071 0.833519 0.931728 0.139754
H22   H     H_    0.326302 0.168491 0.930585 0.131143
H23   H     H_    0.826358 0.333321 0.932100 0.139707
H24   H     H_    0.825996 0.668286 0.930227 0.131130
H25   H     H_    0.317241 0.777894 0.745040 0.190771
H26   H     H_    0.313173 0.220817 0.739485 0.183788
H27   H     H_    0.817619 0.277630 0.745552 0.191046
H28   H     H_    0.812763 0.720525 0.738986 0.183443
N1    N     N_R   0.566260 0.000000 0.302220 -0.228108
N2    N     N_R   0.066260 0.500000 0.302220 -0.228110
N3    N     N_R   0.434410 0.000000 0.697680 -0.223978
N4    N     N_R   0.934410 0.500000 0.697680 -0.224023
O1    O     O_R   0.608610 0.924520 0.551740 -0.546406
O2    O     O_R   0.608610 0.075480 0.551740 -0.547072
O3    O     O_R   0.108610 0.424520 0.551740 -0.546489
O4    O     O_R   0.108610 0.575480 0.551740 -0.547018
O5    O     O_R   0.564110 0.924510 0.685150 -0.557677
O6    O     O_R   0.564110 0.075490 0.685150 -0.562386
O7    O     O_R   0.064110 0.424510 0.685150 -0.557715
O8    O     O_R   0.064110 0.575490 0.685150 -0.562345
O9    O     O_R   0.435880 0.075470 0.314850 -0.613704
O10   O     O_R   0.435880 0.924530 0.314850 -0.612124
O11   O     O_R   0.935880 0.575470 0.314850 -0.613653
O12   O     O_R   0.935880 0.424530 0.314850 -0.612166
O13   O     O_R   0.391380 0.075460 0.448260 -0.524324
O14   O     O_R   0.391380 0.924540 0.448260 -0.499704
O15   O     O_R   0.891380 0.575460 0.448260 -0.524352
O16   O     O_R   0.891380 0.424540 0.448260 -0.499712
F1    F     F_    0.737040 0.002972 0.123036 -0.663670
F2    F     F_    0.237037 0.502986 0.123034 -0.663676
O17   O     O_3   0.287641 0.987639 0.484601 -0.564924
C89   C     C_3   0.214977 0.036821 0.417833 -0.237662
H29   H     H_    0.231006 0.089468 0.476037 0.130691
H30   H     H_    0.156188 0.009666 0.397620 0.223531
H31   H     H_    0.195086 0.050215 0.314130 0.168577
O18   O     O_3   0.787626 0.487717 0.484597 -0.564846
C90   C     C_3   0.715117 0.537059 0.417951 -0.237758
H32   H     H_    0.731308 0.589684 0.476282 0.130551
H33   H     H_    0.656246 0.510042 0.397686 0.223387
H34   H     H_    0.695271 0.550476 0.314285 0.168570
O19   O     O_3   0.222805 0.973114 0.634854 -0.561116
C91   C     C_3   0.183849 0.027188 0.664000 -0.316889
H35   H     H_    0.203290 0.084152 0.658938 0.151360
H36   H     H_    0.200383 0.017314 0.766712 0.165429
H37   H     H_    0.110256 0.023080 0.583953 0.208770
O20   O     O_3   0.722799 0.473112 0.634807 -0.560977
C92   C     C_3   0.683831 0.527185 0.663932 -0.316833
H38   H     H_    0.703215 0.584147 0.658748 0.151360
H39   H     H_    0.700412 0.517355 0.766687 0.165369
H40   H     H_    0.610238 0.523034 0.583937 0.208781
O21   O     O_3   0.494171 0.256674 0.874632 -0.516553
C93   C     C_3   0.453744 0.324375 0.807763 -0.174205
H41   H     H_    0.422276 0.320826 0.695416 0.174081
H42   H     H_    0.501281 0.371752 0.857399 0.136464
H43   H     H_    0.400947 0.336666 0.815967 0.194449
O22   O     O_3   0.512287 0.765235 0.915778 -0.511249
C94   C     C_3   0.473290 0.694120 0.876799 -0.195384
H44   H     H_    0.522776 0.648441 0.926876 0.127169
H45   H     H_    0.429192 0.687768 0.761674 0.170050
H46   H     H_    0.432525 0.687492 0.911056 0.195336
O23   O     O_3   0.994279 0.756335 0.875127 -0.516443
C95   C     C_3   0.953679 0.824014 0.808350 -0.174058
H47   H     H_    0.921878 0.820442 0.695870 0.174107
H48   H     H_    0.001167 0.871432 0.857655 0.136235
H49   H     H_    0.901122 0.836259 0.817120 0.194655
O24   O     O_3   0.011974 0.264609 0.914935 -0.511291
C96   C     C_3   0.973113 0.193448 0.875410 -0.195941
H50   H     H_    0.022690 0.147829 0.925404 0.127135
H51   H     H_    0.929190 0.187296 0.760263 0.170395
H52   H     H_    0.932186 0.186492 0.909311 0.195267
F3    F     F_    0.591240 0.298607 0.131822 -0.626016
F4    F     F_    0.623886 0.741467 0.182438 -0.643976
F5    F     F_    0.091465 0.798266 0.132310 -0.626056
F6    F     F_    0.123339 0.240861 0.181615 -0.643845
F7    F     F_    0.493470 0.190352 0.677612 -0.653497
F8    F     F_    0.497703 0.812694 0.694755 -0.641169
F9    F     F_    0.993429 0.690249 0.677791 -0.653517
F10   F     F_    0.997699 0.312539 0.694410 -0.641242
F11   F     F_    0.715954 0.000689 0.506024 -0.671325
F12   F     F_    0.215955 0.500701 0.506023 -0.671305

loop_
_geom_bond_atom_site_label_1
_geom_bond_atom_site_label_2
_ccdc_geom_bond_type
C59   N1    A    
C83   C87   A    
C72   H20   S    
C26   H2    S    
C79   H23   S    
C94   H45   S    
C94   H44   S    
C14   C18   A    
C53   C55   A    
C27   H3    S    
O21   C93   S    
C48   C56   A    
C11   C63   A    
C64   F6    S    
C18   F8    S    
C39   O13   A    
O24   C96   S    
C32   C72   A    
Cu3   O6    S    
Cu1   O1    S    
O23   C95   S    
C25   H1    S    
C18   C86   A    
C2    C29   S    
C9    C61   A    
C93   H41   S    
C28   C68   A    
C1    O1    A    
C5    C11   A    
C1    O5    A    
C90   H33   S    
C6    C12   A    
C5    C83   A    
C3    O3    A    
C77   C83   A    
O17   C89   S    
C6    C22   A    
C55   H11   S    
C16   O24   S    
C49   C57   A    
C62   F4    S    
C42   O12   A    
C25   C63   A    
C23   C67   A    
C9    C13   A    
C95   H47   S    
C22   C66   A    
C26   C64   A    
C34   C52   A    
C27   C61   A    
C34   H6    S    
Cu3   O13   S    
C11   C15   A    
C36   O18   S    
C80   H24   S    
C44   C46   A    
C63   F5    S    
C40   O14   A    
C50   C52   A    
Cu2   O3    S    
C92   H39   S    
C24   H16   S    
C30   C86   A    
C70   H18   S    
C58   N2    A    
C91   H36   S    
C60   F12   S    
C96   H52   S    
C21   C65   A    
C31   C71   A    
C33   C59   A    
Cu3   N3    S    
C34   C60   A    
C31   C87   A    
Cu2   N2    S    
C10   C62   A    
C69   H17   S    
C89   H31   S    
C77   H21   S    
C30   C70   A    
C73   H25   S    
C52   C54   A    
C59   F11   S    
C13   O21   S    
C41   C68   S    
C29   C69   A    
Cu1   O2    S    
C45   C47   A    
C74   H26   S    
C46   C48   A    
C61   F3    S    
Cu1   O9    S    
C28   C62   A    
C15   O23   S    
C42   O16   A    
C26   C66   A    
C12   C16   A    
Cu4   O7    S    
C6    C84   A    
O18   C90   S    
C38   O20   S    
C91   H37   S    
C89   H30   S    
C10   C14   A    
C90   H34   S    
C71   C73   A    
C44   H10   S    
C35   N3    A    
C49   C51   A    
C22   H14   S    
C40   O10   A    
C3    O7    A    
C71   H19   S    
C51   C53   A    
C50   C58   A    
C37   C43   A    
C15   C19   A    
C43   H9    S    
C38   C44   A    
C37   O19   S    
Cu3   O14   S    
Cu2   O12   S    
Cu2   Cu4   S    
C92   H38   S    
C2    O6    A    
C45   C49   A    
C16   C20   A    
C23   H15   S    
C92   H40   S    
C58   H8    S    
C76   H28   S    
C60   N2    A    
C43   C45   A    
C95   H49   S    
C56   H12   S    
C91   H35   S    
C19   F9    S    
C2    O2    A    
C72   C74   A    
O22   C94   S    
C7    C81   A    
Cu4   N4    S    
C40   C65   S    
C70   C76   A    
O20   C92   S    
C39   C66   S    
C17   C85   A    
C32   C88   A    
Cu1   Cu3   S    
C36   N4    A    
C14   O22   S    
Cu4   O16   S    
C41   O11   A    
C35   C37   A    
C47   C55   A    
C39   O9    A    
C7    C9    A    
C12   C64   A    
C78   H22   S    
C4    O4    A    
C73   C77   A    
Cu1   O10   S    
C54   F2    S    
C29   C85   A    
C93   H43   S    
C84   C88   A    
C89   H29   S    
C48   N4    A    
C76   C80   A    
C79   C81   A    
C54   C56   A    
C47   N3    A    
Cu3   O5    S    
C33   C51   A    
Cu4   O8    S    
C46   C50   A    
C19   C87   A    
C13   C17   A    
C28   H4    S    
C93   H42   S    
C75   H27   S    
C82   C86   A    
C90   H32   S    
C20   F10   S    
Cu2   O11   S    
C4    O8    A    
C42   C67   S    
Cu1   N1    S    
C17   F7    S    
C7    C23   A    
C20   C88   A    
C36   C38   A    
C1    C30   S    
C8    C24   A    
C80   C82   A    
C21   H13   S    
C69   C75   A    
C53   F1    S    
C3    C32   S    
C95   H48   S    
C41   O15   A    
C4    C31   S    
C27   C67   A    
C24   C68   A    
C57   N1    A    
C96   H50   S    
C78   C84   A    
C8    C82   A    
C5    C21   A    
C8    C10   A    
C74   C78   A    
C25   C65   A    
Cu2   O4    S    
C94   H46   S    
C33   H5    S    
O19   C91   S    
Cu4   O15   S    
C75   C79   A    
C81   C85   A    
C35   O17   S    
C96   H51   S    
C57   H7    S    
