data_mof_unit_10781.cif
_audit_creation_date              2013-03-05T15:52:32-0500
_audit_creation_method            fapswitch 2.2
_symmetry_space_group_name_H-M    P1
_symmetry_Int_Tables_number       1
_space_group_crystal_system       triclinic
_cell_length_a                    6.951835
_cell_length_b                    20.472064
_cell_length_c                    24.414823
_cell_angle_alpha                 89.712646
_cell_angle_beta                  90.407468
_cell_angle_gamma                 89.475298
_cell_volume                      3474.40040684

loop_
_atom_site_label
_atom_site_type_symbol
_atom_site_description
_atom_site_fract_x
_atom_site_fract_y
_atom_site_fract_z
_atom_type_partial_charge
O1    O     O_R   0.507310 0.423620 0.460450 -0.588613
O2    O     O_R   0.170760 0.556060 0.437190 -0.590816
O3    O     O_R   0.004040 0.576380 0.539550 -0.588812
C1    C     C_R   0.338856 0.576189 0.421232 0.977068
O4    O     O_R   0.177350 0.422870 0.454070 -0.591142
O5    O     O_R   0.010680 0.442240 0.556560 -0.590106
C2    C     C_R   0.346294 0.398935 0.443447 0.925957
O6    O     O_R   0.500670 0.557760 0.443440 -0.590080
O7    O     O_3   0.340380 0.506510 0.533610 -0.271582
V1    V     V_3+5 0.064130 0.498790 0.493770 1.163423
O8    O     O_R   0.681170 0.443940 0.562810 -0.591305
C3    C     C_R   0.850744 0.423853 0.578667 0.980451
O9    O     O_R   0.674570 0.577130 0.545930 -0.590277
C4    C     C_R   0.842611 0.601063 0.556657 0.922044
V2    V     V_3+5 0.564560 0.501210 0.506230 1.164403
O10   O     O_3   0.838170 0.493490 0.466390 -0.271752
C5    C     C_R   0.977203 0.838110 0.911171 -0.160139
C6    C     C_R   0.846632 0.662109 0.588548 -0.101524
C7    C     C_R   0.044283 0.721743 0.906587 0.363938
C8    C     C_R   0.034214 0.779842 0.936272 -0.261516
C9    C     C_R   0.929922 0.838831 0.855216 -0.220711
C10   C     C_R   0.944614 0.781292 0.822725 0.126032
C11   C     C_R   0.005248 0.722485 0.849397 -0.014272
C12   C     C_R   0.904937 0.780407 0.764665 0.039549
C13   C     C_R   0.929793 0.721318 0.734140 0.070356
C14   C     C_R   0.997298 0.665350 0.762355 -0.199104
C15   C     C_R   0.033784 0.666037 0.818247 -0.138178
C16   C     C_R   0.843206 0.836933 0.736127 -0.299153
C17   C     C_R   0.805765 0.836910 0.679921 0.316718
C18   C     C_R   0.821826 0.778441 0.649972 -0.017488
C19   C     C_R   0.886535 0.720015 0.676443 0.085326
C20   C     C_R   0.767144 0.776916 0.594236 -0.075619
C21   C     C_R   0.778623 0.719531 0.564209 -0.181772
C22   C     C_R   0.900506 0.662176 0.644125 -0.200299
H1    H     H_    0.089492 0.621482 0.836577 0.178396
H2    H     H_    0.945940 0.615816 0.660985 0.094533
H3    H     H_    0.731994 0.719769 0.521753 0.112794
H4    H     H_    0.068867 0.779463 0.979640 0.154873
H5    H     H_    0.888449 0.885594 0.838375 0.122346
H6    H     H_    0.025886 0.619606 0.742364 0.127991
H7    H     H_    0.825152 0.883170 0.756207 0.180412
H8    H     H_    0.709223 0.819632 0.573532 0.166033
C23   C     C_3   0.712602 0.229506 0.783249 0.246975
C24   C     C_3   0.046463 0.269402 0.802484 -0.449016
C25   C     C_3   0.026438 0.319018 0.754185 -0.395313
H9    H     H_    0.627432 0.324955 0.748709 0.145624
H10   H     H_    0.669770 0.256272 0.820982 0.060429
H11   H     H_    0.200803 0.256188 0.808439 0.216527
H12   H     H_    0.997404 0.292871 0.841022 0.165817
H13   H     H_    0.968019 0.366141 0.769732 0.168873
H14   H     H_    0.171262 0.328981 0.737038 0.167651
C26   C     C_1   0.862745 0.378321 0.624362 -0.286219
C27   C     C_3   0.926909 0.207106 0.791092 0.185541
C28   C     C_3   0.692667 0.278415 0.734058 -0.517286
C29   C     C_3   0.892309 0.292228 0.708558 0.358055
C30   C     C_3   0.977883 0.226323 0.688541 -0.388552
C31   C     C_3   0.003650 0.177305 0.736994 -0.294015
C32   C     C_1   0.874961 0.339772 0.662301 -0.053168
C33   C     C_1   0.947476 0.159765 0.837455 0.035778
C34   C     C_1   0.961104 0.121406 0.875479 -0.206597
H15   H     H_    0.930431 0.130715 0.727479 0.215728
H16   H     H_    0.159019 0.164971 0.741839 0.219083
H17   H     H_    0.881516 0.204792 0.656977 0.191655
H18   H     H_    0.593721 0.259315 0.702031 0.198754
H19   H     H_    0.119682 0.234644 0.668924 0.167481
C35   C     C_3   0.593246 0.701167 0.266134 -0.390712
C36   C     C_3   0.239766 0.695641 0.244792 -0.395701
C37   C     C_3   0.266800 0.745033 0.196745 -0.373114
H20   H     H_    0.656280 0.723580 0.180094 0.169082
H21   H     H_    0.616398 0.650585 0.250890 0.160399
H22   H     H_    0.091419 0.700634 0.261211 0.155688
H23   H     H_    0.255534 0.644909 0.229190 0.164035
H24   H     H_    0.295493 0.717774 0.158293 0.175715
H25   H     H_    0.131119 0.773406 0.190277 0.153430
C38   C     C_1   0.475332 0.878241 0.124682 -0.269380
C39   C     C_3   0.389079 0.707620 0.291123 0.404902
C40   C     C_3   0.620230 0.750633 0.218142 -0.390993
C41   C     C_3   0.435192 0.792325 0.208829 0.399319
C42   C     C_3   0.389734 0.828439 0.263030 -0.394573
C43   C     C_3   0.362865 0.779005 0.311059 -0.382023
C44   C     C_1   0.459809 0.839760 0.162634 -0.088110
C45   C     C_1   0.364454 0.660200 0.337332 -0.094730
C46   C     C_1   0.348932 0.621748 0.375307 -0.279421
H26   H     H_    0.469036 0.789463 0.344125 0.158832
H27   H     H_    0.216927 0.785566 0.328771 0.155791
H28   H     H_    0.508612 0.862412 0.273264 0.157296
H29   H     H_    0.704151 0.710022 0.298285 0.153456
H30   H     H_    0.743719 0.783045 0.227524 0.151452
H31   H     H_    0.256520 0.858478 0.257902 0.155309
C47   C     C_R   0.471817 0.161778 0.088767 -0.100460
C48   C     C_R   0.352687 0.338251 0.411259 -0.102060
C49   C     C_R   0.530073 0.277771 0.093951 -0.166140
C50   C     C_R   0.522246 0.220473 0.063654 -0.159980
C51   C     C_R   0.429774 0.160616 0.145034 -0.246611
C52   C     C_R   0.440049 0.218393 0.177301 0.111439
C53   C     C_R   0.490877 0.277246 0.150271 0.176860
C54   C     C_R   0.404382 0.219860 0.235231 0.062431
C55   C     C_R   0.420213 0.280164 0.264798 0.061375
C56   C     C_R   0.470579 0.336953 0.235421 -0.197639
C57   C     C_R   0.504646 0.335335 0.179505 -0.227410
C58   C     C_R   0.354043 0.163069 0.264610 -0.198403
C59   C     C_R   0.319978 0.164686 0.320526 -0.230981
C60   C     C_R   0.333716 0.222777 0.349758 0.177045
C61   C     C_R   0.384527 0.281632 0.322727 0.111290
C62   C     C_R   0.294501 0.222253 0.406076 -0.164294
C63   C     C_R   0.302281 0.279553 0.436371 -0.157720
C64   C     C_R   0.394753 0.339413 0.354992 -0.244578
H32   H     H_    0.543506 0.380307 0.158884 0.141600
H33   H     H_    0.430203 0.386267 0.337746 0.101556
H34   H     H_    0.267579 0.278215 0.479560 0.115527
H35   H     H_    0.281139 0.119713 0.341147 0.137570
H36   H     H_    0.569619 0.322661 0.073354 0.129400
H37   H     H_    0.556917 0.221810 0.020463 0.117148
H38   H     H_    0.394285 0.113763 0.162278 0.100296
H39   H     H_    0.485645 0.383939 0.254462 0.132175
H40   H     H_    0.339006 0.116080 0.245571 0.130467
H41   H     H_    0.254968 0.177362 0.426674 0.129602
O11   O     O_R   0.323590 0.942280 0.056590 -0.592845
O12   O     O_R   0.647030 0.077140 0.045940 -0.594074
O13   O     O_R   0.813570 0.057750 0.943430 -0.581611
C65   C     C_R   0.478121 0.101097 0.056574 0.925297
O14   O     O_R   0.653510 0.943950 0.062820 -0.593621
O15   O     O_R   0.820100 0.923600 0.960440 -0.588236
C66   C     C_R   0.485410 0.923828 0.078779 0.975784
O16   O     O_R   0.317060 0.076430 0.039590 -0.591682
O17   O     O_3   0.483830 0.993520 0.966410 -0.257449
V3    V     V_3+5 0.760140 0.001200 0.006230 1.180233
O18   O     O_R   0.149560 0.922820 0.954030 -0.588253
C67   C     C_R   0.981473 0.898956 0.943285 0.963570
O19   O     O_R   0.143080 0.056020 0.937150 -0.577033
C68   C     C_R   0.973471 0.076065 0.921278 0.966534
V4    V     V_3+5 0.259690 0.998730 0.993720 1.194601
O20   O     O_3   0.986120 0.006480 0.033580 -0.281052
N1    N     N_R   0.582503 0.173848 0.777024 0.229879
O21   O     O_R   0.575777 0.140614 0.731755 -0.394150
O22   O     O_R   0.469910 0.157687 0.817121 -0.434723
N2    N     N_R   0.752983 0.897642 0.653807 0.236918
O23   O     O_R   0.851761 0.918909 0.612410 -0.383466
O24   O     O_R   0.630778 0.936943 0.677178 -0.352713
N3    N     N_R   0.093575 0.662454 0.935393 0.229598
O25   O     O_R   0.226929 0.662837 0.973065 -0.387366
O26   O     O_R   0.982394 0.611861 0.931568 -0.391781

loop_
_geom_bond_atom_site_label_1
_geom_bond_atom_site_label_2
_geom_bond_distance
_ccdc_geom_bond_type
C24   H12   1.112905 S    
C13   C19   1.438746 A    
C29   C30   1.552148 S    
O17   V3    2.154091 S    
O13   C68   1.297263 A    
C4    C6    1.476133 S    
C62   C63   1.391157 A    
H20   C40   1.112818 S    
C7    C8    1.397383 A    
C41   C44   1.496380 S    
C1    O6    1.297392 A    
O18   C67   1.296267 A    
C54   C55   1.437919 A    
C27   C33   1.491700 S    
O13   V3    1.956339 S    
C31   H16   1.112318 S    
C40   C41   1.551997 S    
N2    O24   1.301401 A    
C14   C15   1.386349 A    
C17   C18   1.409749 A    
C16   C17   1.394927 A    
N3    O26   1.301343 A    
O5    C3    1.297450 A    
C18   C19   1.424419 A    
C25   H14   1.113282 S    
C37   H25   1.113086 S    
V2    O10   2.147417 S    
C16   H7    1.074893 S    
C49   C53   1.403679 A    
C5    C8    1.391455 A    
C30   C31   1.555725 S    
C36   H23   1.112779 S    
O14   V3    1.961195 S    
O8    V2    1.972415 S    
C24   C27   1.553782 S    
C23   C27   1.564955 S    
C52   C53   1.419574 A    
C40   H30   1.113056 S    
C7    N3    1.437238 S    
O19   V4    1.972486 S    
O1    V2    1.988424 S    
C11   C15   1.399979 A    
V4    O20   2.147437 S    
O7    V1    2.154004 S    
C22   H2    1.076425 S    
C43   H26   1.112879 S    
C35   C39   1.553665 S    
C33   C34   1.215562 T    
O9    C4    1.296431 A    
O15   C67   1.298816 A    
C64   H33   1.076978 S    
C48   C63   1.395025 A    
C62   H41   1.083963 S    
C59   H35   1.084387 S    
C59   C60   1.393711 A    
O18   V4    1.991611 S    
C34   C68   1.451222 S    
C3    C26   1.451650 S    
C47   C51   1.406669 A    
O12   C65   1.296852 A    
C37   C41   1.553534 S    
C57   H32   1.084386 S    
C5    C67   1.475583 S    
C38   C66   1.457277 S    
C51   H38   1.076978 S    
C58   C59   1.387729 A    
C39   C43   1.552209 S    
C12   C13   1.433736 A    
V3    O20   1.707175 S    
C39   C45   1.496447 S    
C35   H29   1.113029 S    
O4    C2    1.296840 A    
C27   C31   1.553540 S    
C41   C42   1.552125 S    
C38   C44   1.219210 T    
N1    O22   1.301103 A    
C15   H1    1.081298 S    
C37   H24   1.112848 S    
C21   H3    1.083824 S    
C36   C37   1.558386 S    
C23   N1    1.469030 S    
O2    C1    1.304167 A    
C65   O16   1.298644 A    
C43   H27   1.112939 S    
C48   C64   1.406678 A    
C8    H4    1.084185 S    
C23   C28   1.564322 S    
O15   V3    1.989884 S    
C56   C57   1.387735 A    
C9    H5    1.076112 S    
O17   V4    1.701864 S    
C2    C48   1.473856 S    
H9    C28   1.113193 S    
C30   H17   1.112850 S    
C60   C62   1.403667 A    
O11   C66   1.297374 A    
N3    O25   1.301365 A    
C6    C22   1.405084 A    
O3    C4    1.299067 A    
C26   C32   1.215851 T    
C45   C46   1.219248 T    
O6    V2    1.962329 S    
O9    V2    1.991571 S    
C47   C65   1.473829 S    
C10   C12   1.442419 A    
O14   C66   1.304164 A    
O2    V1    1.961268 S    
C19   C22   1.429123 A    
C24   C25   1.557139 S    
C7    C11   1.420493 A    
C47   C50   1.395017 A    
C63   H34   1.083633 S    
C35   C40   1.558317 S    
C28   C29   1.552898 S    
O1    C2    1.298655 A    
C49   H36   1.083961 S    
C12   C16   1.409718 A    
O5    V1    1.956173 S    
O8    C3    1.300663 A    
C52   C54   1.438075 A    
C31   H15   1.110056 S    
N1    O21   1.301548 A    
C17   N2    1.437797 S    
N2    O23   1.301363 A    
C20   C21   1.389875 A    
O19   C68   1.300719 A    
C13   C14   1.408989 A    
O4    V1    1.994544 S    
O3    V1    1.989765 S    
V1    O10   1.707361 S    
C18   C20   1.410843 A    
O16   V4    1.991647 S    
C14   H6    1.075754 S    
C35   H21   1.112835 S    
C1    C46   1.457349 S    
C28   H18   1.112557 S    
C25   H13   1.112822 S    
C55   C61   1.438076 A    
C53   C57   1.393707 A    
C56   H39   1.076097 S    
C49   C50   1.391162 A    
C50   H37   1.083641 S    
C36   H22   1.113117 S    
C42   H28   1.112854 S    
O7    V2    1.702907 S    
C51   C52   1.426484 A    
C6    C21   1.391901 A    
C5    C9    1.402822 A    
C42   H31   1.112930 S    
O11   V4    1.962670 S    
C42   C43   1.558469 S    
C24   H11   1.112473 S    
C25   C29   1.553035 S    
C55   C56   1.411143 A    
C29   C32   1.490724 S    
C60   C61   1.419574 A    
C58   H40   1.076097 S    
C20   H8    1.081014 S    
C10   C11   1.424806 A    
C36   C39   1.551717 S    
C9    C10   1.426734 A    
C23   H10   1.115162 S    
C61   C64   1.426496 A    
C54   C58   1.411145 A    
C30   H19   1.113165 S    
O12   V3    1.994682 S    
