data_mof_unit_28488.cif
_audit_creation_date              2012-12-11T16:25:35-0500
_audit_creation_method            fapswitch 2.2
_symmetry_space_group_name_H-M    P1
_symmetry_Int_Tables_number       1
_space_group_crystal_system       triclinic
_cell_length_a                    20.416541
_cell_length_b                    7.264162
_cell_length_c                    13.255932
_cell_angle_alpha                 89.451656
_cell_angle_beta                  103.454066
_cell_angle_gamma                 90.719901
_cell_volume                      1911.8265304

loop_
_atom_site_label
_atom_site_type_symbol
_atom_type_description
_atom_site_fract_x
_atom_site_fract_y
_atom_site_fract_z
_atom_type_partial_charge
O1    O     O_R   0.449520 0.506760 0.599710 -0.509338
O2    O     O_R   0.550480 0.006760 0.400290 -0.543605
O3    O     O_R   0.587930 0.180200 0.595790 -0.556500
O4    O     O_R   0.412070 0.680200 0.404210 -0.517689
C1    C     C_R   0.614210 0.345146 0.618698 0.730908
C2    C     C_R   0.386459 0.844171 0.379653 0.790143
O5    O     O_R   0.452350 0.177380 0.611700 -0.558060
O6    O     O_R   0.547650 0.677380 0.388300 -0.517625
O7    O     O_R   0.413930 0.001760 0.416320 -0.548925
O8    O     O_R   0.586070 0.501760 0.583680 -0.515589
C3    C     C_R   0.435240 0.343482 0.637376 0.802149
C4    C     C_R   0.564094 0.846898 0.362087 0.815320
O9    O     O_3   0.487550 0.337460 0.435880 -0.385595
O10   O     O_3   0.512450 0.837460 0.564120 -0.386393
V1    V     V_3+5 0.502310 0.064670 0.511900 1.478680
V2    V     V_3+5 0.497690 0.564670 0.488100 1.593529
C5    C     C_R   0.613908 0.961948 0.112385 -0.146930
C6    C     C_R   0.383359 0.247003 0.887348 -0.144628
H1    H     H_    0.524612 0.993268 0.168926 0.158214
H2    H     H_    0.473310 0.215667 0.835218 0.154770
H3    H     H_    0.695386 0.970310 0.982327 0.100536
H4    H     H_    0.301437 0.238435 0.015167 0.101897
H5    H     H_    0.590316 0.016777 0.036455 0.128042
H6    H     H_    0.406606 0.195696 0.964267 0.127616
C7    C     C_R   0.603681 0.861727 0.282723 -0.190869
C8    C     C_R   0.395070 0.340580 0.716583 -0.171358
C9    C     C_R   0.927719 0.863137 0.321344 0.592487
C10   C     C_R   0.071292 0.412199 0.679364 0.595569
C11   C     C_R   0.891950 0.855630 0.398219 -0.277372
C12   C     C_R   0.105915 0.403711 0.600995 -0.285755
C13   C     C_R   0.822057 0.848720 0.373198 0.638941
C14   C     C_R   0.174737 0.369558 0.624061 0.645277
C15   C     C_R   0.785542 0.847968 0.267941 0.032955
C16   C     C_R   0.211886 0.357622 0.728666 0.026531
C17   C     C_R   0.822836 0.862772 0.189022 -0.090026
C18   C     C_R   0.174731 0.345641 0.807768 -0.096582
C19   C     C_R   0.713614 0.854771 0.238679 0.085242
C20   C     C_R   0.283831 0.345449 0.757517 0.059700
C21   C     C_R   0.682275 0.915355 0.136945 0.099857
C22   C     C_R   0.314836 0.289354 0.860413 0.100555
C23   C     C_R   0.719536 0.930872 0.061169 -0.118420
C24   C     C_R   0.277396 0.274985 0.935806 -0.114406
C25   C     C_R   0.788244 0.896240 0.085692 -0.066029
C26   C     C_R   0.208837 0.308317 0.910749 -0.078258
C27   C     C_R   0.671216 0.807342 0.306242 0.660983
C28   C     C_R   0.326848 0.389483 0.689892 0.646321
C29   C     C_R   0.576065 0.945477 0.187043 -0.259600
C30   C     C_R   0.422037 0.262802 0.814241 -0.220550
C31   C     C_R   0.894372 0.859120 0.216335 -0.222409
C32   C     C_R   0.103987 0.371069 0.782094 -0.214018
H7    H     H_    0.918790 0.864887 0.478785 0.200441
H8    H     H_    0.078777 0.420216 0.520949 0.198728
H9    H     H_    0.814765 0.909245 0.024083 0.097263
H10   H     H_    0.182458 0.298449 0.972624 0.107779
H11   H     H_    0.110374 0.780517 0.482899 0.197385
H12   H     H_    0.890516 0.236857 0.520194 0.187417
C33   C     C_R   0.232204 0.845155 0.022943 0.192341
C34   C     C_R   0.768632 0.407785 0.973426 0.200205
C35   C     C_R   0.287909 0.817431 0.979712 0.571337
C36   C     C_R   0.712341 0.439810 0.014734 0.536936
C37   C     C_R   0.351347 0.793124 0.042483 -0.341140
C38   C     C_R   0.648370 0.440753 0.951443 -0.258522
C39   C     C_R   0.362537 0.799220 0.150709 0.239453
C40   C     C_R   0.637726 0.405713 0.846144 0.228399
C41   C     C_R   0.307907 0.832411 0.198445 -0.003903
C42   C     C_R   0.692891 0.379234 0.798678 -0.051633
C43   C     C_R   0.241006 0.846500 0.133536 -0.108940
C44   C     C_R   0.759910 0.381168 0.863649 -0.097564
C45   C     C_R   0.318023 0.849239 0.308795 -0.050058
C46   C     C_R   0.682912 0.353800 0.689061 -0.041986
C47   C     C_R   0.261679 0.855175 0.353836 -0.110547
C48   C     C_R   0.739127 0.330226 0.645048 -0.094890
C49   C     C_R   0.195580 0.838493 0.290362 -0.095910
C50   C     C_R   0.805291 0.320557 0.709498 -0.096048
C51   C     C_R   0.184748 0.853324 0.180796 -0.090222
C52   C     C_R   0.816013 0.353210 0.817927 -0.093371
C53   C     C_R   0.270071 0.866652 0.462907 -0.138886
C54   C     C_R   0.730342 0.315976 0.536029 -0.142832
C55   C     C_R   0.215334 0.847399 0.508262 0.683767
C56   C     C_R   0.784789 0.288241 0.491788 0.675300
C57   C     C_R   0.151917 0.808413 0.446820 -0.184032
C58   C     C_R   0.848685 0.265952 0.554773 -0.173126
C59   C     C_R   0.142026 0.800546 0.339223 0.581579
C60   C     C_R   0.859188 0.278713 0.662223 0.566962
H13   H     H_    0.392733 0.769549 0.005920 0.165735
H14   H     H_    0.605702 0.462129 0.985486 0.180771
H15   H     H_    0.319055 0.886856 0.514583 0.150345
H16   H     H_    0.681352 0.327712 0.483396 0.160540
O11   O     O_R   0.913760 0.203480 0.916370 -0.523595
O12   O     O_R   0.086240 0.703480 0.083630 -0.516208
O13   O     O_R   0.047590 0.535230 0.888250 -0.532182
O14   O     O_R   0.952410 0.035230 0.111750 -0.535604
C61   C     C_R   0.064332 0.370453 0.862072 0.835773
C62   C     C_R   0.935024 0.867848 0.137271 0.828633
O15   O     O_R   0.912020 0.532880 0.904260 -0.541757
O16   O     O_R   0.087980 0.032880 0.095740 -0.550186
O17   O     O_R   0.949590 0.708460 0.099750 -0.521642
O18   O     O_R   0.050410 0.208460 0.900250 -0.524183
C63   C     C_R   0.885996 0.364038 0.882620 0.906454
C64   C     C_R   0.114444 0.864696 0.116386 0.898722
O19   O     O_3   0.012370 0.375360 0.064120 -0.380770
O20   O     O_3   0.987630 0.875360 0.935880 -0.380168
V3    V     V_3+5 0.997700 0.648160 0.988110 1.629931
V4    V     V_3+5 0.002300 0.148160 0.011890 1.610422
O21   O     O_3   0.169273 0.871178 0.958045 -0.652372
H17   H     H_    0.171825 0.867938 0.884386 0.352125
O22   O     O_3   0.831845 0.398631 0.039700 -0.650273
H18   H     H_    0.829262 0.420502 0.112293 0.350986
F1    F     F_    0.280846 0.811873 0.875313 -0.651373
F2    F     F_    0.719088 0.465659 0.117998 -0.666305
O23   O     O_3   0.426421 0.766361 0.209975 -0.659010
H19   H     H_    0.455532 0.721784 0.165179 0.282003
O24   O     O_3   0.572042 0.393355 0.792529 -0.649822
H20   H     H_    0.565297 0.262021 0.772836 0.260378
F3    F     F_    0.224592 0.856161 0.612815 -0.624061
F4    F     F_    0.775123 0.277800 0.387229 -0.637551
F5    F     F_    0.081851 0.736405 0.284475 -0.648938
F6    F     F_    0.921965 0.241575 0.718586 -0.660594
F7    F     F_    0.692871 0.697759 0.390647 -0.636591
F8    F     F_    0.305076 0.488602 0.601490 -0.640085
F9    F     F_    0.994917 0.891361 0.350428 -0.641197
F10   F     F_    0.005168 0.456456 0.654082 -0.638419
F11   F     F_    0.792084 0.871251 0.453213 -0.639338
F12   F     F_    0.201948 0.329524 0.542979 -0.631971

loop_
_geom_bond_atom_site_label_1
_geom_bond_atom_site_label_2
_ccdc_geom_bond_type
C2    C45   S    
C42   C44   A    
C39   C41   A    
C55   F3    S    
C9    C11   A    
C23   C25   A    
C14   F12   S    
C33   O21   S    
O23   H19   S    
O1    C3    A    
O2    C4    A    
C2    O7    A    
C9    F9    S    
O3    V1    S    
C21   C23   A    
H4    C24   S    
C52   C63   S    
O5    C3    A    
C38   H14   S    
C5    H5    S    
C50   C52   A    
O11   C63   A    
C6    H6    S    
C20   C22   A    
O15   C63   A    
C33   C35   A    
C34   C36   A    
C36   C38   A    
C34   O22   S    
C5    C21   A    
C45   C47   A    
C6    C22   A    
C48   C54   A    
C35   F1    S    
C10   C32   A    
C25   H9    S    
C56   F4    S    
C41   C43   A    
C17   C31   A    
C38   C40   A    
O22   H18   S    
C13   C15   A    
C31   C62   S    
H11   C57   S    
C17   C25   A    
C7    C29   A    
C8    C30   A    
C27   F7    S    
O5    V1    S    
O6    V2    S    
C49   C51   A    
C24   C26   A    
C33   C43   A    
O12   C64   A    
C57   C59   A    
O15   V3    S    
C53   C55   A    
O9    V2    S    
C35   C37   A    
C48   C50   A    
C50   C60   A    
C47   C49   A    
O14   V4    S    
C3    C8    S    
C15   C19   A    
C40   C42   A    
O4    V2    S    
C1    C46   S    
O13   C61   A    
O6    C4    A    
O14   C62   A    
C54   C56   A    
C28   F8    S    
O1    V2    S    
H2    C30   S    
O2    V1    S    
O17   V3    S    
C37   H13   S    
H3    C23   S    
C56   C58   A    
O19   V4    S    
C58   C60   A    
O16   V4    S    
O11   V4    S    
C18   C26   A    
O4    C2    A    
C43   C51   A    
C19   C27   A    
C7    C27   A    
C60   F6    S    
C47   C53   A    
C18   C32   A    
C55   C57   A    
O24   H20   S    
C11   H7    S    
C10   F10   S    
C54   H16   S    
C12   H8    S    
C40   O24   S    
C16   C20   A    
C37   C39   A    
C5    C29   A    
O13   V3    S    
O3    C1    A    
C6    C30   A    
C32   C61   S    
H12   C58   S    
C44   C52   A    
O21   H17   S    
C62   O17   A    
C4    C7    S    
C59   F5    S    
C10   C12   A    
O7    V1    S    
C13   F11   S    
C1    O8    A    
C19   C21   A    
O8    V2    S    
C12   C14   A    
C34   C44   A    
C42   C46   A    
C41   C45   A    
O16   C64   A    
C22   C24   A    
C51   C64   S    
C15   C17   A    
C49   C59   A    
C16   C18   A    
C39   O23   S    
O20   V3    S    
O12   V3    S    
C20   C28   A    
C36   F2    S    
C8    C28   A    
C26   H10   S    
C53   H15   S    
C11   C13   A    
H1    C29   S    
O10   V1    S    
C46   C48   A    
C61   O18   A    
O18   V4    S    
C9    C31   A    
C14   C16   A    
