data_mof_unit_5397.cif
_audit_creation_date              2012-12-10T17:03:55-0500
_audit_creation_method            fapswitch 2.2
_symmetry_space_group_name_H-M    P1
_symmetry_Int_Tables_number       1
_space_group_crystal_system       triclinic
_cell_length_a                    9.899016
_cell_length_b                    11.013354
_cell_length_c                    15.583545
_cell_angle_alpha                 96.084847
_cell_angle_beta                  79.417244
_cell_angle_gamma                 110.762054
_cell_volume                      1560.04359241

loop_
_atom_site_label
_atom_site_type_symbol
_atom_type_description
_atom_site_fract_x
_atom_site_fract_y
_atom_site_fract_z
_atom_type_partial_charge
C1    C     C_R   0.554992 0.745160 0.507562 0.857909
C2    C     C_R   0.443424 0.254814 0.494930 0.870622
C3    C     C_R   0.304209 0.332097 0.068676 -0.028504
C4    C     C_R   0.652598 0.403360 0.914678 -0.027941
C5    C     C_R   0.205786 0.323094 0.012183 -0.269706
C6    C     C_R   0.754705 0.433886 0.971948 -0.267908
C7    C     C_2   0.581935 0.884082 0.517318 -0.348090
C8    C     C_2   0.411544 0.115421 0.491561 -0.346496
C9    C     C_2   0.479504 0.929903 0.504985 -0.135702
C10   C     C_2   0.502495 0.067562 0.517673 -0.150913
C11   C     C_2   0.927921 0.497217 0.486133 0.256009
C12   C     C_2   0.082132 0.521481 0.501098 0.250744
C13   C     C_R   0.411473 0.482419 0.663122 0.786560
C14   C     C_R   0.587079 0.510272 0.336453 0.800272
C15   C     C_R   0.356143 0.450403 0.755613 -0.078472
C16   C     C_R   0.634380 0.499455 0.241237 -0.070458
C17   C     C_R   0.156158 0.359728 0.872302 -0.165164
C18   C     C_R   0.819728 0.493404 0.116912 -0.166892
C19   C     C_R   0.205783 0.399987 0.786744 -0.170301
C20   C     C_R   0.780015 0.514417 0.206345 -0.168819
C21   C     C_R   0.455511 0.456789 0.810978 -0.169086
C22   C     C_R   0.529560 0.463761 0.185077 -0.175932
C23   C     C_R   0.407425 0.404251 0.894173 0.113120
C24   C     C_R   0.564830 0.431736 0.095966 0.109735
C25   C     C_R   0.256033 0.363501 0.926712 0.120544
C26   C     C_R   0.713685 0.453886 0.061358 0.130034
C27   C     C_R   0.506853 0.399087 0.947878 -0.019129
C28   C     C_R   0.457768 0.387630 0.039156 -0.019809
Cu1   Cu    Cu3+1 0.362980 0.479380 0.485080 0.966019
Cu2   Cu    Cu3+1 0.637020 0.520620 0.514920 0.970661
H1    H     H_    0.088949 0.282420 0.034449 0.181848
H2    H     H_    0.866700 0.440758 0.946933 0.171833
H3    H     H_    0.420356 0.462639 0.211391 0.152558
H4    H     H_    0.571058 0.503062 0.788581 0.150084
H5    H     H_    0.863404 0.543050 0.247918 0.156592
H6    H     H_    0.126429 0.389636 0.744830 0.169836
H7    H     H_    0.039512 0.323211 0.895403 0.147991
H8    H     H_    0.933449 0.507640 0.091165 0.143551
H9    H     H_    0.596352 0.130472 0.546650 0.187611
H10   H     H_    0.378796 0.865975 0.483313 0.183382
H11   H     H_    0.314889 0.051623 0.465304 0.153929
H12   H     H_    0.684612 0.948958 0.536362 0.151676
H13   H     H_    0.106656 0.367850 0.425714 0.187906
H14   H     H_    0.878348 0.604082 0.592359 0.186244
N1    N     N_2   0.842890 0.551600 0.537350 -0.291413
N2    N     N_2   0.157110 0.448400 0.462650 -0.291017
O1    O     O_R   0.426810 0.668300 0.492040 -0.539762
O2    O     O_R   0.573190 0.331700 0.507960 -0.549647
O3    O     O_R   0.658240 0.703130 0.517240 -0.578950
O4    O     O_R   0.341760 0.296870 0.482760 -0.575088
O5    O     O_R   0.319390 0.472820 0.610170 -0.567934
O6    O     O_R   0.680610 0.527180 0.389830 -0.548408
O7    O     O_R   0.550820 0.507640 0.635370 -0.569197
O8    O     O_R   0.449180 0.492360 0.364630 -0.572332
C29   C     C_2   0.242487 0.261760 0.151038 0.827985
O9    O     O_2   0.311278 0.206494 0.179701 -0.587333
O10   O     O_R   0.102730 0.253706 0.193854 -0.782584
H15   H     H_    0.071566 0.199614 0.247388 0.324109
C30   C     C_2   0.695597 0.354905 0.824808 0.828894
O11   O     O_2   0.604972 0.269881 0.787655 -0.587065
O12   O     O_R   0.841019 0.402357 0.783961 -0.804049
H16   H     H_    0.856348 0.359258 0.723941 0.316911
N3    N     N_2   0.151946 0.636255 0.550196 -0.386805
H17   H     H_    0.139435 0.718389 0.531771 0.213200
C31   C     C_3   0.129391 0.627719 0.644176 -0.592759
H18   H     H_    0.236653 0.667937 0.667522 0.236281
H19   H     H_    0.073956 0.525994 0.663871 0.228089
H20   H     H_    0.062072 0.686579 0.676724 0.191341
N4    N     N_2   0.881572 0.426196 0.408580 -0.372851
H21   H     H_    0.954141 0.460813 0.352816 0.228066
C32   C     C_3   0.830850 0.285636 0.410259 -0.617046
H22   H     H_    0.723880 0.244415 0.386747 0.250940
H23   H     H_    0.821036 0.252636 0.476771 0.202439
H24   H     H_    0.907271 0.246335 0.365019 0.188037

loop_
_geom_bond_atom_site_label_1
_geom_bond_atom_site_label_2
_ccdc_geom_bond_type
C32   H24   S    
C6    H2    S    
C11   C12   S    
C11   N4    S    
Cu1   Cu2   S    
C23   C27   A    
C24   C28   A    
C9    C10   S    
Cu2   N1    S    
C13   O7    A    
O12   H16   S    
C18   C26   A    
C13   C15   S    
Cu1   N2    S    
C16   C20   A    
C31   H20   S    
C17   C25   A    
C4    C27   A    
C29   O9    D    
N3    C31   S    
C18   H8    S    
C3    C5    A    
C30   O11   D    
C17   H7    S    
Cu2   O7    S    
C8    H11   S    
C15   C19   A    
O10   H15   S    
C6    C26   A    
C3    C29   S    
Cu1   O1    S    
C5    C25   A    
C2    C8    S    
C4    C30   S    
Cu2   O2    S    
C3    C28   A    
C14   O8    A    
Cu2   O3    S    
C24   C26   A    
C18   C20   A    
Cu1   O4    S    
C29   O10   S    
C21   C23   A    
N4    H21   S    
H13   N2    S    
C14   C16   S    
C30   O12   S    
C4    C6    A    
C11   N1    D    
Cu1   O8    S    
C17   C19   A    
N3    H17   S    
C7    C9    D    
C15   C21   A    
C23   C25   A    
C32   H22   S    
H14   N1    S    
C8    C10   D    
C31   H18   S    
Cu1   O5    S    
C7    H12   S    
C32   H23   S    
C27   C28   A    
N4    C32   S    
C12   N3    S    
Cu2   O6    S    
C1    O1    A    
C1    C7    S    
C16   C22   A    
C21   H4    S    
C2    O4    A    
C2    O2    A    
C19   H6    S    
C13   O5    A    
C20   H5    S    
C1    O3    A    
C9    H10   S    
C14   O6    A    
C31   H19   S    
C22   C24   A    
C10   H9    S    
C5    H1    S    
C12   N2    D    
C22   H3    S    
