data_mof_unit_44989.cif
_audit_creation_date              2012-12-10T19:14:26-0500
_audit_creation_method            fapswitch 2.2
_symmetry_space_group_name_H-M    P1
_symmetry_Int_Tables_number       1
_space_group_crystal_system       triclinic
_cell_length_a                    10.635049
_cell_length_b                    9.716526
_cell_length_c                    19.129699
_cell_angle_alpha                 90.373662
_cell_angle_beta                  90.15169
_cell_angle_gamma                 89.898567
_cell_volume                      1976.72941002

loop_
_atom_site_label
_atom_site_type_symbol
_atom_type_description
_atom_site_fract_x
_atom_site_fract_y
_atom_site_fract_z
_atom_type_partial_charge
C1    C     C_R   0.257568 0.499774 0.499908 0.835822
C2    C     C_3   0.071477 0.348238 0.499305 -0.388229
C3    C     C_3   0.927739 0.574789 0.565644 -0.383812
C4    C     C_3   0.928695 0.348079 0.500202 -0.388646
C5    C     C_3   0.071489 0.573317 0.433898 -0.389658
C6    C     C_3   0.121060 0.498683 0.499797 0.147337
C7    C     C_3   0.878662 0.498440 0.499729 0.135156
C8    C     C_R   0.507028 0.499316 0.364697 0.941641
C9    C     C_3   0.927152 0.571273 0.433264 -0.359384
C10   C     C_3   0.375047 0.081919 0.476596 -0.089373
C11   C     C_3   0.374849 0.918080 0.476874 -0.081308
C12   C     C_R   0.429583 0.470015 0.071007 0.244235
C13   C     C_3   0.597754 0.080013 0.451701 -0.238713
C14   C     C_3   0.597281 0.918490 0.451407 -0.240037
C15   C     C_3   0.526328 0.082040 0.569214 -0.261509
C16   C     C_3   0.526770 0.919568 0.569156 -0.263613
C17   C     C_R   0.742489 0.499603 0.499841 0.858128
C18   C     C_R   0.497901 0.500451 0.634401 0.817825
C19   C     C_R   0.504637 0.617222 0.246932 -0.048823
C20   C     C_R   0.498125 0.366874 0.252406 0.000324
C21   C     C_R   0.465049 0.611370 0.176509 -0.060171
C22   C     C_R   0.443744 0.360148 0.185601 -0.073351
C23   C     C_R   0.372489 0.556128 0.815675 -0.104564
C24   C     C_R   0.432795 0.482433 0.146793 -0.072851
C25   C     C_R   0.507694 0.495364 0.286923 -0.127985
C26   C     C_R   0.442577 0.467425 0.930436 0.311798
C27   C     C_2   0.559412 0.745755 0.275185 0.517808
C28   C     C_2   0.572983 0.247802 0.277714 0.443405
C29   C     C_1   0.333022 0.141897 0.409516 0.196716
C30   C     C_1   0.331667 0.856155 0.410126 0.199524
C31   C     C_2   0.462410 0.737196 0.131997 0.425304
C32   C     C_2   0.402916 0.225942 0.154483 0.420108
C33   C     C_2   0.292765 0.652783 0.704205 0.354508
C34   C     C_R   0.556067 0.408772 0.821398 -0.107054
C35   C     C_2   0.685747 0.353246 0.716858 0.398106
C36   C     C_R   0.386839 0.569532 0.743517 -0.006868
C37   C     C_R   0.574246 0.420728 0.749544 -0.015846
C38   C     C_R   0.488011 0.500011 0.710201 -0.209986
C39   C     C_R   0.455737 0.475674 0.854526 -0.025379
C40   C     C_3   0.071944 0.573054 0.566179 -0.383256
H1    H     H_    0.891119 0.678828 0.430944 0.191560
H2    H     H_    0.455876 0.882128 0.607189 0.162740
H3    H     H_    0.692150 0.117974 0.467774 0.165881
H4    H     H_    0.691742 0.879591 0.466743 0.167215
H5    H     H_    0.295856 0.608784 0.841821 0.201293
H6    H     H_    0.621553 0.348046 0.851847 0.200931
H7    H     H_    0.107289 0.680777 0.568486 0.178345
H8    H     H_    0.104550 0.292771 0.451678 0.189610
H9    H     H_    0.105837 0.518857 0.613729 0.172664
H10   H     H_    0.107073 0.291457 0.545759 0.176254
H11   H     H_    0.891794 0.524571 0.613744 0.166527
H12   H     H_    0.893018 0.516384 0.385607 0.204620
H13   H     H_    0.895492 0.293522 0.547752 0.177911
H14   H     H_    0.894059 0.683368 0.566225 0.180330
H15   H     H_    0.893399 0.290310 0.453645 0.198316
H16   H     H_    0.104108 0.682007 0.433731 0.189421
H17   H     H_    0.108051 0.522371 0.385752 0.182322
H18   H     H_    0.510188 0.843025 0.269647 0.088247
H19   H     H_    0.543433 0.142723 0.268446 0.115881
H20   H     H_    0.389430 0.749655 0.092898 0.102527
H21   H     H_    0.399820 0.210926 0.098303 0.104439
H22   H     H_    0.294320 0.657826 0.647828 0.078835
H23   H     H_    0.303402 0.116501 0.515257 0.109313
H24   H     H_    0.711688 0.374954 0.663288 0.053021
H25   H     H_    0.303581 0.885309 0.515899 0.108008
H26   H     H_    0.582380 0.116313 0.397944 0.186763
H27   H     H_    0.580473 0.882042 0.397584 0.190192
H28   H     H_    0.618606 0.120948 0.588423 0.166975
H29   H     H_    0.619476 0.881347 0.587991 0.168339
H30   H     H_    0.454802 0.120047 0.607051 0.167847
N1    N     N_R   0.531487 0.416802 0.038354 -0.139366
N2    N     N_R   0.332820 0.520204 0.032714 -0.162187
N3    N     N_R   0.537731 0.415165 0.969246 -0.154612
N4    N     N_R   0.339389 0.518896 0.963310 -0.158566
N5    N     N_3   0.499750 0.138610 0.498490 -0.069312
N6    N     N_3   0.499750 0.861390 0.498490 -0.069668
N7    N     N_1   0.298966 0.188042 0.357140 -0.176362
N8    N     N_1   0.296694 0.808700 0.357955 -0.222384
O1    O     O_R   0.314910 0.616040 0.499990 -0.639984
O2    O     O_2   0.674244 0.266962 0.306472 -0.585057
O3    O     O_2   0.543474 0.825608 0.136694 -0.540220
O4    O     O_2   0.365240 0.132646 0.191331 -0.568144
O5    O     O_2   0.210660 0.717333 0.734695 -0.561347
O6    O     O_2   0.751171 0.272871 0.749735 -0.558923
O7    O     O_R   0.314910 0.383960 0.499990 -0.632784
O8    O     O_R   0.500100 0.616080 0.398110 -0.606831
O9    O     O_R   0.500100 0.383920 0.398110 -0.597672
O10   O     O_R   0.685320 0.616040 0.499960 -0.627176
O11   O     O_R   0.685320 0.383960 0.499960 -0.630004
O12   O     O_R   0.500130 0.616000 0.601840 -0.631100
O13   O     O_R   0.500130 0.384000 0.601840 -0.625864
O14   O     O_2   0.664063 0.744043 0.301616 -0.579591
Zn1   Zn    Zn3+2 0.500150 0.654960 0.499970 0.929066
Zn2   Zn    Zn3+2 0.500150 0.345040 0.499970 0.934429

loop_
_geom_bond_atom_site_label_1
_geom_bond_atom_site_label_2
_ccdc_geom_bond_type
C40   H7    S    
C15   N5    S    
C23   H5    S    
C4    H13   S    
C34   C37   A    
C5    H16   S    
C10   H23   S    
C26   N3    A    
C21   C31   S    
C22   C32   S    
C18   O13   A    
C35   C37   S    
C32   H21   S    
O1    Zn1   S    
C3    C7    S    
C11   N6    S    
C5    C6    S    
C3    H14   S    
C26   C39   S    
C20   C25   A    
C15   C16   S    
C17   O10   A    
O9    Zn2   S    
C33   C36   S    
O7    Zn2   S    
O11   Zn2   S    
C2    H10   S    
C13   N5    S    
C11   C30   S    
C33   H22   S    
C7    C17   S    
C14   H27   S    
C35   H24   S    
C34   H6    S    
C19   C27   S    
C8    O8    A    
C12   N2    A    
C13   C14   S    
C8    C25   S    
C2    C6    S    
C9    H12   S    
C4    C7    S    
C28   O2    D    
C13   H26   S    
C1    O7    A    
C1    C6    S    
C18   O12   A    
C17   O11   A    
N2    N4    A    
N1    N3    A    
C3    H11   S    
C20   C28   S    
C2    H8    S    
C34   C39   A    
C14   N6    S    
C31   H20   S    
C2    C4    S    
C5    C9    S    
C37   C38   A    
O8    Zn1   S    
N6    Zn1   S    
C10   N5    S    
C27   O14   D    
C33   O5    D    
C12   N1    A    
C20   C22   A    
C3    C40   S    
C4    H15   S    
C1    O1    A    
C6    C40   S    
C16   H2    S    
C13   H3    S    
O12   Zn1   S    
C14   H4    S    
C28   H19   S    
C7    C9    S    
C15   H30   S    
O10   Zn1   S    
C19   C21   A    
C16   N6    S    
C16   H29   S    
C27   H18   S    
C35   O6    D    
C32   O4    D    
C12   C24   S    
C9    H1    S    
C31   O3    D    
C5    H17   S    
C8    O9    A    
C36   C38   A    
C18   C38   S    
O13   Zn2   S    
C10   C29   S    
C23   C39   A    
C15   H28   S    
C26   N4    A    
C22   C24   A    
C19   C25   A    
C10   C11   S    
C30   N8    T    
C11   H25   S    
C29   N7    T    
C23   C36   A    
C21   C24   A    
C40   H9    S    
N5    Zn2   S    
