data_mof_unit_27590.cif
_audit_creation_date              2012-12-10T18:45:11-0500
_audit_creation_method            fapswitch 2.2
_symmetry_space_group_name_H-M    P1
_symmetry_Int_Tables_number       1
_space_group_crystal_system       triclinic
_cell_length_a                    10.695614
_cell_length_b                    9.830469
_cell_length_c                    10.587817
_cell_angle_alpha                 87.360852
_cell_angle_beta                  90.713135
_cell_angle_gamma                 90.287201
_cell_volume                      1111.95592361

loop_
_atom_site_label
_atom_site_type_symbol
_atom_type_description
_atom_site_fract_x
_atom_site_fract_y
_atom_site_fract_z
_atom_type_partial_charge
C1    C     C_R   0.260123 0.499470 0.505598 0.948231
C2    C     C_R   0.739940 0.499577 0.503630 0.946194
C3    C     C_R   0.935837 0.601954 0.444691 -0.186185
C4    C     C_R   0.063569 0.602574 0.446491 -0.171093
C5    C     C_R   0.579048 0.076184 0.423744 0.031885
C6    C     C_R   0.421301 0.067592 0.576172 -0.019780
C7    C     C_R   0.579156 0.932187 0.423844 0.022093
C8    C     C_R   0.421270 0.923769 0.576405 -0.027863
C9    C     C_R   0.478712 0.503334 0.260913 0.886165
C10   C     C_R   0.511345 0.496353 0.741758 0.907649
C11   C     C_R   0.460874 0.762580 0.091652 -0.006146
C12   C     C_R   0.624684 0.716892 0.893426 -0.007483
C13   C     C_R   0.531205 0.870102 0.037529 -0.233396
C14   C     C_R   0.616109 0.846312 0.942870 -0.195334
C15   C     C_R   0.545748 0.609863 0.941529 0.006659
C16   C     C_R   0.482423 0.628386 0.053642 0.021958
C17   C     C_R   0.448045 0.510818 0.125995 -0.128911
C18   C     C_R   0.521817 0.487670 0.879447 -0.117623
C19   C     C_R   0.425367 0.387602 0.068196 -0.136426
C20   C     C_R   0.470260 0.371920 0.946308 -0.105146
C21   C     C_R   0.065013 0.400064 0.589176 0.215307
C22   C     C_R   0.935339 0.397014 0.585543 0.228116
C23   C     C_R   0.872244 0.498177 0.511052 -0.167810
C24   C     C_R   0.127708 0.499476 0.514046 -0.136735
H1    H     H_    0.520262 0.972673 0.067724 0.232149
H2    H     H_    0.674846 0.929424 0.907717 0.231110
H3    H     H_    0.886660 0.680906 0.389421 0.175587
H4    H     H_    0.112450 0.682888 0.394289 0.178374
H5    H     H_    0.642021 0.134138 0.362623 0.134599
H6    H     H_    0.358589 0.118582 0.636837 0.179465
H7    H     H_    0.642024 0.880886 0.362659 0.118412
H8    H     H_    0.358315 0.865887 0.637616 0.143697
N1    N     N_R   0.500000 0.857200 0.500000 -0.082548
N2    N     N_R   0.500000 0.142810 0.500000 -0.086769
O1    O     O_R   0.316770 0.614620 0.499990 -0.628707
O2    O     O_R   0.683230 0.614620 0.500010 -0.613326
O3    O     O_R   0.316800 0.385290 0.500000 -0.593836
O4    O     O_R   0.683200 0.385290 0.500000 -0.588642
O5    O     O_R   0.500010 0.614690 0.316770 -0.635656
O6    O     O_R   0.499990 0.614690 0.683230 -0.637287
O7    O     O_R   0.500040 0.385360 0.316770 -0.622662
O8    O     O_R   0.499960 0.385360 0.683230 -0.582679
Zn1   Zn    Zn3+2 0.500000 0.653120 0.500000 0.997835
Zn2   Zn    Zn3+2 0.500000 0.346880 0.500000 1.041587
C25   C     C_2   0.354080 0.278505 0.138291 1.044895
O9    O     O_2   0.395117 0.162959 0.149528 -0.614955
O10   O     O_R   0.243601 0.311639 0.198813 -0.766373
H9    H     H_    0.205248 0.230629 0.247073 0.357191
C26   C     C_2   0.471023 0.233732 0.894297 0.971178
O11   O     O_2   0.568195 0.188712 0.853555 -0.588397
O12   O     O_R   0.362429 0.154010 0.894971 -0.753965
H10   H     H_    0.376765 0.060072 0.862373 0.335317
C27   C     C_2   0.350767 0.794079 0.168487 0.965710
O13   O     O_2   0.351458 0.893035 0.234231 -0.599985
O14   O     O_R   0.243185 0.713668 0.159929 -0.789302
H11   H     H_    0.168733 0.755870 0.200991 0.337571
C28   C     C_2   0.729284 0.691553 0.807559 0.921564
O15   O     O_2   0.765665 0.781675 0.733143 -0.592890
O16   O     O_R   0.791373 0.566927 0.817604 -0.780138
H12   H     H_    0.870830 0.568352 0.766680 0.353696
Br1   Br    Br    0.153594 0.279656 0.707406 -0.414676
Br2   Br    Br    0.847310 0.261975 0.690572 -0.321469

loop_
_geom_bond_atom_site_label_1
_geom_bond_atom_site_label_2
_ccdc_geom_bond_type
C15   C18   A    
O5    Zn1   S    
O14   H11   S    
C19   C25   S    
O4    Zn2   S    
C20   C26   S    
C22   Br2   S    
O1    Zn1   S    
C11   C16   A    
C2    O4    A    
C9    O7    A    
C19   C20   A    
C11   C27   S    
C12   C15   A    
C1    O3    A    
C6    N2    A    
C5    N2    A    
O3    Zn2   S    
C3    H3    S    
N2    Zn2   S    
O16   H12   S    
C13   C14   A    
C14   H2    S    
C1    C24   S    
C11   C13   A    
C13   H1    S    
C28   O15   D    
O8    Zn2   S    
C10   C18   S    
C12   C28   S    
C9    C17   S    
C17   C19   A    
C12   C14   A    
C5    H5    S    
C8    N1    A    
C27   O14   S    
C4    C24   A    
O7    Zn2   S    
C21   C24   A    
C28   O16   S    
C10   O8    A    
C7    N1    A    
O12   H10   S    
N1    Zn1   S    
O10   H9    S    
C25   O9    D    
C9    O5    A    
C7    H7    S    
C1    O1    A    
C18   C20   A    
C10   O6    A    
C26   O11   D    
C25   O10   S    
C2    O2    A    
C2    C23   S    
C5    C7    A    
C3    C23   A    
C22   C23   A    
O2    Zn1   S    
C6    C8    A    
C4    H4    S    
C21   C22   A    
C27   O13   D    
C21   Br1   S    
C6    H6    S    
O6    Zn1   S    
C3    C4    A    
C15   C16   A    
C16   C17   A    
C26   O12   S    
C8    H8    S    
