data_mof_unit_64468.cif
_audit_creation_date              2012-10-26T18:02:16-0400
_audit_creation_method            fapswitch 2.2
_symmetry_space_group_name_H-M    P1
_symmetry_Int_Tables_number       1
_space_group_crystal_system       triclinic
_cell_length_a                    18.799019
_cell_length_b                    18.85044
_cell_length_c                    18.796763
_cell_angle_alpha                 109.49451
_cell_angle_beta                  109.474966
_cell_angle_gamma                 109.470722
_cell_volume                      5125.96372436

loop_
_atom_site_label
_atom_site_type_symbol
_atom_type_description
_atom_site_fract_x
_atom_site_fract_y
_atom_site_fract_z
_atom_type_partial_charge
Br1   Br    Br    0.377468 0.845663 0.671114 -0.539321
C1    C     C_R   0.118833 0.000367 0.618782 0.549684
C2    C     C_R   0.519928 0.431410 0.805758 -0.096819
C3    C     C_R   0.539088 0.518539 0.837846 0.027661
C4    C     C_R   0.117625 0.118651 0.498796 0.554146
C5    C     C_R   0.488189 0.539062 0.783235 -0.099537
C6    C     C_R   0.419268 0.474362 0.699236 -0.072068
C7    C     C_R   0.400150 0.387750 0.668084 0.045141
C8    C     C_R   0.163066 0.939124 0.710544 0.003956
C9    C     C_R   0.185328 0.001962 0.686481 0.033834
C10   C     C_R   0.270406 0.073174 0.736777 -0.144402
C11   C     C_R   0.334805 0.073908 0.802128 -0.140743
C12   C     C_R   0.939289 0.998179 0.174921 -0.097921
C13   C     C_R   0.313753 0.004106 0.818460 0.030957
C14   C     C_R   0.226210 0.940203 0.775600 0.026717
C15   C     C_3   0.184255 0.843419 0.728161 -0.257173
C16   C     C_R   0.881417 0.000425 0.380958 0.554873
C17   C     C_3   0.114963 0.842444 0.656445 -0.276299
C18   C     C_R   0.745621 0.742174 0.425574 0.020819
C19   C     C_R   0.816308 0.815750 0.501888 0.018112
C20   C     C_R   0.821564 0.824441 0.581316 -0.155044
C21   C     C_R   0.757097 0.759059 0.581259 -0.152424
C22   C     C_R   0.685478 0.686031 0.501695 0.021589
C23   C     C_R   0.237563 0.251863 0.423585 -0.148504
C24   C     C_R   0.682342 0.681207 0.425415 0.020144
C25   C     C_3   0.631834 0.626471 0.328669 -0.274313
C26   C     C_3   0.703551 0.696757 0.328824 -0.273051
C27   C     C_R   0.780051 0.944511 0.225892 0.032650
C28   C     C_R   0.881532 0.881464 0.500275 0.550619
C29   C     C_R   0.818263 0.004281 0.314017 0.013696
C30   C     C_R   0.797310 0.070718 0.336102 -0.158485
C31   C     C_R   0.731751 0.069645 0.271559 -0.157738
C32   C     C_R   0.686313 0.001730 0.185089 0.025491
C33   C     C_R   0.715580 0.943516 0.162388 -0.002548
C34   C     C_R   0.313604 0.317262 0.502982 0.001571
C35   C     C_3   0.666592 0.846671 0.109156 -0.288498
C36   C     C_3   0.738013 0.847940 0.179151 -0.266231
C37   C     C_R   0.500559 0.619298 0.619098 0.547756
C38   C     C_R   0.381025 0.382612 0.501545 0.546112
C39   C     C_R   0.499713 0.380981 0.381286 0.551912
C40   C     C_R   0.006230 0.979874 0.203597 -0.107826
C41   C     C_R   0.618724 0.618626 0.500072 0.553503
C42   C     C_R   0.499871 0.118531 0.118481 0.546290
C43   C     C_R   0.380962 0.000467 0.881509 0.574199
C44   C     C_R   0.499947 0.881241 0.881359 0.580837
C45   C     C_R   0.324057 0.317839 0.581291 -0.024887
C46   C     C_R   0.618725 0.000040 0.118493 0.545027
C47   C     C_R   0.422632 0.680016 0.679757 -0.036101
C48   C     C_R   0.500613 0.684651 0.687255 0.017722
C49   C     C_R   0.578847 0.749349 0.765725 -0.153924
C50   C     C_R   0.579107 0.814505 0.829804 -0.158882
C51   C     C_R   0.500820 0.813861 0.816629 0.053992
C52   C     C_R   0.082662 0.041035 0.283751 -0.062194
C53   C     C_R   0.422677 0.743253 0.743513 0.027335
C54   C     C_3   0.347452 0.739687 0.677945 0.018722
C55   C     C_3   0.347612 0.669736 0.607851 -0.218134
C56   C     C_R   0.258618 0.251424 0.577673 -0.147764
C57   C     C_R   0.480766 0.306951 0.234778 0.019891
C58   C     C_R   0.499089 0.313418 0.315284 0.014228
C59   C     C_R   0.518399 0.251875 0.330804 -0.153472
C60   C     C_R   0.517813 0.186641 0.265674 -0.155491
C61   C     C_R   0.500610 0.184178 0.185700 0.024316
C62   C     C_R   0.483258 0.246398 0.173720 0.014855
C63   C     C_3   0.459564 0.276385 0.110070 -0.279193
C64   C     C_R   0.091892 0.120467 0.336022 0.038005
C65   C     C_3   0.457386 0.346120 0.180027 -0.265428
C66   C     C_R   0.024493 0.138506 0.307021 -0.097635
C67   C     C_R   0.183789 0.185447 0.498184 0.009507
C68   C     C_R   0.948557 0.077568 0.226482 -0.106569
C69   C     C_3   0.611470 0.591418 0.929077 -0.257020
C70   C     C_3   0.661839 0.563286 0.986136 -0.301187
C71   C     C_3   0.730651 0.639845 0.077485 -0.454275
C72   C     C_R   0.172583 0.185604 0.420399 -0.034751
C73   C     C_R   0.450953 0.366876 0.721965 -0.109761
Cu1   Cu    Cu3+1 0.000020 0.938200 0.438220 0.927868
Cu2   Cu    Cu3+1 0.999980 0.061800 0.561780 0.930237
Cu3   Cu    Cu3+1 0.438190 0.500040 0.438260 0.924327
Cu4   Cu    Cu3+1 0.561780 0.500000 0.561820 0.934096
Cu5   Cu    Cu3+1 0.561810 0.061820 0.000020 0.952537
Cu6   Cu    Cu3+1 0.438190 0.938280 0.000080 0.926954
H1    H     H_    0.880146 0.950790 0.112901 0.105129
H2    H     H_    0.875680 0.880565 0.642857 0.128564
H3    H     H_    0.998969 0.918392 0.163625 0.098205
H4    H     H_    0.762512 0.766091 0.642732 0.124653
H5    H     H_    0.630795 0.563455 0.306074 0.126536
H6    H     H_    0.567423 0.622287 0.300108 0.145397
H7    H     H_    0.743008 0.673860 0.305359 0.141865
H8    H     H_    0.680795 0.733860 0.301196 0.128174
H9    H     H_    0.829137 0.121526 0.403123 0.139820
H10   H     H_    0.714265 0.119520 0.289507 0.114470
H11   H     H_    0.602227 0.817097 0.104868 0.147596
H12   H     H_    0.501314 0.605390 0.806293 0.106583
H13   H     H_    0.665254 0.823147 0.045781 0.122842
H14   H     H_    0.715258 0.818824 0.215418 0.129516
H15   H     H_    0.134378 0.026503 0.305268 0.113603
H16   H     H_    0.778395 0.826245 0.156406 0.137349
H17   H     H_    0.639994 0.751835 0.775684 0.125889
H18   H     H_    0.640139 0.865890 0.888503 0.114193
H19   H     H_    0.288298 0.715117 0.683790 0.119462
H20   H     H_    0.288841 0.604734 0.574009 0.108930
H21   H     H_    0.365696 0.689317 0.564028 0.192402
H22   H     H_    0.532695 0.253420 0.392267 0.135352
H23   H     H_    0.379986 0.491572 0.659013 0.099014
H24   H     H_    0.531797 0.139314 0.278076 0.121271
H25   H     H_    0.513237 0.303364 0.097294 0.140165
H26   H     H_    0.030883 0.199648 0.346684 0.108293
H27   H     H_    0.394530 0.227289 0.051195 0.134938
H28   H     H_    0.509955 0.413265 0.207733 0.127087
H29   H     H_    0.391175 0.337583 0.161249 0.146770
H30   H     H_    0.896625 0.091617 0.204298 0.120246
H31   H     H_    0.229151 0.251791 0.363588 0.133947
H32   H     H_    0.265742 0.251323 0.637351 0.118096
H33   H     H_    0.436866 0.300262 0.699090 0.106644
H34   H     H_    0.287641 0.126012 0.723104 0.108458
H35   H     H_    0.557090 0.411966 0.844702 0.099878
H36   H     H_    0.777598 0.691426 0.074156 0.147090
H37   H     H_    0.699132 0.666614 0.110766 0.150386
H38   H     H_    0.766942 0.617705 0.116294 0.143612
H39   H     H_    0.616032 0.513335 0.992148 0.158658
H40   H     H_    0.694906 0.535539 0.955937 0.160556
H41   H     H_    0.658166 0.641012 0.923439 0.139890
H42   H     H_    0.582286 0.622627 0.962391 0.140986
H43   H     H_    0.401051 0.127426 0.837696 0.133213
H44   H     H_    0.225058 0.820507 0.707478 0.175333
H45   H     H_    0.158765 0.814352 0.763082 0.136635
H46   H     H_    0.115832 0.819349 0.594181 0.164311
H47   H     H_    0.049578 0.812750 0.650006 0.133042
O1    O     O_R   0.090190 0.947810 0.538000 -0.505628
O2    O     O_R   0.447820 0.038100 0.090220 -0.511681
O3    O     O_R   0.462030 0.052220 0.909860 -0.501374
O4    O     O_R   0.090150 0.052180 0.642350 -0.513121
O5    O     O_R   0.357640 0.947890 0.909900 -0.510613
O6    O     O_R   0.552180 0.962000 0.909880 -0.484965
O7    O     O_R   0.447790 0.857670 0.909930 -0.519283
O8    O     O_R   0.642360 0.052210 0.090200 -0.515850
O9    O     O_R   0.537970 0.947880 0.090240 -0.514023
O10   O     O_R   0.090200 0.037990 0.447830 -0.504527
O11   O     O_R   0.090160 0.142360 0.552180 -0.514288
O12   O     O_R   0.552160 0.590170 0.642390 -0.516010
O13   O     O_R   0.909850 0.947820 0.357650 -0.505476
O14   O     O_R   0.909810 0.052190 0.462000 -0.515967
O15   O     O_R   0.909840 0.857640 0.447820 -0.514444
O16   O     O_R   0.909800 0.962010 0.552170 -0.509007
O17   O     O_R   0.447790 0.590200 0.538040 -0.509285
O18   O     O_R   0.357620 0.409850 0.447860 -0.518214
O19   O     O_R   0.461990 0.409820 0.552210 -0.496661
O20   O     O_R   0.447810 0.409860 0.357690 -0.511585
O21   O     O_R   0.552180 0.409830 0.462050 -0.513095
O22   O     O_R   0.537970 0.590210 0.447870 -0.506461
O23   O     O_R   0.642350 0.590180 0.552220 -0.514350
O24   O     O_R   0.552210 0.142430 0.090170 -0.515414

loop_
_geom_bond_atom_site_label_1
_geom_bond_atom_site_label_2
_ccdc_geom_bond_type
C54   C55   S    
Cu6   O5    S    
C46   O9    A    
C52   H15   S    
C18   C19   A    
Cu4   O12   S    
C3    C69   S    
C1    O1    A    
C64   C72   S    
C4    O11   A    
C37   C48   S    
Cu3   Cu4   S    
C2    C73   A    
C47   C53   A    
C44   O7    A    
C22   C41   S    
C70   H40   S    
C63   H25   S    
C13   C43   S    
C35   C36   S    
C55   H21   S    
Cu1   O13   S    
C29   C30   A    
Cu2   O4    S    
C23   C72   A    
C56   H32   S    
C43   O3    A    
C14   C15   S    
C40   H3    S    
C12   H1    S    
Cu6   O7    S    
C16   O14   A    
Cu1   O1    S    
C10   H34   S    
C41   O22   A    
C35   H13   S    
C57   C65   S    
C31   H10   S    
C64   C66   A    
C71   H37   S    
C37   O12   A    
C69   C70   S    
C52   C64   A    
C8    C9    A    
Cu3   O20   S    
Cu4   O21   S    
Cu2   O14   S    
C50   H18   S    
C27   C33   A    
C58   C59   A    
C39   C58   S    
C6    H23   S    
C20   C21   A    
C16   C29   S    
C26   H8    S    
C23   H31   S    
C4    C67   S    
C59   H22   S    
C12   C40   A    
C18   C26   S    
C51   C53   A    
C1    O4    A    
C19   C28   S    
Cu5   O6    S    
C23   C34   A    
C39   O21   A    
C50   C51   A    
C6    C7    A    
C60   H24   S    
C3    C5    A    
Cu1   O10   S    
Cu3   O22   S    
C44   C51   S    
C30   H9    S    
C67   C72   A    
Cu5   O3    S    
C62   C63   S    
C36   H16   S    
C59   C60   A    
C66   C68   A    
C63   C65   S    
C34   C38   S    
Cu1   Cu2   S    
C61   C62   A    
Cu1   O15   S    
C17   H47   S    
C68   H30   S    
C69   H42   S    
C30   C31   A    
C42   O2    A    
C25   H6    S    
C38   O18   A    
C7    C73   A    
C32   C33   A    
C25   C26   S    
C49   C50   A    
C20   H2    S    
C26   H7    S    
C40   C52   A    
C35   H11   S    
C47   C48   A    
C11   C13   A    
C45   C56   A    
C32   C46   S    
C57   C58   A    
C55   H20   S    
C56   C67   A    
C54   H19   S    
C2    C3    A    
C1    C9    S    
Cu3   O18   S    
C42   O24   A    
Cu4   O23   S    
C63   H27   S    
Cu5   O24   S    
C15   H45   S    
C57   C62   A    
C47   C55   S    
C53   C54   S    
C49   H17   S    
Cu6   O2    S    
C39   O20   A    
C46   O8    A    
C13   C14   A    
C37   O17   A    
C65   H28   S    
C10   C11   A    
C66   H26   S    
C4    O10   A    
C5    C6    A    
Cu2   O11   S    
C43   O5    A    
Cu5   O8    S    
C71   H36   S    
C44   O6    A    
Cu6   O9    S    
C70   H39   S    
C31   C32   A    
C27   C29   A    
C24   C25   S    
Cu3   O17   S    
C70   C71   S    
C2    H35   S    
C17   H46   S    
C73   H33   S    
C69   H41   S    
C11   H43   S    
C12   C68   A    
C27   C36   S    
C25   H5    S    
C5    H12   S    
C28   O15   A    
C38   O19   A    
C36   H14   S    
Br1   C54   S    
C16   O13   A    
C33   C35   S    
C22   C24   A    
C65   H29   S    
C8    C14   A    
C60   C61   A    
C41   O23   A    
C7    C45   S    
C9    C10   A    
Cu4   O19   S    
C18   C24   A    
Cu5   Cu6   S    
Cu2   O16   S    
C8    C17   S    
C19   C20   A    
C15   C17   S    
C48   C49   A    
C71   H38   S    
C21   C22   A    
C15   H44   S    
C34   C45   A    
C42   C61   S    
C21   H4    S    
C28   O16   A    
