data_mof_unit_14679.cif
_audit_creation_date              2013-03-05T16:29:49-0500
_audit_creation_method            fapswitch 2.2
_symmetry_space_group_name_H-M    P1
_symmetry_Int_Tables_number       1
_space_group_crystal_system       triclinic
_cell_length_a                    19.488151
_cell_length_b                    18.218615
_cell_length_c                    9.103166
_cell_angle_alpha                 89.828078
_cell_angle_beta                  93.063867
_cell_angle_gamma                 89.502783
_cell_volume                      3227.29194738

loop_
_atom_site_label
_atom_site_type_symbol
_atom_site_description
_atom_site_fract_x
_atom_site_fract_y
_atom_site_fract_z
_atom_type_partial_charge
O1    O     O_R   0.400190 0.561980 0.499980 -0.496756
O2    O     O_R   0.599810 0.438020 0.500020 -0.517457
O3    O     O_R   0.599810 0.561980 0.500020 -0.503408
O4    O     O_R   0.400190 0.438020 0.499980 -0.521237
C1    C     C_R   0.367281 0.500828 0.502093 0.857382
C2    C     C_R   0.632776 0.500279 0.497213 0.854962
O5    O     O_R   0.500000 0.561940 0.288400 -0.591836
O6    O     O_R   0.500000 0.438060 0.711600 -0.569474
O7    O     O_R   0.500000 0.561940 0.711600 -0.587306
O8    O     O_R   0.500000 0.438060 0.288400 -0.561226
C3    C     C_R   0.500263 0.500092 0.220504 0.809400
C4    C     C_R   0.499964 0.499970 0.779524 0.810918
Cu1   Cu    Cu3+1 0.500000 0.573360 0.500000 1.005234
Cu2   Cu    Cu3+1 0.500000 0.426640 0.500000 1.029912
C5    C     C_1   0.500402 0.500282 0.065507 -0.215896
C6    C     C_1   0.500210 0.500120 0.934578 -0.223846
C7    C     C_R   0.749972 0.439600 0.512308 0.330759
C8    C     C_R   0.259053 0.571179 0.554309 0.317851
C9    C     C_R   0.250330 0.442660 0.483226 0.344744
C10   C     C_R   0.742070 0.570833 0.460720 0.315952
C11   C     C_R   0.821526 0.442363 0.500380 0.207965
C12   C     C_R   0.187092 0.575601 0.558628 0.196041
C13   C     C_R   0.179595 0.444282 0.506125 0.207480
C14   C     C_R   0.814174 0.575623 0.476721 0.211463
C15   C     C_R   0.853927 0.511022 0.495156 -0.296293
C16   C     C_R   0.147570 0.511824 0.537227 -0.290655
C17   C     C_R   0.709004 0.503097 0.488451 -0.370852
C18   C     C_R   0.291383 0.504589 0.514208 -0.375065
C19   C     C_R   0.965804 0.531552 0.383458 -0.094435
C20   C     C_R   0.035847 0.503749 0.655303 -0.055961
C21   C     C_R   0.037337 0.533144 0.395014 -0.074698
C22   C     C_R   0.964281 0.504108 0.644527 -0.036863
H1    H     H_    0.939008 0.541620 0.277895 0.144462
H2    H     H_    0.062726 0.492064 0.760102 0.139343
H3    H     H_    0.065526 0.544024 0.298000 0.142850
H4    H     H_    0.936120 0.493188 0.741572 0.140598
C23   C     C_R   0.072418 0.517501 0.530156 0.231716
C24   C     C_R   0.929201 0.515436 0.507550 0.220851
C25   C     C_R   0.447413 0.721684 0.426953 0.450744
C26   C     C_R   0.539894 0.276677 0.602404 0.476680
C27   C     C_R   0.551652 0.721149 0.574754 0.450654
C28   C     C_R   0.458771 0.279289 0.397546 0.488431
C29   C     C_R   0.444170 0.799529 0.431534 0.092682
C30   C     C_R   0.542689 0.198527 0.595376 0.136106
C31   C     C_R   0.553673 0.799077 0.570982 0.091811
C32   C     C_R   0.451912 0.201478 0.405380 0.098712
C33   C     C_R   0.498603 0.839136 0.501380 -0.241008
C34   C     C_R   0.497059 0.160447 0.499569 -0.245673
N1    N     N_R   0.500000 0.683620 0.500000 -0.294444
N2    N     N_R   0.500000 0.316380 0.500000 -0.275556
C35   C     C_R   0.445811 0.961534 0.567771 -0.069865
C36   C     C_R   0.549153 0.038398 0.433277 -0.057897
C37   C     C_R   0.549593 0.961226 0.433604 -0.070961
C38   C     C_R   0.445167 0.038781 0.566639 -0.062124
H5    H     H_    0.405572 0.932651 0.620992 0.163850
H6    H     H_    0.589493 0.067356 0.380555 0.170585
H7    H     H_    0.590201 0.932153 0.380792 0.163876
H8    H     H_    0.404477 0.068035 0.618783 0.167196
C39   C     C_R   0.496925 0.078035 0.499608 0.234342
C40   C     C_R   0.498020 0.921752 0.501121 0.231705
O9    O     O_3   0.721497 0.375509 0.561309 -0.506319
C41   C     C_3   0.736835 0.368886 0.715047 0.087698
H9    H     H_    0.689981 0.382777 0.773010 0.180602
H10   H     H_    0.778037 0.405940 0.761081 0.102709
C42   C     C_3   0.759561 0.290658 0.751381 -0.577147
H11   H     H_    0.808599 0.277824 0.700174 0.285577
H12   H     H_    0.767366 0.283702 0.872326 0.187930
H13   H     H_    0.719988 0.252046 0.708706 0.294178
O10   O     O_3   0.297028 0.634289 0.577567 -0.466611
C43   C     C_3   0.311251 0.642815 0.730060 0.136021
H14   H     H_    0.341928 0.595268 0.775342 0.093966
H15   H     H_    0.262959 0.648038 0.789514 0.158343
C44   C     C_3   0.352655 0.712457 0.756524 -0.667369
H16   H     H_    0.327114 0.759458 0.697220 0.290129
H17   H     H_    0.356782 0.725326 0.875619 0.179845
H18   H     H_    0.405184 0.704920 0.717598 0.211448
O11   O     O_3   0.276242 0.384556 0.405898 -0.486443
C45   C     C_3   0.266965 0.400557 0.253219 0.086035
H19   H     H_    0.318177 0.404564 0.208061 0.187000
H20   H     H_    0.240319 0.453855 0.224948 0.085487
C46   C     C_3   0.226250 0.339852 0.175193 -0.618677
H21   H     H_    0.172801 0.339566 0.211175 0.274209
H22   H     H_    0.224583 0.349328 0.054488 0.179132
H23   H     H_    0.250382 0.285684 0.199947 0.303681
O12   O     O_3   0.704467 0.634709 0.434380 -0.465460
C47   C     C_3   0.687302 0.640246 0.281888 0.142871
H24   H     H_    0.650407 0.596707 0.246235 0.101602
H25   H     H_    0.733688 0.635397 0.215928 0.146002
C48   C     C_3   0.653936 0.714830 0.249263 -0.642631
H26   H     H_    0.686360 0.759167 0.298505 0.295434
H27   H     H_    0.647937 0.724107 0.128822 0.175571
H28   H     H_    0.602394 0.717348 0.294983 0.206334
N3    N     N_R   0.859895 0.374608 0.495254 0.157636
O13   O     O_R   0.913029 0.362237 0.584683 -0.331347
O14   O     O_R   0.836839 0.321532 0.411526 -0.279994
N4    N     N_R   0.154621 0.645521 0.582788 0.152643
O15   O     O_R   0.107559 0.651929 0.678175 -0.324282
O16   O     O_R   0.174811 0.703999 0.515565 -0.232339
N5    N     N_R   0.141075 0.377232 0.490749 0.154649
O17   O     O_R   0.080980 0.375978 0.421375 -0.325556
O18   O     O_R   0.168576 0.315555 0.537564 -0.256786
N6    N     N_R   0.846742 0.646360 0.478324 0.176292
O19   O     O_R   0.828723 0.696158 0.380779 -0.290924
O20   O     O_R   0.892689 0.662485 0.581913 -0.286318
O21   O     O_3   0.394060 0.683353 0.358430 -0.472343
C49   C     C_3   0.399921 0.684622 0.204573 0.161541
H29   H     H_    0.453891 0.676301 0.172822 0.111973
H30   H     H_    0.380932 0.737812 0.157559 0.172629
C50   C     C_3   0.355824 0.623538 0.137062 -0.760694
H31   H     H_    0.300555 0.638711 0.138739 0.255442
H32   H     H_    0.369585 0.614003 0.022385 0.171656
H33   H     H_    0.364553 0.571509 0.199171 0.237294
O22   O     O_3   0.580063 0.313107 0.708880 -0.541482
C51   C     C_3   0.557673 0.297292 0.851868 0.047896
H34   H     H_    0.518954 0.252720 0.856061 0.144878
H35   H     H_    0.533584 0.347129 0.895707 0.172561
C52   C     C_3   0.618148 0.277374 0.958064 -0.739105
H36   H     H_    0.651527 0.325640 0.978523 0.215779
H37   H     H_    0.598924 0.259640 0.065030 0.205100
H38   H     H_    0.648608 0.231540 0.914532 0.295018
O23   O     O_3   0.604993 0.682261 0.645069 -0.472981
C53   C     C_3   0.598494 0.683810 0.798796 0.155209
H39   H     H_    0.544522 0.675442 0.829611 0.112181
H40   H     H_    0.616372 0.737069 0.845128 0.173394
C54   C     C_3   0.643421 0.622917 0.868516 -0.752151
H41   H     H_    0.698512 0.637419 0.864121 0.258059
H42   H     H_    0.630703 0.614759 0.984473 0.169502
H43   H     H_    0.634633 0.570421 0.809244 0.239721
O24   O     O_3   0.421822 0.318145 0.288258 -0.510628
C55   C     C_3   0.447988 0.301273 0.149318 0.085725
H44   H     H_    0.455169 0.241533 0.130777 0.166602
H45   H     H_    0.498681 0.327366 0.139252 0.142321
C56   C     C_3   0.398682 0.329358 0.025916 -0.774672
H46   H     H_    0.394793 0.390076 0.028935 0.221751
H47   H     H_    0.416722 0.313156 0.917265 0.198645
H48   H     H_    0.347383 0.304807 0.036311 0.270877
N7    N     N_R   0.385659 0.837507 0.363912 0.130877
O25   O     O_R   0.394020 0.891241 0.272266 -0.317084
O26   O     O_R   0.323765 0.815388 0.386367 -0.257534
N8    N     N_R   0.590631 0.157766 0.688973 0.137083
O27   O     O_R   0.651041 0.142694 0.642414 -0.329682
O28   O     O_R   0.568255 0.119526 0.797197 -0.334335
N9    N     N_R   0.611629 0.836640 0.638803 0.132059
O29   O     O_R   0.602495 0.890405 0.729698 -0.317450
O30   O     O_R   0.673832 0.814203 0.617026 -0.258848
N10   N     N_R   0.399214 0.165234 0.316674 0.148335
O31   O     O_R   0.337247 0.192407 0.306193 -0.288374
O32   O     O_R   0.413287 0.106868 0.241491 -0.318037

loop_
_geom_bond_atom_site_label_1
_geom_bond_atom_site_label_2
_geom_bond_distance
_ccdc_geom_bond_type
C13   N5    1.442579 S    
N3    O13   1.300198 A    
C44   H16   1.110641 S    
O21   C49   1.411451 S    
C9    C13   1.405207 A    
O3    C2    1.290878 A    
C51   H34   1.115232 S    
O2    C2    1.309276 A    
O11   C45   1.420985 S    
O5    C3    1.286891 A    
N7    O26   1.301305 A    
C49   H30   1.110645 S    
O1    C1    1.290931 A    
C22   H4    1.083447 S    
N8    O28   1.301228 A    
N10   O31   1.299822 A    
O10   C43   1.410281 S    
C50   H32   1.105470 S    
C47   H25   1.114661 S    
C49   H29   1.114777 S    
N9    O29   1.301292 A    
C19   H1    1.083236 S    
N9    O30   1.301323 A    
C28   C32   1.426989 A    
C13   C16   1.411206 A    
C27   O23   1.380434 S    
C9    O11   1.379963 S    
O7    Cu1   1.936812 S    
C41   H10   1.118581 S    
C7    O9    1.380170 S    
C33   C40   1.505085 S    
O22   C51   1.424188 S    
C3    C5    1.411102 S    
C4    C6    1.411243 S    
C42   H12   1.110079 S    
N4    O16   1.301336 A    
C19   C24   1.399596 A    
C56   H48   1.107293 S    
C43   H14   1.113646 S    
C22   C24   1.403445 A    
C48   H27   1.108675 S    
C35   H5    1.082954 S    
O3    Cu1   1.954329 S    
C8    O10   1.383464 S    
C54   H41   1.110631 S    
C30   N8    1.431578 S    
Cu1   Cu2   2.673033 S    
N4    O15   1.301017 A    
C44   H17   1.108757 S    
O9    C41   1.419915 S    
C27   N1    1.373079 A    
C46   H22   1.110478 S    
C37   C40   1.407488 A    
C46   H21   1.108530 S    
N10   O32   1.301412 A    
C38   C39   1.406019 A    
C31   C33   1.413088 A    
C32   C34   1.404331 A    
C20   H2    1.083174 S    
C36   H6    1.082925 S    
C7    C17   1.409519 A    
C10   C14   1.408428 A    
C8    C18   1.419854 A    
C14   C15   1.408067 A    
O8    Cu2   1.936813 S    
C52   H38   1.106891 S    
C37   H7    1.082988 S    
C47   H24   1.112660 S    
C25   C29   1.419912 A    
O12   C47   1.413503 S    
C26   O22   1.387281 S    
C7    C11   1.405781 A    
C21   C23   1.402380 A    
C20   C23   1.398835 A    
C55   H45   1.108116 S    
C41   H9    1.106566 S    
C36   C39   1.406279 A    
C15   C24   1.468192 S    
C54   H43   1.109612 S    
C1    C18   1.490088 S    
C2    C17   1.493267 S    
O5    Cu1   1.938054 S    
O6    C4    1.287916 A    
C42   H13   1.104336 S    
C10   O12   1.383288 S    
C43   C44   1.522421 S    
C45   H20   1.119914 S    
N8    O27   1.299773 A    
C48   H28   1.108257 S    
N6    O20   1.301267 A    
C9    C18   1.409265 A    
O23   C53   1.412197 S    
C28   N2    1.380267 A    
Cu1   N1    2.008784 S    
C25   N1    1.373091 A    
C56   H46   1.108652 S    
C44   H18   1.108603 S    
C21   H3    1.083370 S    
C50   H33   1.109425 S    
C55   C56   1.523039 S    
O1    Cu1   1.957911 S    
C53   H40   1.110575 S    
C54   H42   1.106992 S    
C46   H23   1.106855 S    
C36   C37   1.405905 A    
C34   C39   1.501447 S    
C31   N9    1.437567 S    
O24   C55   1.422240 S    
C38   H8    1.082867 S    
C25   O21   1.379767 S    
C11   C15   1.407906 A    
O6    Cu2   1.938053 S    
C41   C42   1.518995 S    
N5    O18   1.301431 A    
C8    C12   1.406664 A    
C12   N4    1.440154 S    
O4    C1    1.307576 A    
C47   C48   1.522844 S    
C51   H35   1.104016 S    
C16   C23   1.465279 S    
C10   C17   1.425198 A    
N7    O25   1.301267 A    
C32   N10   1.438447 S    
N5    O17   1.300938 A    
C35   C38   1.407280 A    
C53   C54   1.523030 S    
C52   H37   1.109995 S    
C55   H44   1.110694 S    
C53   H39   1.114600 S    
C19   C21   1.392964 A    
C52   H36   1.108630 S    
C20   C22   1.392865 A    
C45   H19   1.102413 S    
C45   C46   1.522155 S    
Cu2   N2    2.008784 S    
C11   N3    1.439824 S    
C26   N2    1.380356 A    
C29   N7    1.437576 S    
C28   O24   1.385542 S    
C14   N6    1.441238 S    
O4    Cu2   1.954333 S    
N6    O19   1.300468 A    
O2    Cu2   1.957907 S    
O7    C4    1.285639 A    
C51   C52   1.524425 S    
O8    C3    1.286664 A    
C30   C34   1.401488 A    
C26   C30   1.426107 A    
N3    O14   1.301229 A    
C42   H11   1.108889 S    
C12   C16   1.407883 A    
C56   H47   1.107301 S    
C27   C31   1.420983 A    
C43   H15   1.113957 S    
C35   C40   1.408691 A    
C48   H26   1.110604 S    
C50   H31   1.110574 S    
C29   C33   1.412166 A    
C5    C6    1.191685 T    
C49   C50   1.522814 S    
