data_mof_unit_16518.cif
_audit_creation_date              2012-12-11T14:59:40-0500
_audit_creation_method            fapswitch 2.2
_symmetry_space_group_name_H-M    P1
_symmetry_Int_Tables_number       1
_space_group_crystal_system       triclinic
_cell_length_a                    8.28179
_cell_length_b                    15.131994
_cell_length_c                    18.730706
_cell_angle_alpha                 100.549084
_cell_angle_beta                  91.316779
_cell_angle_gamma                 99.45298
_cell_volume                      2272.91362235

loop_
_atom_site_label
_atom_site_type_symbol
_atom_type_description
_atom_site_fract_x
_atom_site_fract_y
_atom_site_fract_z
_atom_type_partial_charge
Ba1   Ba    Ba6+2 0.854120 0.540280 0.465540 1.613266
Ba2   Ba    Ba6+2 0.335710 0.459790 0.534460 1.611979
C1    C     C_3   0.705803 0.862579 0.287763 -0.376190
C2    C     C_R   0.895419 0.409883 0.094903 -0.090078
C3    C     C_R   0.761079 0.433157 0.954478 -0.108320
C4    C     C_3   0.126436 0.716050 0.271934 0.366756
C5    C     C_R   0.927362 0.464782 0.977598 0.024977
C6    C     C_R   0.702118 0.436300 0.885194 -0.113129
C7    C     C_R   0.806026 0.469706 0.834802 -0.037592
C8    C     C_R   0.971134 0.508326 0.857620 0.004167
C9    C     C_R   0.031944 0.507208 0.929711 0.008803
C10   C     C_R   0.746990 0.469320 0.763296 -0.008733
C11   C     C_R   0.849168 0.513702 0.716842 -0.227313
C12   C     C_3   0.657945 0.769286 0.307922 0.336514
C13   C     C_R   0.017501 0.544134 0.735424 0.062012
C14   C     C_R   0.075214 0.548025 0.808525 -0.055467
C15   C     C_R   0.153012 0.498856 0.071413 0.020480
C16   C     C_3   0.120062 0.735991 0.194897 -0.194652
C17   C     C_R   0.212678 0.497575 0.143621 -0.001570
C18   C     C_R   0.108716 0.456695 0.192297 -0.044688
C19   C     C_R   0.954902 0.408011 0.164693 -0.027060
C20   C     C_R   0.227695 0.598772 0.836134 -0.017315
C21   C     C_R   0.283340 0.605819 0.908574 0.053195
C22   C     C_R   0.195003 0.550208 0.953881 0.010283
C23   C     C_3   0.528179 0.280725 0.303429 0.328828
C24   C     C_R   0.258559 0.539336 0.023123 0.023133
C25   C     C_R   0.427243 0.561086 0.044012 -0.113730
C26   C     C_R   0.377300 0.535925 0.166615 -0.030461
C27   C     C_R   0.484550 0.562933 0.114797 -0.096443
C28   C     C_3   0.196429 0.745749 0.619907 0.344044
C29   C     C_R   0.430425 0.543614 0.240115 -0.001570
C30   C     C_R   0.320649 0.512252 0.289357 -0.281078
C31   C     C_R   0.163046 0.464903 0.266433 0.044401
C32   C     C_R   0.750961 0.238406 0.538671 -0.264097
C33   C     C_R   0.845243 0.180122 0.562415 -0.015972
C34   C     C_3   0.601626 0.236713 0.234317 -0.369139
C35   C     C_R   0.785670 0.085929 0.551277 -0.131367
C36   C     C_R   0.630424 0.048287 0.514559 0.013913
C37   C     C_R   0.544507 0.109275 0.486659 -0.122866
C38   C     C_R   0.604727 0.202693 0.498244 0.057583
C39   C     C_R   0.404775 0.911300 0.466416 -0.135487
C40   C     C_3   0.152965 0.841014 0.638387 -0.357858
C41   C     C_R   0.343207 0.817858 0.453139 0.008351
C42   C     C_R   0.584415 0.790815 0.514548 0.055322
C43   C     C_R   0.648574 0.884265 0.527153 -0.128611
C44   C     C_R   0.561838 0.947026 0.501935 0.010159
C45   C     C_3   0.025929 0.207988 0.726520 0.384692
C46   C     C_R   0.436311 0.757722 0.474419 -0.271109
C47   C     C_3   0.950893 0.260930 0.381367 0.323637
C48   C     C_3   0.904367 0.156589 0.365201 -0.240093
C49   C     C_3   0.592887 0.746132 0.693765 0.232292
C50   C     C_3   0.571399 0.845383 0.715346 -0.402558
C51   C     C_3   0.040847 0.109883 0.330429 -0.367445
C52   C     C_3   0.362415 0.301098 0.283141 -0.308144
C53   C     C_3   0.280987 0.791350 0.177986 -0.429185
C54   C     C_3   0.038473 0.306023 0.767861 -0.286675
C55   C     C_3   0.490323 0.160935 0.675043 -0.261638
C56   C     C_3   0.063888 0.146470 0.778690 -0.357532
C57   C     C_3   0.773204 0.540721 0.652136 -0.228983
C58   C     C_3   0.419920 0.685029 0.936663 -0.434012
C59   C     C_3   0.574927 0.240185 0.733208 0.405574
C60   C     C_3   0.613449 0.203249 0.801372 -0.388526
C61   C     C_R   0.989278 0.458784 0.048011 0.006696
H1    H     H_    0.719073 0.771702 0.361867 0.085928
H2    H     H_    0.685840 0.887059 0.743537 0.118136
H3    H     H_    0.542194 0.873052 0.666680 0.087069
H4    H     H_    0.522630 0.755525 0.311573 -0.047989
H5    H     H_    0.666049 0.915542 0.329640 0.076947
H6    H     H_    0.524718 0.170117 0.210123 0.116244
H7    H     H_    0.609577 0.281773 0.193456 0.065934
H8    H     H_    0.726404 0.224697 0.246559 0.132947
H9    H     H_    0.646432 0.863489 0.234224 0.110614
H10   H     H_    0.898762 0.181203 0.703725 -0.038377
H11   H     H_    0.189995 0.169768 0.803938 0.127821
H12   H     H_    0.157378 0.872473 0.589255 0.085350
H13   H     H_    0.975527 0.147111 0.822415 0.071230
H14   H     H_    0.054412 0.075239 0.748523 0.096885
H15   H     H_    0.692264 0.270269 0.712527 -0.066242
H16   H     H_    0.020838 0.661877 0.275602 0.096386
H17   H     H_    0.686018 0.257595 0.842745 0.103399
H18   H     H_    0.572765 0.412348 0.872025 0.106018
H19   H     H_    0.877241 0.368415 0.196857 0.093813
H20   H     H_    0.300323 0.640190 0.803255 0.088550
H21   H     H_    0.614497 0.584674 0.127810 0.110118
H22   H     H_    0.362190 0.519561 0.345656 0.080216
H23   H     H_    0.027953 0.837478 0.658880 0.145510
H24   H     H_    0.670923 0.407569 0.989570 0.071382
H25   H     H_    0.775526 0.370304 0.078810 0.056569
H26   H     H_    0.241769 0.690477 0.281780 -0.054358
H27   H     H_    0.324849 0.953796 0.449578 0.077464
H28   H     H_    0.865290 0.044072 0.569538 0.065393
H29   H     H_    0.763244 0.905923 0.558678 0.073652
H30   H     H_    0.434402 0.086290 0.452210 0.079130
H31   H     H_    0.387216 0.685473 0.464719 0.070118
H32   H     H_    0.799986 0.310336 0.544346 0.054235
H33   H     H_    0.095355 0.670566 0.155171 0.077417
H34   H     H_    0.845528 0.290418 0.404435 -0.027767
H35   H     H_    0.017856 0.773620 0.188225 0.139495
H36   H     H_    0.319779 0.752198 0.599323 -0.091507
H37   H     H_    0.241069 0.885128 0.680877 0.092370
H38   H     H_    0.055010 0.122057 0.274099 0.132401
H39   H     H_    0.158557 0.135287 0.362917 0.158978
H40   H     H_    0.008895 0.035193 0.327988 0.119653
H41   H     H_    0.613804 0.720146 0.744345 0.035248
H42   H     H_    0.470063 0.850296 0.752862 0.100177
H43   H     H_    0.373528 0.342850 0.240104 0.029156
H44   H     H_    0.275359 0.237095 0.262488 0.117985
H45   H     H_    0.054832 0.280571 0.422443 0.090871
H46   H     H_    0.316964 0.338530 0.332635 0.092685
H47   H     H_    0.610153 0.345153 0.327303 0.089260
H48   H     H_    0.310161 0.856959 0.217411 0.151325
H49   H     H_    0.382343 0.751994 0.180421 0.131295
H50   H     H_    0.270266 0.806082 0.122305 0.122578
H51   H     H_    0.000507 0.349333 0.731049 0.062704
H52   H     H_    0.957415 0.308586 0.814171 0.047072
H53   H     H_    0.166074 0.334223 0.789412 0.162856
H54   H     H_    0.453284 0.186978 0.626702 0.140236
H55   H     H_    0.574348 0.111653 0.659345 0.035823
H56   H     H_    0.791247 0.135131 0.329100 0.120294
H57   H     H_    0.379555 0.123995 0.695757 0.129911
H58   H     H_    0.685093 0.147085 0.787985 0.074380
H59   H     H_    0.498382 0.176680 0.825475 0.116343
H60   H     H_    0.840324 0.605935 0.642793 0.121105
H61   H     H_    0.774132 0.487748 0.602767 0.139368
H62   H     H_    0.648047 0.555235 0.662165 0.128329
H63   H     H_    0.417892 0.709158 0.996172 0.126127
H64   H     H_    0.540349 0.666311 0.921389 0.116186
H65   H     H_    0.404378 0.744885 0.912137 0.107276
H66   H     H_    0.518456 0.575344 0.005706 0.088094
H67   H     H_    0.877993 0.132406 0.416609 0.073830
H68   H     H_    0.112622 0.705140 0.575280 0.107141
H69   H     H_    0.483297 0.702453 0.665828 0.084007
H70   H     H_    0.840880 0.878585 0.284686 0.143491
O1    O     O_2   0.871030 0.438240 0.324420 -0.471039
O2    O     O_2   0.166006 0.181801 0.533908 -0.483112
O3    O     O_3   0.141000 0.204422 0.672497 -0.566705
O4    O     O_3   0.120590 0.445310 0.413740 -0.491285
O5    O     O_3   0.582100 0.611510 0.537680 -0.489103
O6    O     O_2   0.334040 0.276520 0.462890 -0.452486
O7    O     O_3   0.507759 0.218632 0.351051 -0.650773
O8    O     O_2   0.410798 0.465567 0.754348 -0.479993
O9    O     O_3   0.466781 0.302794 0.750722 -0.576868
O10   O     O_3   0.663040 0.605930 0.370050 -0.480332
O11   O     O_2   0.765684 0.536289 0.242769 -0.496994
O12   O     O_3   0.730416 0.739573 0.652759 -0.635892
O13   O     O_3   0.992252 0.292674 0.317196 -0.655017
O14   O     O_3   0.709759 0.702859 0.254865 -0.611165
O15   O     O_2   0.855660 0.723510 0.537160 -0.459461
O16   O     O_3   0.086340 0.654970 0.406630 -0.495714
O17   O     O_2   0.004891 0.818294 0.453003 -0.488062
O18   O     O_3   0.114968 0.795373 0.322709 -0.608331
O19   O     O_2   0.318670 0.561790 0.675630 -0.474107
O20   O     O_3   0.069120 0.554770 0.586270 -0.509328
O21   O     O_3   0.526680 0.394150 0.629950 -0.474817
O22   O     O_3   0.194919 0.708042 0.683301 -0.654664
O23   O     O_3   0.607620 0.388570 0.462320 -0.490151
O24   O     O_3   0.103380 0.345110 0.593380 -0.464925
P1    P     P_3+3 0.038110 0.412300 0.335300 0.959352
P2    P     P_3+3 0.679950 0.711710 0.558590 0.962591
P3    P     P_3+3 0.136813 0.772529 0.410482 0.934699
P4    P     P_3+3 0.151600 0.587780 0.664700 0.964013
P5    P     P_3+3 0.060498 0.227179 0.591834 0.961005
P6    P     P_3+3 0.641226 0.595451 0.276127 0.929223
P7    P     P_3+3 0.516590 0.272602 0.443091 0.939299
P8    P     P_3+3 0.540209 0.407628 0.725302 0.959485

loop_
_geom_bond_atom_site_label_1
_geom_bond_atom_site_label_2
_ccdc_geom_bond_type
O23   P7    S    
C45   O3    S    
C25   C27   A    
C16   H33   S    
C1    H5    S    
C60   H59   S    
C56   H13   S    
O3    P5    S    
C43   C44   A    
O22   P4    S    
C5    C9    A    
C10   C11   A    
C2    C61   A    
C40   H12   S    
O17   P3    D    
C52   H44   S    
C32   C38   A    
Ba2   O6    S    
C60   H17   S    
O6    P7    D    
C33   C35   A    
C22   C24   A    
C38   P7    S    
C36   C37   A    
C32   C33   A    
C49   O12   S    
C28   H68   S    
C9    C22   A    
Ba1   Ba2   S    
C6    H18   S    
C43   H29   S    
C37   H30   S    
C48   H67   S    
C56   H14   S    
O5    P2    S    
C17   C18   A    
C51   H38   S    
C6    C7    A    
Ba2   O23   S    
C39   C44   A    
O21   P8    S    
Ba1   O16   S    
C40   H23   S    
C7    C8    A    
C51   H39   S    
O19   P4    D    
C34   H8    S    
C4    O18   S    
C39   H27   S    
Ba2   O21   S    
O12   P2    S    
C57   H60   S    
C39   C41   A    
O9    P8    S    
C59   C60   S    
Ba2   P4    S    
O10   P6    S    
O16   P3    S    
C34   H7    S    
C47   H45   S    
C58   H64   S    
Ba2   O19   S    
C21   C58   S    
C4    C16   S    
C29   P6    S    
C48   C51   S    
C52   H43   S    
C48   H56   S    
C33   P5    S    
C58   H65   S    
C23   O7    S    
C23   C52   S    
C45   H10   S    
C27   H21   S    
C41   P3    S    
C37   C38   A    
C3    C5    A    
C35   H28   S    
C53   H50   S    
C49   H41   S    
C28   H36   S    
C49   C50   S    
C52   H46   S    
O20   P4    S    
C1    H70   S    
O15   P2    D    
Ba2   O5    S    
Ba1   O23   S    
C35   C36   A    
Ba1   O10   S    
C40   H37   S    
C29   C30   A    
Ba1   P2    S    
C59   H15   S    
C12   H4    S    
C12   H1    S    
C54   H53   S    
C32   H32   S    
Ba1   O20   S    
C17   C26   A    
C45   C54   S    
C5    C61   A    
C1    C12   S    
C46   H31   S    
C23   H47   S    
C55   H57   S    
O13   P1    S    
C18   C31   A    
O4    P1    S    
C28   O22   S    
O1    P1    D    
C50   H42   S    
Ba2   O20   S    
C11   C13   A    
O11   P6    D    
C24   C25   A    
C25   H66   S    
O2    P5    D    
O7    P7    S    
C15   C24   A    
Ba1   O1    S    
C10   P8    S    
C3    H24   S    
Ba1   O4    S    
C42   C43   A    
C56   H11   S    
C53   H49   S    
C55   H54   S    
C41   C46   A    
C57   H61   S    
C26   C27   A    
C14   C20   A    
C53   H48   S    
C23   C34   S    
Ba2   O4    S    
C13   P4    S    
C26   C29   A    
C3    C6    A    
C49   H69   S    
C55   C59   S    
C2    H25   S    
C57   H62   S    
C4    H26   S    
O8    P8    D    
C30   C31   A    
C58   H63   S    
C1    H9    S    
C8    C14   A    
O18   P3    S    
C20   H20   S    
C2    C19   A    
Ba1   P1    S    
C4    H16   S    
C51   H40   S    
Ba2   O24   S    
C16   C53   S    
C30   H22   S    
C12   O14   S    
C15   C17   A    
C54   H52   S    
C47   O13   S    
C34   H6    S    
C7    C10   A    
C36   C44   S    
C8    C9    A    
C50   H2    S    
C21   C22   A    
C47   H34   S    
C31   P1    S    
C42   C46   A    
C59   O9    S    
C50   H3    S    
C18   C19   A    
C19   H19   S    
C47   C48   S    
C42   P2    S    
C54   H51   S    
C20   C21   A    
C28   C40   S    
Ba1   O15   S    
O14   P6    S    
C16   H35   S    
C11   C57   S    
O24   P5    S    
C60   H58   S    
C15   C61   A    
Ba1   O5    S    
C13   C14   A    
C55   H55   S    
C45   C56   S    
