data_mof_unit_40514.cif
_audit_creation_date              2013-03-05T16:19:45-0500
_audit_creation_method            fapswitch 2.2
_symmetry_space_group_name_H-M    P1
_symmetry_Int_Tables_number       1
_space_group_crystal_system       triclinic
_cell_length_a                    10.773662
_cell_length_b                    9.948552
_cell_length_c                    27.441866
_cell_angle_alpha                 92.002854
_cell_angle_beta                  90.992819
_cell_angle_gamma                 91.041588
_cell_volume                      2938.5258369

loop_
_atom_site_label
_atom_site_type_symbol
_atom_site_description
_atom_site_fract_x
_atom_site_fract_y
_atom_site_fract_z
_atom_type_partial_charge
O1    O     O_R   0.314910 0.616040 0.499990 -0.537235
O2    O     O_R   0.314910 0.383960 0.499990 -0.581313
C1    C     C_R   0.257613 0.498926 0.499282 0.858551
O3    O     O_R   0.500140 0.616020 0.428740 -0.624888
O4    O     O_R   0.500140 0.383980 0.428740 -0.542534
C2    C     C_R   0.491076 0.497628 0.405966 0.933523
Zn1   Zn    Zn3+2 0.500150 0.654960 0.499980 1.043230
Zn2   Zn    Zn3+2 0.500150 0.345040 0.499980 1.057740
O5    O     O_R   0.685320 0.616040 0.499970 -0.592920
O6    O     O_R   0.685320 0.383960 0.499970 -0.557952
O7    O     O_R   0.500090 0.616050 0.571230 -0.558184
O8    O     O_R   0.500090 0.383950 0.571230 -0.593858
C3    C     C_R   0.741272 0.500702 0.497757 0.919938
C4    C     C_R   0.492766 0.502137 0.593778 0.906670
C5    C     C_R   0.308353 0.504163 0.174785 0.621325
O9    O     O_2   0.201502 0.516818 0.199301 -0.424873
N1    N     N_R   0.417226 0.491522 0.200159 -0.363570
C6    C     C_R   0.527908 0.474161 0.177570 0.592907
C7    C     C_R   0.443643 0.613059 0.277853 -0.097616
C8    C     C_R   0.466278 0.613276 0.327658 -0.237505
C9    C     C_R   0.424511 0.372001 0.327544 0.441956
C10   C     C_R   0.405449 0.371597 0.276460 0.101107
C11   C     C_R   0.417018 0.492651 0.252123 0.189087
C12   C     C_R   0.423962 0.496686 0.099924 -0.168822
C13   C     C_R   0.308690 0.505759 0.123586 -0.088654
C14   C     C_R   0.198067 0.508202 0.095234 0.446804
C15   C     C_R   0.532771 0.467005 0.126507 -0.101913
C16   C     C_R   0.463170 0.492858 0.352841 -0.102514
C17   C     C_R   0.468303 0.510067 0.646319 -0.079837
C18   C     C_R   0.329462 0.583675 0.973978 0.035197
C19   C     C_R   0.553258 0.547405 0.976964 0.015248
C20   C     C_R   0.443952 0.572254 0.950270 -0.035048
C21   C     C_R   0.232018 0.650088 0.949872 0.402469
C22   C     C_R   0.237943 0.667674 0.899000 0.118269
C23   C     C_R   0.340242 0.616426 0.873464 -0.129228
C24   C     C_R   0.449215 0.586928 0.899580 -0.127714
C25   C     C_R   0.562485 0.568969 0.875087 -0.108240
C26   C     C_R   0.558077 0.563002 0.823682 0.566778
N2    N     N_R   0.446586 0.568145 0.799148 -0.349650
C27   C     C_R   0.338814 0.594630 0.822833 0.654523
C28   C     C_R   0.402254 0.645742 0.716469 0.539375
C29   C     C_R   0.409809 0.623937 0.665985 -0.277765
C30   C     C_R   0.499808 0.406469 0.677134 -0.148614
C31   C     C_R   0.487214 0.423868 0.727267 -0.151927
C32   C     C_R   0.443758 0.545460 0.747248 0.226558
O10   O     O_2   0.230126 0.591716 0.797657 -0.463295
C33   C     C_R   0.320804 0.543395 0.022766 0.015105
C34   C     C_R   0.430292 0.517680 0.049599 -0.031377
C35   C     C_R   0.545353 0.509024 0.026047 0.034441
C36   C     C_R   0.206105 0.512736 0.044167 0.119261
H1    H     H_    0.370915 0.696681 0.642025 0.196444
O11   O     O_2   0.632695 0.469381 0.204953 -0.480509
C37   C     C_R   0.639767 0.426659 0.100977 0.120455
H2    H     H_    0.486724 0.708603 0.346214 0.213289
H3    H     H_    0.451693 0.706170 0.258740 0.179666
C38   C     C_R   0.667339 0.572106 0.954345 0.200754
C39   C     C_R   0.674089 0.564232 0.903338 0.187320
O12   O     O_2   0.662733 0.551924 0.797895 -0.490636
C40   C     C_R   0.644412 0.445434 0.050161 0.386540
H4    H     H_    0.535761 0.313214 0.663073 0.194094
H5    H     H_    0.515440 0.344536 0.750885 0.183828
C41   C     C_3   0.070262 0.624459 0.468526 0.521135
C42   C     C_3   0.069338 0.519619 0.552561 0.456375
C43   C     C_3   0.927837 0.630661 0.473789 -0.438330
C44   C     C_3   0.927518 0.492513 0.549964 -0.330186
H6    H     H_    0.904163 0.718500 0.497696 0.257559
H7    H     H_    0.879606 0.565789 0.574486 0.225035
H8    H     H_    0.882828 0.644430 0.437678 0.195478
H9    H     H_    0.904945 0.391346 0.563539 0.206239
H10   H     H_    0.907880 0.406330 0.424720 0.214929
H11   H     H_    0.868054 0.289275 0.468382 0.279505
C45   C     C_3   0.060570 0.360250 0.474508 0.218699
C46   C     C_3   0.119593 0.498452 0.498476 -0.140982
C47   C     C_3   0.877238 0.501541 0.496573 -0.093247
C48   C     C_3   0.922657 0.382964 0.463753 -0.439235
C49   C     C_3   0.380931 0.079552 0.516376 0.108600
C50   C     C_3   0.375407 0.919183 0.511047 0.223407
H12   H     H_    0.306859 0.114932 0.491825 0.184886
H13   H     H_    0.309736 0.893018 0.480187 0.137044
H14   H     H_    0.427112 0.096781 0.426344 0.160249
H15   H     H_    0.450338 0.873549 0.423482 0.166979
C51   C     C_3   0.512779 0.075868 0.447788 0.031557
C52   C     C_3   0.524353 0.915045 0.448859 -0.180434
C53   C     C_3   0.611871 0.083816 0.526889 0.485411
C54   C     C_3   0.592600 0.926266 0.536049 0.504149
N3    N     N_3   0.499750 0.138610 0.498940 -0.189837
N4    N     N_3   0.499750 0.861390 0.498940 -0.156789
O13   O     O_3   0.404372 0.257968 0.353614 -0.732455
H16   H     H_    0.360922 0.187813 0.333151 0.366528
I1    I     I_    0.780718 0.309314 0.135436 -0.068833
I2    I     I_    0.809476 0.682219 0.995133 -0.220750
I3    I     I_    0.854939 0.534182 0.874290 -0.069837
O14   O     O_3   0.736578 0.389415 0.022038 -0.720425
H17   H     H_    0.811624 0.377736 0.042338 0.374847
I4    I     I_    0.118685 0.625218 0.391858 -0.288396
I5    I     I_    0.152680 0.403321 0.610242 -0.197366
O15   O     O_3   0.120717 0.746962 0.487807 -0.708582
H18   H     H_    0.087642 0.820909 0.468246 0.350622
O16   O     O_3   0.087755 0.653460 0.569802 -0.671626
H19   H     H_    0.177439 0.665780 0.577618 0.373136
I6    I     I_    0.368673 0.190067 0.233991 -0.203885
I7    I     I_    0.143721 0.278635 0.409145 -0.259835
I8    I     I_    0.061889 0.178907 0.516680 -0.213840
O17   O     O_3   0.349541 0.130009 0.562973 -0.655603
H20   H     H_    0.422742 0.126376 0.584765 0.362939
O18   O     O_3   0.323814 0.860108 0.551848 -0.672795
H21   H     H_    0.239375 0.896982 0.555661 0.404858
O19   O     O_3   0.721247 0.110663 0.501114 -0.700649
H22   H     H_    0.745630 0.035013 0.479802 0.356803
O20   O     O_3   0.707003 0.861149 0.536697 -0.691539
H23   H     H_    0.734702 0.843707 0.503580 0.347788
I9    I     I_    0.684551 0.191197 0.591945 -0.192224
I10   I     I_    0.546386 0.893175 0.612565 -0.175928
I11   I     I_    0.652757 0.166703 0.399422 -0.161807
I12   I     I_    0.682110 0.828740 0.408957 -0.314154
O21   O     O_3   0.084509 0.496140 0.117451 -0.654833
H24   H     H_    0.018373 0.523875 0.094583 0.361001
O22   O     O_3   0.358693 0.764790 0.736474 -0.706670
H25   H     H_    0.334690 0.824416 0.709804 0.358744
I13   I     I_    0.116492 0.804951 0.863874 -0.088377
O23   O     O_3   0.140123 0.707517 0.977766 -0.720721
H26   H     H_    0.069340 0.730251 0.956536 0.379723
I14   I     I_    0.065644 0.408791 0.000604 -0.208313

loop_
_geom_bond_atom_site_label_1
_geom_bond_atom_site_label_2
_geom_bond_distance
_ccdc_geom_bond_type
C49   O17   1.406309 S    
C52   N4    1.517471 S    
C42   C44   1.546681 S    
O14   H17   0.984808 S    
C39   I3    2.139968 S    
C49   N3    1.492104 S    
C17   C29   1.402395 A    
C28   C29   1.398755 A    
C7    C8    1.384102 A    
C12   C15   1.411228 A    
O15   H18   0.993378 S    
C37   C40   1.415022 A    
C6    O11   1.347753 S    
O21   H24   0.990653 S    
C27   O10   1.348577 S    
C53   I9    2.174710 S    
C10   I6    2.141866 S    
C43   H8    1.109558 S    
C50   O18   1.401317 S    
C53   N3    1.538060 S    
C14   C36   1.407790 A    
C26   N2    1.369421 A    
O7    C4    1.311805 A    
C5    C13   1.405721 A    
O18   H21   0.992907 S    
C5    O9    1.349011 S    
O19   H22   0.979385 S    
Zn1   O5    2.039087 S    
C22   C23   1.409949 A    
O5    C3    1.305850 A    
O22   H25   0.991847 S    
C41   C43   1.545848 S    
O20   H23   0.972265 S    
C38   I2    2.142834 S    
Zn1   N4    2.054958 S    
C33   C34   1.411773 A    
C44   H7    1.114501 S    
C42   O16   1.406870 S    
C41   C46   1.615705 S    
C19   C38   1.407984 A    
C29   H1    1.079984 S    
N2    C32   1.433914 S    
C50   H13   1.114744 S    
C9    O13   1.378069 S    
C26   O12   1.345718 S    
C41   I4    2.176623 S    
C17   C30   1.398644 A    
C21   O23   1.381593 S    
C19   C35   1.416337 A    
C45   C48   1.532163 S    
O17   H20   0.983403 S    
H15   C52   1.113516 S    
Zn1   O7    2.006422 S    
C33   C36   1.410293 A    
C49   C50   1.596971 S    
C54   N4    1.532811 S    
C22   I13   2.149345 S    
C2    C16   1.482352 S    
H11   C48   1.105392 S    
C47   C48   1.550567 S    
C36   I14   2.140685 S    
C12   C34   1.406541 A    
C52   I12   2.208331 S    
C18   C33   1.415001 A    
C12   C13   1.414230 A    
C51   I11   2.226251 S    
H14   C51   1.112705 S    
C54   O20   1.402931 S    
N2    C27   1.365764 A    
C8    C16   1.403948 A    
O3    Zn1   1.979645 S    
C13   C14   1.412997 A    
C51   N3    1.525943 S    
C42   I5    2.183317 S    
C44   C47   1.559376 S    
O1    C1    1.307967 A    
C23   C24   1.405770 A    
C43   H6    1.110382 S    
C7    C11   1.391797 A    
C30   C31   1.389855 A    
C25   C26   1.409758 A    
C41   O15   1.407699 S    
O16   H19   0.990602 S    
Zn2   O8    1.979884 S    
N1    C6    1.364425 A    
N1    C11   1.425679 S    
C53   C54   1.606401 S    
O23   H26   0.986002 S    
C30   H4    1.073718 S    
C8    H2    1.077954 S    
C34   C35   1.410510 A    
C9    C16   1.419328 A    
O8    C4    1.313689 A    
C28   O22   1.381309 S    
O3    C2    1.315162 A    
C38   C39   1.402399 A    
C4    C17   1.469876 S    
C20   C24   1.405760 A    
C37   I1    2.157525 S    
C31   C32   1.402239 A    
C7    H3    1.083189 S    
C5    N1    1.363708 A    
C24   C25   1.414512 A    
C43   C47   1.542948 S    
C18   C21   1.417035 A    
O1    Zn1   2.026012 S    
C19   C20   1.406367 A    
O2    Zn2   2.039828 S    
C6    C15   1.402536 A    
C49   H12   1.105802 S    
C45   C46   1.617973 S    
O6    C3    1.302569 A    
O4    Zn2   2.006208 S    
C15   C37   1.416288 A    
C45   I8    2.177284 S    
C31   H5    1.083096 S    
C42   C46   1.597035 S    
C35   C40   1.416476 A    
C54   I10   2.200863 S    
O2    C1    1.310111 A    
C18   C20   1.409038 A    
O4    C2    1.315198 A    
C45   I7    2.158585 S    
C44   H9    1.109653 S    
C53   O19   1.410981 S    
C21   C22   1.415381 A    
C23   C27   1.398483 A    
Zn2   N3    2.052806 S    
C1    C46   1.486684 S    
C14   O21   1.381485 S    
O13   H16   0.986506 S    
C50   N4    1.505199 S    
Zn2   O6    2.025272 S    
C51   C52   1.608313 S    
H10   C48   1.113339 S    
C28   C32   1.403818 A    
C10   C11   1.401987 A    
C40   O14   1.381581 S    
C9    C10   1.413124 A    
C25   C39   1.421713 A    
C3    C47   1.465653 S    
