data_mof_unit_49853.cif
_audit_creation_date              2012-12-10T19:46:51-0500
_audit_creation_method            fapswitch 2.2
_symmetry_space_group_name_H-M    P1
_symmetry_Int_Tables_number       1
_space_group_crystal_system       triclinic
_cell_length_a                    10.923414
_cell_length_b                    10.929917
_cell_length_c                    13.11303
_cell_angle_alpha                 90.077907
_cell_angle_beta                  89.868365
_cell_angle_gamma                 90.745134
_cell_volume                      1565.45307838

loop_
_atom_site_label
_atom_site_type_symbol
_atom_type_description
_atom_site_fract_x
_atom_site_fract_y
_atom_site_fract_z
_atom_type_partial_charge
C1    C     C_R   0.493147 0.259741 0.499759 0.834794
C2    C     C_R   0.506819 0.740262 0.500239 0.834925
C3    C     C_R   0.872918 0.491434 0.500309 -0.266162
C4    C     C_R   0.127064 0.508306 0.499686 -0.266146
C5    C     C_R   0.938020 0.464377 0.590349 -0.138236
C6    C     C_R   0.061960 0.535299 0.409641 -0.138405
C7    C     C_R   0.700461 0.235199 0.202476 -0.233525
C8    C     C_R   0.299899 0.764836 0.797661 -0.233671
C9    C     C_R   0.621599 0.172582 0.268945 -0.119164
C10   C     C_R   0.378619 0.827538 0.731135 -0.119196
C11   C     C_R   0.662021 0.138623 0.366364 0.052139
C12   C     C_R   0.338066 0.861393 0.633723 0.052242
C13   C     C_R   0.782880 0.165666 0.395502 -0.271061
C14   C     C_R   0.217222 0.834156 0.604642 -0.270807
C15   C     C_R   0.862213 0.226425 0.328144 0.627308
C16   C     C_R   0.138028 0.773304 0.672057 0.627466
C17   C     C_R   0.820693 0.261932 0.231948 -0.115504
C18   C     C_R   0.179679 0.737901 0.768248 -0.115857
C19   C     C_R   0.586804 0.939064 0.437098 0.026487
C20   C     C_R   0.413156 0.060941 0.562885 0.026381
C21   C     C_R   0.505391 0.872883 0.501098 -0.140976
C22   C     C_R   0.494575 0.127123 0.498893 -0.140955
C23   C     C_R   0.259727 0.507324 0.499994 0.881678
C24   C     C_R   0.740256 0.492553 0.500005 0.881736
C25   C     C_R   0.420578 0.932816 0.565005 -0.019108
C26   C     C_R   0.579403 0.067194 0.434996 -0.019078
C27   C     C_1   0.500111 0.499979 0.173560 0.170350
C28   C     C_1   0.499895 0.500018 0.826440 0.170374
C29   C     C_1   0.500075 0.499967 0.050686 -0.097093
C30   C     C_1   0.499936 0.500026 0.949314 -0.097083
C31   C     C_R   0.243525 0.734126 0.224814 -0.119936
C32   C     C_R   0.756042 0.265630 0.774977 -0.119845
C33   C     C_R   0.188209 0.691415 0.314389 -0.132116
C34   C     C_R   0.811413 0.308390 0.685441 -0.132058
C35   C     C_R   0.122553 0.579941 0.314751 0.194505
C36   C     C_R   0.877409 0.419668 0.685221 0.194147
C37   C     C_R   0.113404 0.512019 0.223986 -0.043933
C38   C     C_R   0.886882 0.487313 0.776112 -0.043658
C39   C     C_R   0.168510 0.555207 0.134403 -0.179557
C40   C     C_R   0.831733 0.444064 0.865659 -0.179610
C41   C     C_R   0.233284 0.666304 0.134772 -0.118817
C42   C     C_R   0.766587 0.333185 0.865133 -0.118941
C43   C     C_R   0.935229 0.524340 0.410483 0.592470
C44   C     C_R   0.064762 0.475298 0.589495 0.592783
Cu1   Cu    Cu3+1 0.499990 0.499990 0.592680 1.002962
Cu2   Cu    Cu3+1 0.500010 0.500010 0.407320 1.002958
H1    H     H_    0.276128 0.699450 0.065451 0.126105
H2    H     H_    0.723701 0.299998 0.934425 0.126116
H3    H     H_    0.816139 0.136623 0.468994 0.134177
H4    H     H_    0.183875 0.863086 0.531138 0.134015
H5    H     H_    0.294354 0.819795 0.225257 0.128598
H6    H     H_    0.704932 0.180129 0.774413 0.128602
H7    H     H_    0.197141 0.744683 0.383459 0.102386
H8    H     H_    0.802239 0.255324 0.616284 0.102327
H9    H     H_    0.064316 0.425501 0.222819 0.168671
H10   H     H_    0.936262 0.573665 0.777410 0.168849
H11   H     H_    0.161240 0.502421 0.064728 0.142489
H12   H     H_    0.839256 0.496635 0.935429 0.142541
H13   H     H_    0.881755 0.308985 0.179640 0.141274
H14   H     H_    0.118728 0.690769 0.820594 0.141275
H15   H     H_    0.668697 0.262006 0.127765 0.145339
H16   H     H_    0.331772 0.738101 0.872362 0.145350
H17   H     H_    0.529096 0.150688 0.244857 0.138808
H18   H     H_    0.471122 0.849559 0.755165 0.138787
N1    N     N_1   0.500030 0.500030 0.268070 -0.125101
N2    N     N_1   0.499970 0.499970 0.731930 -0.125090
O1    O     O_R   0.499980 0.319630 0.578260 -0.594513
O2    O     O_R   0.500020 0.680370 0.421740 -0.594434
O3    O     O_R   0.500000 0.319650 0.421740 -0.577763
O4    O     O_R   0.500000 0.680350 0.578260 -0.577721
O5    O     O_R   0.319630 0.500000 0.578260 -0.516419
O6    O     O_R   0.680370 0.500000 0.421740 -0.516345
O7    O     O_R   0.319650 0.500020 0.421740 -0.591866
O8    O     O_R   0.680350 0.499980 0.578260 -0.591825
F1    F     F_    0.979952 0.248996 0.355459 -0.725163
F2    F     F_    0.020298 0.750520 0.644797 -0.725016
C45   C     C_3   0.689999 0.875292 0.379287 -0.414857
C46   C     C_3   0.796334 0.846133 0.451527 -0.286798
C47   C     C_3   0.918176 0.841550 0.394652 -0.779990
H19   H     H_    0.911362 0.779776 0.327641 0.290190
H20   H     H_    0.945248 0.934546 0.368112 0.247629
H21   H     H_    0.989978 0.807577 0.446603 0.260284
H22   H     H_    0.804623 0.916654 0.512399 0.223483
H23   H     H_    0.778303 0.756770 0.489163 0.223243
H24   H     H_    0.658029 0.790893 0.340490 0.222918
H25   H     H_    0.724042 0.931734 0.314779 0.212348
C48   C     C_3   0.309950 0.124699 0.620691 -0.414903
C49   C     C_3   0.203503 0.153673 0.548481 -0.286217
C50   C     C_3   0.081659 0.158030 0.605391 -0.779559
H26   H     H_    0.054463 0.064911 0.631493 0.247532
H27   H     H_    0.088508 0.219349 0.672650 0.289941
H28   H     H_    0.009915 0.192479 0.553621 0.260317
H29   H     H_    0.221362 0.243085 0.510835 0.223230
H30   H     H_    0.195289 0.083140 0.487598 0.223470
H31   H     H_    0.276048 0.068302 0.685293 0.212320
H32   H     H_    0.341870 0.209198 0.659381 0.222949
F3    F     F_    0.872519 0.549897 0.323682 -0.683593
F4    F     F_    0.127497 0.449582 0.676253 -0.683599

loop_
_geom_bond_atom_site_label_1
_geom_bond_atom_site_label_2
_ccdc_geom_bond_type
C15   F1    S    
C48   C49   S    
C5    C36   S    
C27   C29   S    
C39   C41   A    
C45   C46   S    
C3    C43   A    
C19   C21   A    
C2    O2    A    
Cu1   O5    S    
C20   C25   A    
C39   H11   S    
C20   C48   S    
C6    C35   S    
C7    C9    A    
C19   C45   S    
C19   C26   A    
C32   H6    S    
Cu2   O3    S    
C33   C35   A    
C44   F4    S    
C46   H22   S    
C7    H15   S    
C7    C17   A    
C48   H31   S    
Cu1   O1    S    
C31   C33   A    
C50   H27   S    
Cu2   O6    S    
C40   C42   A    
C45   H24   S    
C1    C22   S    
C16   F2    S    
C3    C24   S    
C23   O7    A    
C33   H7    S    
C49   H30   S    
C40   H12   S    
C23   O5    A    
Cu2   N1    S    
C4    C6    A    
C31   H5    S    
C47   H20   S    
C4    C23   S    
C46   C47   S    
C4    C44   A    
C11   C26   S    
Cu1   Cu2   S    
C8    C18   A    
Cu1   O8    S    
C32   C34   A    
C28   N2    T    
Cu2   O2    S    
C29   C30   T    
C27   N1    T    
C48   H32   S    
C2    C21   S    
C41   H1    S    
C16   C18   A    
C42   H2    S    
C50   H28   S    
C9    C11   A    
C10   C12   A    
C17   H13   S    
C13   H3    S    
C18   H14   S    
C5    C44   A    
C12   C14   A    
C45   H25   S    
C34   H8    S    
C6    C43   A    
C13   C15   A    
C14   C16   A    
C24   O6    A    
C15   C17   A    
C21   C25   A    
C49   H29   S    
C31   C41   A    
C35   C37   A    
Cu1   O4    S    
C9    H17   S    
C10   H18   S    
C43   F3    S    
C20   C22   A    
C3    C5    A    
C47   H21   S    
C12   C25   S    
C36   C38   A    
C37   C39   A    
C38   C40   A    
C11   C13   A    
C24   O8    A    
C14   H4    S    
C28   C30   S    
C1    O1    A    
C34   C36   A    
C1    O3    A    
C47   H19   S    
C37   H9    S    
C46   H23   S    
C38   H10   S    
C49   C50   S    
C8    C10   A    
C22   C26   A    
Cu1   N2    S    
C32   C42   A    
C50   H26   S    
C2    O4    A    
Cu2   O7    S    
C8    H16   S    
