data_mof_unit_50268.cif
_audit_creation_date              2012-12-11T15:20:32-0500
_audit_creation_method            fapswitch 2.2
_symmetry_space_group_name_H-M    P1
_symmetry_Int_Tables_number       1
_space_group_crystal_system       triclinic
_cell_length_a                    21.585897
_cell_length_b                    7.245828
_cell_length_c                    19.915678
_cell_angle_alpha                 89.391864
_cell_angle_beta                  87.67612
_cell_angle_gamma                 89.233091
_cell_volume                      3111.96660108

loop_
_atom_site_label
_atom_site_type_symbol
_atom_type_description
_atom_site_fract_x
_atom_site_fract_y
_atom_site_fract_z
_atom_type_partial_charge
O1    O     O_R   0.688010 0.379840 0.189360 -0.532601
O2    O     O_R   0.311990 0.620160 0.810640 -0.501112
O3    O     O_R   0.811990 0.879840 0.310640 -0.490446
O4    O     O_R   0.188010 0.120160 0.689360 -0.537385
O5    O     O_R   0.808630 0.708850 0.184280 -0.512922
O6    O     O_R   0.191370 0.291150 0.815720 -0.523015
O7    O     O_R   0.691370 0.208850 0.315720 -0.529322
O8    O     O_R   0.308630 0.791150 0.684280 -0.526351
C1    C     C_R   0.830334 0.540738 0.166558 0.760716
C2    C     C_R   0.169525 0.459233 0.833280 0.749022
C3    C     C_R   0.669587 0.041171 0.333333 0.742186
C4    C     C_R   0.330449 0.958823 0.666706 0.748731
O9    O     O_R   0.688260 0.709510 0.181570 -0.508490
O10   O     O_R   0.311740 0.290490 0.818430 -0.536645
O11   O     O_R   0.811740 0.209510 0.318430 -0.533549
O12   O     O_R   0.188260 0.790490 0.681570 -0.505033
O13   O     O_R   0.690760 0.880550 0.307920 -0.518176
O14   O     O_R   0.309240 0.119450 0.692080 -0.522715
O15   O     O_R   0.809240 0.380550 0.192080 -0.529937
O16   O     O_R   0.190760 0.619450 0.807920 -0.523158
C5    C     C_R   0.668004 0.543008 0.165587 0.787517
C6    C     C_R   0.331447 0.457407 0.834160 0.833043
C7    C     C_R   0.832457 0.039356 0.333697 0.797706
C8    C     C_R   0.168497 0.960639 0.666206 0.837870
O17   O     O_3   0.750960 0.546580 0.291460 -0.359256
O18   O     O_3   0.249040 0.453420 0.708540 -0.378361
O19   O     O_3   0.749040 0.046580 0.208540 -0.383019
O20   O     O_3   0.250960 0.953420 0.791460 -0.371410
V1    V     V_3+5 0.749820 0.821150 0.242310 1.643369
V2    V     V_3+5 0.250180 0.178850 0.757690 1.612598
V3    V     V_3+5 0.750180 0.321150 0.257690 1.564694
V4    V     V_3+5 0.249820 0.678850 0.742310 1.640742
C9    C     C_R   0.061283 0.055671 0.634678 0.373190
C10   C     C_R   0.938084 0.920842 0.371124 0.391591
C11   C     C_R   0.437292 0.366489 0.873261 0.393965
C12   C     C_R   0.564961 0.653463 0.118412 0.389416
C13   C     C_R   0.119721 0.977102 0.616335 -0.191519
C14   C     C_R   0.883286 0.029435 0.383024 -0.226941
C15   C     C_R   0.380065 0.460860 0.884705 -0.201449
C16   C     C_R   0.618321 0.536033 0.114944 -0.220944
C17   C     C_R   0.134170 0.930610 0.549162 0.281564
C18   C     C_R   0.878883 0.143578 0.440287 0.285630
C19   C     C_R   0.367238 0.550814 0.946002 0.296599
C20   C     C_R   0.624433 0.406663 0.062556 0.308478
C21   C     C_R   0.087774 0.946608 0.500836 -0.012966
C22   C     C_R   0.926730 0.138942 0.487412 -0.010330
C23   C     C_R   0.414123 0.562523 0.993691 0.032142
C24   C     C_R   0.574667 0.379398 0.019146 0.008565
C25   C     C_R   0.030251 0.032386 0.518713 -0.032787
C26   C     C_R   0.982650 0.042861 0.471551 -0.026423
C27   C     C_R   0.470437 0.463051 0.983180 -0.001840
C28   C     C_R   0.518887 0.481426 0.028872 0.006747
C29   C     C_R   0.020150 0.107648 0.583582 -0.150838
C30   C     C_R   0.991046 0.955669 0.408768 -0.130531
C31   C     C_R   0.478754 0.346532 0.926782 -0.126118
C32   C     C_R   0.511776 0.604480 0.083325 -0.086009
C33   C     C_R   0.098325 0.887836 0.434244 -0.185977
C34   C     C_R   0.921567 0.235555 0.548382 -0.183962
C35   C     C_R   0.405283 0.665315 0.052849 -0.196515
C36   C     C_R   0.576797 0.239466 0.970690 -0.175185
C37   C     C_R   0.052146 0.903483 0.387230 0.516242
C38   C     C_R   0.969359 0.231728 0.593901 0.496051
C39   C     C_R   0.451602 0.676039 0.099651 0.475942
C40   C     C_R   0.528202 0.215326 0.927185 0.473283
H1    H     H_    0.143080 0.834415 0.416923 0.178014
H2    H     H_    0.881537 0.321748 0.560543 0.182211
H3    H     H_    0.361651 0.734655 0.064703 0.140112
H4    H     H_    0.614199 0.138651 0.969521 0.168292
C41   C     C_1   0.382741 0.968583 0.614625 -0.116408
C42   C     C_1   0.617321 0.031424 0.385457 -0.116067
C43   C     C_1   0.117212 0.469635 0.885291 -0.113803
C44   C     C_1   0.882551 0.530374 0.114421 -0.111220
C45   C     C_1   0.426358 0.979473 0.571871 0.050648
C46   C     C_1   0.573726 0.020572 0.428246 0.062402
C47   C     C_1   0.073565 0.480360 0.928014 0.049736
C48   C     C_1   0.926145 0.519742 0.071624 0.065380
C49   C     C_1   0.478186 0.993836 0.521357 0.054729
C50   C     C_1   0.521911 0.006239 0.478782 0.059730
C51   C     C_1   0.021713 0.494162 0.978508 0.054867
C52   C     C_1   0.977968 0.506007 0.021086 0.059560
S1    S     S_3+6 0.034410 0.034877 0.720277 0.072808
O21   O     O_2   0.055575 0.196199 0.759788 -0.297704
O22   O     O_2   0.964883 0.024584 0.725120 -0.283565
O23   O     O_3   0.063564 0.839791 0.753841 -0.499992
H5    H     H_    0.049140 0.841209 0.801689 0.363442
S2    S     S_3+6 0.934621 0.708436 0.327085 0.059625
O24   O     O_2   0.930539 0.745036 0.253015 -0.305520
O25   O     O_2   0.990101 0.587202 0.339531 -0.300015
O26   O     O_3   0.871742 0.592983 0.355328 -0.505171
H6    H     H_    0.881998 0.462276 0.345879 0.359750
S3    S     S_3+6 0.463266 0.326973 0.788374 0.096708
O27   O     O_2   0.532814 0.333176 0.781893 -0.267097
O28   O     O_2   0.441202 0.142918 0.765640 -0.295337
O29   O     O_3   0.434569 0.492573 0.738073 -0.508449
H7    H     H_    0.445405 0.451497 0.691740 0.354880
S4    S     S_3+6 0.573334 0.889042 0.140886 0.068824
O30   O     O_2   0.522668 0.008914 0.113681 -0.291494
O31   O     O_2   0.573317 0.905875 0.216055 -0.314491
O32   O     O_3   0.640656 0.966066 0.106827 -0.500181
H8    H     H_    0.652625 0.065545 0.137078 0.382540
O33   O     O_3   0.193331 0.865801 0.533174 -0.642628
H9    H     H_    0.206852 0.919697 0.489226 0.303732
O34   O     O_3   0.825299 0.247005 0.451221 -0.628438
H10   H     H_    0.836904 0.368877 0.468400 0.318178
O35   O     O_3   0.309178 0.630077 0.956596 -0.641244
H11   H     H_    0.295530 0.606550 0.003911 0.290731
O36   O     O_3   0.681393 0.319764 0.052422 -0.638370
H12   H     H_    0.689400 0.302002 0.003630 0.304111
S5    S     S_3+6 0.077853 0.910168 0.301381 0.107102
O37   O     O_2   0.093268 0.718708 0.277081 -0.257407
O38   O     O_2   0.029773 0.997761 0.258311 -0.289758
O39   O     O_3   0.142627 0.036657 0.294833 -0.486642
H13   H     H_    0.155550 0.033385 0.246558 0.381696
S6    S     S_3+6 0.973005 0.425014 0.647641 0.106894
O40   O     O_2   0.935905 0.391303 0.711944 -0.233764
O41   O     O_2   0.039185 0.464596 0.662701 -0.302416
O42   O     O_3   0.942787 0.610527 0.608581 -0.505186
H14   H     H_    0.954524 0.717573 0.635621 0.391662
S7    S     S_3+6 0.426858 0.734399 0.183047 0.124740
O43   O     O_2   0.472152 0.663991 0.232925 -0.266743
O44   O     O_2   0.419429 0.940037 0.189746 -0.260969
O45   O     O_3   0.357875 0.636067 0.201098 -0.466564
H15   H     H_    0.326379 0.726363 0.185999 0.348397
S8    S     S_3+6 0.522125 0.992264 0.892061 0.105362
O46   O     O_2   0.455313 0.945092 0.883692 -0.286124
O47   O     O_2   0.556632 0.982443 0.825091 -0.247257
O48   O     O_3   0.552903 0.834789 0.944207 -0.501198
H16   H     H_    0.596612 0.818096 0.928109 0.349996

loop_
_geom_bond_atom_site_label_1
_geom_bond_atom_site_label_2
_ccdc_geom_bond_type
C34   C38   A    
C4    C41   S    
O17   V3    S    
O33   H9    S    
O19   V1    S    
O13   V1    S    
O3    C7    A    
C1    C44   S    
C44   C48   T    
C37   S5    S    
C18   O34   S    
S1    O21   D    
C3    C42   S    
C49   C50   T    
O1    C5    A    
C21   C33   A    
C26   C30   A    
O9    V1    S    
C14   C18   A    
S5    O38   D    
C19   O35   S    
C11   C15   A    
O4    C8    A    
S2    O25   D    
S7    O45   S    
S4    O32   S    
O1    V3    S    
O2    V4    S    
C10   S2    S    
C33   C37   A    
O3    V1    S    
C42   C46   T    
C35   H3    S    
C34   H2    S    
C2    O16   A    
S4    O31   D    
O2    C6    A    
O36   H12   S    
C41   C45   T    
O14   V2    S    
C19   C23   A    
C16   C20   A    
C2    C43   S    
O11   C7    A    
O15   V3    S    
O12   C8    A    
C22   C34   A    
O10   V2    S    
O39   H13   S    
S1    O22   D    
C1    O15   A    
C24   C36   A    
O5    V1    S    
S7    O44   D    
C31   C40   A    
C9    C29   A    
O7    V3    S    
C11   C31   A    
C27   C28   A    
O8    V4    S    
C12   C16   A    
O23   H5    S    
S5    O39   S    
S3    O27   D    
C38   S6    S    
S2    O24   D    
C15   C19   A    
C40   S8    S    
C9    C13   A    
O7    C3    A    
O5    C1    A    
C12   C32   A    
S3    O28   D    
C39   S7    S    
C29   C38   A    
C12   S4    S    
S6    O41   D    
O32   H8    S    
C21   C25   A    
O8    C4    A    
S4    O30   D    
C8    C13   S    
C32   C39   A    
O9    C5    A    
O11   V3    S    
S8    O48   S    
O6    V2    S    
C10   C30   A    
C18   C22   A    
O48   H16   S    
S1    O23   S    
S8    O47   D    
O16   V4    S    
C20   O36   S    
C3    O13   A    
C45   C49   S    
C10   C14   A    
C48   C52   S    
C33   H1    S    
S2    O26   S    
O6    C2    A    
C23   C27   A    
S7    O43   D    
S6    O40   D    
O18   V4    S    
C30   C37   A    
O12   V4    S    
C7    C14   S    
O35   H11   S    
C22   C26   A    
C35   C39   A    
C36   C40   A    
O10   C6    A    
O20   V2    S    
O45   H15   S    
S5    O37   D    
S3    O29   S    
C43   C47   T    
C5    C16   S    
C9    S1    S    
C25   C29   A    
C6    C15   S    
C17   O33   S    
C27   C31   A    
C13   C17   A    
O29   H7    S    
S6    O42   S    
C23   C35   A    
C51   C52   T    
C28   C32   A    
C24   C28   A    
C36   H4    S    
C25   C26   A    
C46   C50   S    
C4    O14   A    
O34   H10   S    
C17   C21   A    
O26   H6    S    
O42   H14   S    
C47   C51   S    
O4    V2    S    
C20   C24   A    
S8    O46   D    
C11   S3    S    
