data_mof_unit_55585.cif
_audit_creation_date              2012-12-10T21:19:11-0500
_audit_creation_method            fapswitch 2.2
_symmetry_space_group_name_H-M    P1
_symmetry_Int_Tables_number       1
_space_group_crystal_system       triclinic
_cell_length_a                    15.724887
_cell_length_b                    17.404793
_cell_length_c                    16.764437
_cell_angle_alpha                 90.274608
_cell_angle_beta                  91.901775
_cell_angle_gamma                 90.80586
_cell_volume                      4585.1876693

loop_
_atom_site_label
_atom_site_type_symbol
_atom_type_description
_atom_site_fract_x
_atom_site_fract_y
_atom_site_fract_z
_atom_type_partial_charge
C1    C     C_R   0.498916 0.353042 0.499699 1.044368
C2    C     C_R   0.408197 0.156481 0.534307 0.351235
C3    C     C_R   0.454522 0.883757 0.481018 -0.204082
C4    C     C_R   0.456694 0.113609 0.481795 -0.208717
C5    C     C_1   0.446369 0.964510 0.479576 0.096852
C6    C     C_1   0.447350 0.032704 0.479715 0.093506
C7    C     C_R   0.434834 0.459174 0.828994 0.307143
C8    C     C_R   0.539113 0.563134 0.170649 0.317908
C9    C     C_R   0.438255 0.460056 0.745124 -0.107667
C10   C     C_R   0.538243 0.559509 0.254609 -0.126436
C11   C     C_R   0.560929 0.540999 0.750029 0.479625
C12   C     C_R   0.499300 0.646765 0.500018 1.065372
C13   C     C_R   0.460747 0.441679 0.249880 0.489163
C14   C     C_R   0.565536 0.535255 0.835273 0.261164
C15   C     C_R   0.468887 0.438079 0.165192 0.266251
C16   C     C_R   0.337662 0.499157 0.498603 0.922937
C17   C     C_R   0.662370 0.500629 0.501342 0.906216
C18   C     C_R   0.499479 0.497890 0.875455 -0.150097
C19   C     C_R   0.503267 0.501362 0.124544 -0.152317
C20   C     C_1   0.500314 0.499346 0.963482 0.041332
C21   C     C_1   0.501891 0.500737 0.036508 0.041060
C22   C     C_3   0.973164 0.439312 0.537612 0.270800
C23   C     C_R   0.419513 0.760740 0.538690 0.244621
C24   C     C_3   0.026959 0.565321 0.462541 0.179776
C25   C     C_3   0.020246 0.438604 0.458849 0.274530
C26   C     C_3   0.979020 0.565343 0.541702 0.286268
C27   C     C_1   0.249017 0.497781 0.494858 -0.181109
C28   C     C_1   0.751089 0.502682 0.504744 -0.138775
C29   C     C_3   0.035480 0.499759 0.573630 0.340186
C30   C     C_3   0.964892 0.504588 0.426207 0.281705
C31   C     C_3   0.083416 0.499235 0.494541 -0.159993
C32   C     C_3   0.916868 0.504363 0.505444 -0.120131
C33   C     C_1   0.173874 0.497455 0.492528 0.124790
C34   C     C_R   0.533792 0.227648 0.441938 0.276896
C35   C     C_1   0.826271 0.504153 0.506756 0.171166
C36   C     C_R   0.405583 0.840187 0.532920 0.345513
C37   C     C_R   0.520532 0.147847 0.437016 0.321373
C38   C     C_3   0.978296 0.323811 0.398993 0.107153
C39   C     C_3   0.000970 0.269813 0.331043 -0.367876
C40   C     C_3   0.931292 0.209176 0.315272 -0.949353
C41   C     C_3   0.994950 0.694393 0.575415 0.120113
C42   C     C_3   0.979538 0.751395 0.642806 -0.354081
C43   C     C_3   0.029282 0.826304 0.631573 -0.955629
C44   C     C_3   0.630988 0.660303 0.733698 0.113716
C45   C     C_R   0.487871 0.728949 0.498455 -0.263696
C46   C     C_3   0.547726 0.704603 0.744313 -0.386328
C47   C     C_3   0.566295 0.789613 0.760877 -0.963519
C48   C     C_3   0.332942 0.372217 0.263154 0.086031
C49   C     C_3   0.279174 0.445474 0.256536 -0.368367
C50   C     C_3   0.186199 0.425866 0.236128 -0.952785
C51   C     C_3   0.705558 0.522731 0.875367 0.110294
C52   C     C_3   0.708480 0.463500 0.942800 -0.371474
C53   C     C_3   0.792470 0.420648 0.945551 -0.930941
C54   C     C_3   0.499151 0.313153 0.134104 0.104242
C55   C     C_3   0.574295 0.319789 0.078313 -0.368509
C56   C     C_R   0.488317 0.270136 0.497428 -0.260468
C57   C     C_3   0.632582 0.250752 0.086487 -0.943882
C58   C     C_3   0.974125 0.504185 0.288862 0.098234
C59   C     C_3   0.921866 0.508128 0.210555 -0.332263
C60   C     C_3   0.977953 0.500413 0.138485 -0.971684
C61   C     C_3   0.122239 0.556060 0.673212 0.098805
C62   C     C_3   0.193219 0.532198 0.732099 -0.292017
C63   C     C_3   0.251203 0.600226 0.755695 -0.947953
C64   C     C_3   0.372033 0.889338 0.653389 0.066943
C65   C     C_3   0.302049 0.927259 0.700069 -0.311624
C66   C     C_3   0.330964 0.942579 0.786540 -0.945322
C67   C     C_R   0.538864 0.773404 0.448792 0.265354
C68   C     C_3   0.644808 0.083317 0.427739 0.095915
C69   C     C_3   0.708595 0.056003 0.367269 -0.306279
C70   C     C_3   0.791470 0.030802 0.408544 -0.952424
C71   C     C_3   0.518905 0.904814 0.312049 0.082088
C72   C     C_3   0.540296 0.841651 0.252233 -0.356826
C73   C     C_3   0.497066 0.855345 0.170829 -0.915217
C74   C     C_3   0.271756 0.107405 0.531462 0.089152
C75   C     C_3   0.209393 0.173358 0.541136 -0.361175
C76   C     C_3   0.123797 0.155182 0.499298 -0.940016
C77   C     C_R   0.427127 0.235024 0.545319 0.270573
C78   C     C_R   0.518775 0.850728 0.436506 0.347341
H1    H     H_    0.390134 0.429032 0.709796 0.210373
H2    H     H_    0.971652 0.719844 0.518183 0.169576
H3    H     H_    0.064690 0.684613 0.573273 0.153739
H4    H     H_    0.910495 0.763993 0.644357 0.233487
H5    H     H_    0.999598 0.725618 0.700853 0.220534
H6    H     H_    0.098698 0.815186 0.631661 0.267203
H7    H     H_    0.016556 0.866513 0.681250 0.266287
H8    H     H_    0.009492 0.853730 0.574339 0.270576
H9    H     H_    0.667328 0.690363 0.687140 0.166314
H10   H     H_    0.672447 0.663942 0.788332 0.177257
H11   H     H_    0.506388 0.699141 0.689698 0.265918
H12   H     H_    0.567662 0.605607 0.289688 0.216919
H13   H     H_    0.512526 0.681060 0.795282 0.219107
H14   H     H_    0.611413 0.796525 0.812902 0.276434
H15   H     H_    0.506511 0.819162 0.774856 0.261263
H16   H     H_    0.593909 0.817109 0.707765 0.260084
H17   H     H_    0.302521 0.333554 0.306751 0.163974
H18   H     H_    0.330573 0.339817 0.206088 0.182285
H19   H     H_    0.282592 0.477499 0.313779 0.255440
H20   H     H_    0.303354 0.483502 0.209077 0.209503
H21   H     H_    0.180375 0.393838 0.178696 0.267742
H22   H     H_    0.149894 0.479844 0.230252 0.267823
H23   H     H_    0.919499 0.354990 0.380301 0.171708
H24   H     H_    0.158603 0.390599 0.284145 0.286904
H25   H     H_    0.761817 0.561743 0.882835 0.165905
H26   H     H_    0.711547 0.493628 0.816373 0.150162
H27   H     H_    0.700554 0.493036 0.000980 0.240502
H28   H     H_    0.655642 0.421035 0.933566 0.217333
H29   H     H_    0.800855 0.389289 0.888546 0.274662
H30   H     H_    0.792448 0.378471 0.995050 0.265935
H31   H     H_    0.846626 0.461511 0.955984 0.264363
H32   H     H_    0.463949 0.258688 0.120181 0.165507
H33   H     H_    0.522631 0.308584 0.197407 0.162565
H34   H     H_    0.965148 0.289124 0.452790 0.177553
H35   H     H_    0.549875 0.323648 0.015489 0.239331
H36   H     H_    0.612135 0.372688 0.092888 0.217225
H37   H     H_    0.658726 0.246551 0.148677 0.265215
H38   H     H_    0.686349 0.257516 0.045674 0.268427
H39   H     H_    0.597073 0.196940 0.070491 0.267228
H40   H     H_    0.993034 0.345315 0.593695 0.352593
H41   H     H_    0.009293 0.654289 0.397420 0.340400
H42   H     H_    0.008418 0.448904 0.290093 0.176656
H43   H     H_    0.020970 0.552691 0.290964 0.178063
H44   H     H_    0.873310 0.461031 0.208685 0.234683
H45   H     H_    0.009875 0.303689 0.275828 0.219423
H46   H     H_    0.888371 0.563907 0.207333 0.240569
H47   H     H_    0.026906 0.547064 0.138815 0.270385
H48   H     H_    0.938117 0.504581 0.082794 0.273232
H49   H     H_    0.009803 0.443840 0.139141 0.269708
H50   H     H_    0.080665 0.597807 0.702906 0.167425
H51   H     H_    0.152376 0.584881 0.621940 0.130373
H52   H     H_    0.164819 0.507943 0.786523 0.240122
H53   H     H_    0.231996 0.487023 0.704286 0.242484
H54   H     H_    0.283493 0.622837 0.702563 0.288486
H55   H     H_    0.300530 0.581434 0.800040 0.278191
H56   H     H_    0.061716 0.240727 0.346404 0.235678
H57   H     H_    0.213806 0.646731 0.782726 0.257284
H58   H     H_    0.428710 0.928604 0.653768 0.154758
H59   H     H_    0.389300 0.834719 0.683757 0.156038
H60   H     H_    0.284728 0.982570 0.671549 0.246269
H61   H     H_    0.244683 0.889145 0.699053 0.218852
H62   H     H_    0.347185 0.887819 0.816837 0.260469
H63   H     H_    0.278853 0.970194 0.818792 0.269473
H64   H     H_    0.387499 0.981624 0.788959 0.273233
H65   H     H_    0.631819 0.035992 0.470264 0.173462
H66   H     H_    0.674456 0.132866 0.461477 0.139166
H67   H     H_    0.923106 0.173205 0.369100 0.269730
H68   H     H_    0.680912 0.006947 0.332161 0.249417
H69   H     H_    0.722582 0.103544 0.325409 0.212824
H70   H     H_    0.820851 0.079128 0.443672 0.259975
H71   H     H_    0.836785 0.012428 0.363009 0.267167
H72   H     H_    0.779285 0.981713 0.448912 0.274709
H73   H     H_    0.316204 0.741064 0.597502 0.361105
H74   H     H_    0.613762 0.229746 0.354897 0.360780
H75   H     H_    0.641267 0.778624 0.385810 0.371733
H76   H     H_    0.349482 0.246393 0.633269 0.373377
H77   H     H_    0.537737 0.961279 0.287044 0.188975
H78   H     H_    0.949223 0.171408 0.265173 0.267570
H79   H     H_    0.448627 0.906962 0.319207 0.133588
H80   H     H_    0.610318 0.840220 0.245347 0.237773
H81   H     H_    0.518710 0.784949 0.274744 0.248425
H82   H     H_    0.426847 0.855957 0.176116 0.260603
H83   H     H_    0.513489 0.808452 0.129155 0.290054
H84   H     H_    0.518941 0.910941 0.145855 0.257372
H85   H     H_    0.241492 0.053548 0.552620 0.177348
H86   H     H_    0.283697 0.098100 0.466863 0.127777
H87   H     H_    0.199289 0.183543 0.605617 0.238631
H88   H     H_    0.236386 0.226665 0.515216 0.238383
H89   H     H_    0.870009 0.236994 0.299012 0.268573
H90   H     H_    0.132283 0.144628 0.434686 0.259707
H91   H     H_    0.080715 0.204546 0.506275 0.275391
H92   H     H_    0.093924 0.103595 0.526045 0.264562
H93   H     H_    0.372669 0.422598 0.920780 0.358025
H94   H     H_    0.573960 0.622791 0.078510 0.354593
N1    N     N_R   0.500020 0.500030 0.707230 -0.170873
N2    N     N_R   0.499980 0.499970 0.292770 -0.174389
O1    O     O_R   0.500000 0.389130 0.566570 -0.595357
O2    O     O_3   0.949323 0.625787 0.589544 -0.627896
O3    O     O_3   0.619629 0.583006 0.707222 -0.616516
O4    O     O_3   0.418016 0.385286 0.291840 -0.611571
O5    O     O_3   0.632037 0.568448 0.880014 -0.648385
O6    O     O_3   0.441692 0.374200 0.121298 -0.646693
O7    O     O_3   0.942083 0.375398 0.578237 -0.740918
O8    O     O_3   0.059480 0.629002 0.422438 -0.770694
O9    O     O_3   0.918529 0.508791 0.352819 -0.634653
O10   O     O_3   0.073362 0.490354 0.650508 -0.605698
O11   O     O_3   0.341714 0.874933 0.574422 -0.638870
O12   O     O_R   0.500000 0.610870 0.433430 -0.614253
O13   O     O_3   0.568332 0.103572 0.386791 -0.646830
O14   O     O_3   0.366914 0.712650 0.581119 -0.782788
O15   O     O_3   0.592387 0.265345 0.395618 -0.751679
O16   O     O_3   0.606737 0.739159 0.412759 -0.769798
O17   O     O_3   0.384615 0.279616 0.599287 -0.758905
O18   O     O_3   0.565719 0.895164 0.384976 -0.650566
O19   O     O_3   0.346701 0.120753 0.579166 -0.644892
O20   O     O_3   0.368101 0.419270 0.861885 -0.747932
O21   O     O_3   0.576619 0.627146 0.137386 -0.754954
O22   O     O_R   0.499990 0.389100 0.433480 -0.536216
O23   O     O_R   0.500010 0.610900 0.566520 -0.583789
O24   O     O_R   0.376780 0.500010 0.566530 -0.610266
O25   O     O_R   0.623220 0.499990 0.433470 -0.605055
O26   O     O_R   0.376780 0.499980 0.433450 -0.625153
O27   O     O_R   0.623220 0.500020 0.566550 -0.576929
O28   O     O_3   0.047799 0.374182 0.415872 -0.648881
Zn1   Zn    Zn3+2 0.500000 0.500020 0.588860 1.018825
Zn2   Zn    Zn3+2 0.500000 0.499980 0.411140 1.015891

loop_
_geom_bond_atom_site_label_1
_geom_bond_atom_site_label_2
_ccdc_geom_bond_type
C25   C31   S    
C30   C32   S    
H76   O17   S    
C64   H58   S    
C34   C56   A    
C23   C45   A    
C48   H17   S    
C34   C37   A    
C41   C42   S    
C62   H52   S    
C2    C4    A    
C42   H4    S    
C41   H2    S    
C48   O4    S    
C67   O16   S    
C72   H80   S    
C57   H37   S    
C46   H11   S    
C37   O13   S    
C27   C33   T    
C26   C32   S    
C67   C78   A    
C73   H82   S    
C50   H21   S    
C62   C63   S    
C72   H81   S    
C22   C32   S    
C40   H67   S    
C68   H65   S    
C5    C6    T    
C63   H55   S    
C60   H47   S    
C29   O10   S    
C1    C56   S    
C24   C26   S    
C38   H23   S    
C23   O14   S    
C11   C14   A    
C51   H25   S    
C13   O4    S    
C23   C36   A    
C17   O27   A    
C39   H45   S    
C54   H32   S    
C8    O21   S    
C36   O11   S    
C9    H1    S    
C61   H50   S    
C14   C18   A    
C40   H89   S    
C73   H83   S    
C49   H20   S    
C46   C47   S    
C28   C35   T    
C68   C69   S    
C61   O10   S    
C22   C25   S    
C70   H72   S    
C45   C67   A    
C12   O23   A    
C31   C33   S    
C9    N1    A    
C11   O3    S    
C71   O18   S    
O22   Zn2   S    
C44   H9    S    
C64   O11   S    
C16   O26   A    
C61   H51   S    
H75   O16   S    
C61   C62   S    
C59   H44   S    
C74   O19   S    
C41   H3    S    
C59   C60   S    
C15   O6    S    
C69   H68   S    
O27   Zn1   S    
C76   H91   S    
C70   H71   S    
H93   O20   S    
C51   O5    S    
C58   H42   S    
C44   C46   S    
C57   H38   S    
C64   H59   S    
C60   H49   S    
H73   O14   S    
C71   H79   S    
C11   N1    A    
C8    C19   A    
C74   C75   S    
C24   O8    S    
C51   C52   S    
C77   O17   S    
C32   C35   S    
C1    O22   A    
C78   O18   S    
C68   O13   S    
C72   C73   S    
C4    C6    S    
C25   O28   S    
C43   H6    S    
C39   C40   S    
C66   H63   S    
C25   C30   S    
C46   H13   S    
C55   H35   S    
C58   C59   S    
C10   N2    A    
C52   H28   S    
C56   C77   A    
C58   O9    S    
H41   O8    S    
C63   H57   S    
C15   C19   A    
C75   C76   S    
H74   O15   S    
C53   H29   S    
C26   O2    S    
O26   Zn2   S    
C7    C18   A    
C71   H77   S    
C17   C28   S    
N2    Zn2   S    
C47   H15   S    
O12   Zn2   S    
C75   H87   S    
C63   H54   S    
C4    C37   A    
C7    O20   S    
C76   H92   S    
C76   H90   S    
C65   H60   S    
C48   C49   S    
C41   O2    S    
C52   H27   S    
C50   H24   S    
C43   H7    S    
C55   C57   S    
O25   Zn2   S    
C69   H69   S    
C70   H70   S    
C42   C43   S    
C38   H34   S    
C16   O24   A    
C13   N2    A    
C57   H39   S    
H40   O7    S    
C53   H31   S    
C59   H46   S    
C7    C9    A    
C54   C55   S    
C1    O1    A    
C58   H43   S    
C48   H18   S    
C19   C21   S    
C38   C39   S    
C43   H8    S    
C62   H53   S    
C34   O15   S    
C42   H5    S    
C14   O5    S    
C12   C45   S    
C3    C5    S    
C44   O3    S    
C68   H66   S    
C30   O9    S    
C66   H64   S    
C55   H36   S    
C22   O7    S    
C50   H22   S    
C47   H14   S    
C12   O12   A    
N1    Zn1   S    
C2    O19   S    
C64   C65   S    
C73   H84   S    
C13   C15   A    
C51   H26   S    
C24   C31   S    
O1    Zn1   S    
C71   C72   S    
C29   C31   S    
C2    C77   A    
C74   H86   S    
C53   H30   S    
C74   H85   S    
C3    C36   A    
C16   C27   S    
C60   H48   S    
C47   H16   S    
C54   O6    S    
C54   H33   S    
O23   Zn1   S    
C75   H88   S    
C18   C20   S    
C65   C66   S    
C69   C70   S    
C24   C30   S    
C49   H19   S    
C65   H61   S    
C66   H62   S    
C20   C21   T    
C10   H12   S    
C26   C29   S    
C8    C10   A    
C49   C50   S    
C38   O28   S    
C22   C29   S    
O24   Zn1   S    
C40   H78   S    
H94   O21   S    
C44   H10   S    
C3    C78   A    
C17   O25   A    
C52   C53   S    
C39   H56   S    
