data_mof_unit_36092.cif
_audit_creation_date              2012-12-10T20:44:50-0500
_audit_creation_method            fapswitch 2.2
_symmetry_space_group_name_H-M    P1
_symmetry_Int_Tables_number       1
_space_group_crystal_system       triclinic
_cell_length_a                    9.911916
_cell_length_b                    10.702089
_cell_length_c                    16.841222
_cell_angle_alpha                 87.880357
_cell_angle_beta                  91.975323
_cell_angle_gamma                 89.429571
_cell_volume                      1784.09059824

loop_
_atom_site_label
_atom_site_type_symbol
_atom_type_description
_atom_site_fract_x
_atom_site_fract_y
_atom_site_fract_z
_atom_type_partial_charge
C1    C     C_R   0.499839 0.261534 0.491666 0.866188
C2    C     C_R   0.499874 0.130310 0.478548 -0.146806
C3    C     C_R   0.380339 0.066121 0.456609 0.154228
C4    C     C_R   0.514743 0.498529 0.652394 0.863273
C5    C     C_R   0.379504 0.936880 0.467552 -0.247469
C6    C     C_R   0.497754 0.872413 0.492388 -0.137609
C7    C     C_R   0.617244 0.935916 0.505495 0.076813
C8    C     C_3   0.747195 0.918741 0.464699 -0.473975
C9    C     C_3   0.750059 0.059587 0.454979 -0.029073
C10   C     C_R   0.075322 0.490657 0.569646 0.177415
C11   C     C_R   0.069511 0.534708 0.433898 -0.151429
C12   C     C_R   0.457973 0.394537 0.776095 -0.277108
C13   C     C_R   0.926218 0.542811 0.434720 0.178829
C14   C     C_R   0.934617 0.485913 0.569434 0.105917
C15   C     C_3   0.937455 0.388415 0.636325 -0.068153
C16   C     C_R   0.499244 0.739861 0.497768 0.876639
C17   C     C_3   0.092285 0.397292 0.636889 -0.537480
C18   C     C_R   0.485069 0.501101 0.347408 0.856887
C19   C     C_R   0.516965 0.496841 0.737434 -0.052525
C20   C     C_R   0.566148 0.598764 0.779893 0.129360
C21   C     C_R   0.555667 0.594560 0.862195 -0.197634
C22   C     C_R   0.494643 0.491580 0.900998 0.284628
C23   C     C_R   0.587478 0.449798 0.141777 0.193731
C24   C     C_R   0.447106 0.392093 0.857618 -0.192682
C25   C     C_3   0.750948 0.113133 0.368215 -0.351942
C26   C     C_3   0.631308 0.079155 0.313161 -0.854663
C27   C     C_3   0.859447 0.617698 0.366799 -0.368473
C28   C     C_3   0.856410 0.545017 0.290622 -0.850162
C29   C     C_3   0.884385 0.259254 0.613699 -0.326385
C30   C     C_3   0.780157 0.210227 0.671419 -0.863875
C31   C     C_3   0.684447 0.364083 0.101199 -0.405998
C32   C     C_3   0.809488 0.433130 0.073407 -0.855639
C33   C     C_3   0.621032 0.715638 0.739497 -0.412042
C34   C     C_R   0.565644 0.428645 0.222258 -0.300960
C35   C     C_3   0.774913 0.713675 0.741513 -0.842224
C36   C     C_3   0.259919 0.127866 0.412291 -0.368300
C37   C     C_3   0.137171 0.133853 0.464222 -0.864294
C38   C     C_R   0.519112 0.551900 0.101615 0.303863
C39   C     C_R   0.482839 0.509512 0.262248 -0.027962
C40   C     C_R   0.415629 0.609589 0.222336 -0.242587
C41   C     C_R   0.434565 0.631080 0.141927 -0.230074
C42   C     C_R   0.618873 0.063959 0.498219 0.082246
H1    H     H_    0.617060 0.351980 0.254895 0.145211
H2    H     H_    0.836024 0.095228 0.490606 0.122333
H3    H     H_    0.604751 0.979073 0.319573 0.262143
H4    H     H_    0.541609 0.137662 0.324374 0.241715
H5    H     H_    0.658027 0.098849 0.250481 0.228738
H6    H     H_    0.756479 0.216700 0.369584 0.202115
H7    H     H_    0.845410 0.080218 0.341618 0.200037
H8    H     H_    0.817686 0.449374 0.301866 0.270483
H9    H     H_    0.790950 0.595238 0.244853 0.259784
H10   H     H_    0.959587 0.537092 0.267476 0.234975
H11   H     H_    0.758977 0.652204 0.381508 0.249827
H12   H     H_    0.288885 0.886252 0.451645 0.171192
H13   H     H_    0.917734 0.704651 0.356082 0.162972
H14   H     H_    0.824840 0.203022 0.732833 0.253962
H15   H     H_    0.690443 0.272977 0.670146 0.272287
H16   H     H_    0.747121 0.115851 0.654245 0.237551
H17   H     H_    0.838241 0.266323 0.553306 0.234610
H18   H     H_    0.967206 0.188660 0.613218 0.192824
H19   H     H_    0.134555 0.440719 0.691161 0.195751
H20   H     H_    0.782386 0.506289 0.027083 0.269320
H21   H     H_    0.862196 0.476970 0.124267 0.258052
H22   H     H_    0.880019 0.365698 0.047579 0.246776
H23   H     H_    0.827886 0.879808 0.506283 0.175652
H24   H     H_    0.719340 0.286123 0.142618 0.194168
H25   H     H_    0.633136 0.319511 0.050173 0.217335
H26   H     H_    0.418970 0.317129 0.742798 0.150808
H27   H     H_    0.592845 0.672760 0.895304 0.151610
H28   H     H_    0.382840 0.708809 0.110619 0.150239
H29   H     H_    0.815462 0.706058 0.803838 0.251623
H30   H     H_    0.812601 0.633668 0.708299 0.262730
H31   H     H_    0.812039 0.801487 0.713096 0.243211
H32   H     H_    0.583128 0.727116 0.676839 0.203700
H33   H     H_    0.585293 0.799637 0.769917 0.197183
H34   H     H_    0.121966 0.563853 0.381196 0.162776
H35   H     H_    0.164330 0.177936 0.520832 0.268720
H36   H     H_    0.055660 0.190182 0.432805 0.237900
H37   H     H_    0.098819 0.038447 0.477455 0.239696
H38   H     H_    0.283628 0.222631 0.388154 0.219441
H39   H     H_    0.233286 0.073169 0.359222 0.183439
H40   H     H_    0.894915 0.425170 0.691212 0.179151
H41   H     H_    0.148473 0.312639 0.620394 0.200284
H42   H     H_    0.400936 0.312675 0.887297 0.143772
H43   H     H_    0.353292 0.673487 0.253980 0.145906
H44   H     H_    0.735982 0.868458 0.408498 0.197442
N1    N     N_2   0.480949 0.482608 0.983787 -0.198548
N2    N     N_2   0.528521 0.572302 0.019669 -0.211307
N3    N     N_R   0.142860 0.499130 0.500540 -0.113676
N4    N     N_R   0.857210 0.499170 0.500530 -0.138167
O1    O     O_R   0.614690 0.316790 0.499990 -0.624342
O2    O     O_R   0.385350 0.316760 0.500000 -0.608086
O3    O     O_R   0.627460 0.498860 0.616130 -0.607499
O4    O     O_R   0.398120 0.498820 0.616130 -0.608214
O5    O     O_R   0.614650 0.683240 0.500000 -0.629272
O6    O     O_R   0.385310 0.683210 0.500010 -0.620997
O7    O     O_R   0.601880 0.501180 0.383870 -0.622171
O8    O     O_R   0.372540 0.501140 0.383870 -0.635387
Zn1   Zn    Zn3+2 0.653130 0.500020 0.499990 0.922453
Zn2   Zn    Zn3+2 0.346870 0.499980 0.500010 0.933275

loop_
_geom_bond_atom_site_label_1
_geom_bond_atom_site_label_2
_ccdc_geom_bond_type
C31   H24   S    
N1    N2    D    
C13   N4    A    
C11   C13   A    
C19   C20   A    
C9    C25   S    
C7    C8    S    
C31   H25   S    
C37   H37   S    
C9    C42   S    
C36   C37   S    
C11   H34   S    
C5    C6    A    
C28   H9    S    
C27   H13   S    
C10   C17   S    
C30   H15   S    
O6    Zn2   S    
C1    C2    S    
C7    C42   A    
C14   N4    A    
C26   H3    S    
C17   H19   S    
C4    C19   S    
C28   H8    S    
C33   H33   S    
C29   H17   S    
C10   N3    A    
C8    C9    S    
C9    H2    S    
C18   O7    A    
O3    Zn1   S    
C8    H44   S    
C35   H29   S    
C8    H23   S    
C1    O1    A    
C21   C22   A    
O7    Zn1   S    
C15   C29   S    
C15   H40   S    
C16   O6    A    
N3    Zn2   S    
C34   C39   A    
C5    H12   S    
C32   H22   S    
C38   C41   A    
C10   C14   A    
C39   C40   A    
C25   C26   S    
C30   H14   S    
C21   H27   S    
C17   H41   S    
C23   C31   S    
C40   H43   S    
C18   C39   S    
C29   C30   S    
C12   H26   S    
C11   N3    A    
C31   C32   S    
C29   H18   S    
O4    Zn2   S    
C36   H39   S    
C23   C34   A    
C22   N1    S    
C25   H6    S    
C26   H5    S    
C4    O4    A    
C20   C33   S    
C40   C41   A    
C35   H30   S    
C1    O2    A    
O8    Zn2   S    
C36   H38   S    
C22   C24   A    
N4    Zn1   S    
O2    Zn2   S    
C15   C17   S    
C35   H31   S    
C16   O5    A    
C34   H1    S    
C32   H21   S    
C3    C5    A    
C27   H11   S    
C6    C7    A    
C23   C38   A    
C37   H36   S    
C12   C24   A    
C2    C3    A    
C24   H42   S    
C32   H20   S    
C28   H10   S    
C37   H35   S    
C3    C36   S    
C2    C42   A    
C30   H16   S    
C12   C19   A    
C33   C35   S    
O5    Zn1   S    
C25   H7    S    
C26   H4    S    
C6    C16   S    
C4    O3    A    
C33   H32   S    
C20   C21   A    
C38   N2    S    
C27   C28   S    
C14   C15   S    
C13   C27   S    
C18   O8    A    
O1    Zn1   S    
C41   H28   S    
