data_mof_unit_19426.cif
_audit_creation_date              2012-12-11T15:29:43-0500
_audit_creation_method            fapswitch 2.2
_symmetry_space_group_name_H-M    P1
_symmetry_Int_Tables_number       1
_space_group_crystal_system       triclinic
_cell_length_a                    21.410628
_cell_length_b                    7.247343
_cell_length_c                    14.772309
_cell_angle_alpha                 90.496886
_cell_angle_beta                  74.402283
_cell_angle_gamma                 89.874438
_cell_volume                      2207.69925405

loop_
_atom_site_label
_atom_site_type_symbol
_atom_type_description
_atom_site_fract_x
_atom_site_fract_y
_atom_site_fract_z
_atom_type_partial_charge
O1    O     O_R   0.464160 0.506670 0.130070 -0.534668
O2    O     O_R   0.535840 0.006670 0.869930 -0.534969
O3    O     O_R   0.589710 0.179080 0.006710 -0.545634
O4    O     O_R   0.410290 0.679080 0.993290 -0.544628
C1    C     C_R   0.616330 0.343999 0.002046 0.648796
C2    C     C_R   0.383680 0.844612 0.998027 0.649652
O5    O     O_R   0.467940 0.177220 0.138010 -0.538510
O6    O     O_R   0.532060 0.677220 0.861990 -0.538342
O7    O     O_R   0.413200 0.002810 0.002170 -0.540979
O8    O     O_R   0.586800 0.502810 0.997830 -0.539733
C3    C     C_R   0.456255 0.346511 0.174326 0.684837
C4    C     C_R   0.543781 0.844521 0.825582 0.684983
O9    O     O_3   0.482180 0.337850 0.955280 -0.376358
O10   O     O_3   0.517820 0.837850 0.044720 -0.376538
V1    V     V_3+5 0.503310 0.064600 0.008300 1.390940
V2    V     V_3+5 0.496690 0.564600 0.991700 1.393488
C5    C     C_R   0.571511 0.847687 0.723885 -0.026533
C6    C     C_R   0.428360 0.359358 0.275812 -0.026493
C7    C     C_R   0.928458 0.870062 0.276273 -0.027215
C8    C     C_R   0.071661 0.359027 0.724012 -0.027263
C9    C     C_R   0.560310 0.796877 0.567487 -0.163554
C10   C     C_R   0.439002 0.436768 0.429999 -0.162841
C11   C     C_R   0.532590 0.810303 0.663955 -0.173445
C12   C     C_R   0.466924 0.411118 0.334181 -0.174061
C13   C     C_R   0.638351 0.870985 0.687520 -0.215783
C14   C     C_R   0.361720 0.333750 0.312984 -0.215558
C15   C     C_R   0.668195 0.853515 0.589840 0.083321
C16   C     C_R   0.331696 0.362451 0.409907 0.083034
C17   C     C_R   0.627547 0.816340 0.530128 0.142489
C18   C     C_R   0.371947 0.414393 0.468108 0.141843
C19   C     C_R   0.736757 0.868461 0.549826 0.060028
C20   C     C_R   0.263328 0.343958 0.450539 0.059716
C21   C     C_R   0.763332 0.846249 0.450446 0.059708
C22   C     C_R   0.236537 0.377565 0.549050 0.059367
C23   C     C_R   0.720487 0.809878 0.394465 -0.194028
C24   C     C_R   0.278967 0.428711 0.603553 -0.193700
C25   C     C_R   0.654154 0.795864 0.433684 -0.205968
C26   C     C_R   0.345122 0.446129 0.563731 -0.205433
C27   C     C_R   0.779633 0.903994 0.605855 -0.193296
C28   C     C_R   0.220855 0.293693 0.395956 -0.193087
C29   C     C_R   0.845953 0.918280 0.566628 -0.206070
C30   C     C_R   0.154715 0.276009 0.435795 -0.205650
C31   C     C_R   0.872518 0.898954 0.470125 0.142666
C32   C     C_R   0.127946 0.306550 0.531522 0.142051
C33   C     C_R   0.831866 0.861981 0.410393 0.083308
C34   C     C_R   0.168207 0.358258 0.589751 0.083032
C35   C     C_R   0.939715 0.919343 0.432740 -0.163404
C36   C     C_R   0.060940 0.283247 0.569692 -0.162689
C37   C     C_R   0.967386 0.907104 0.336229 -0.174022
C38   C     C_R   0.033082 0.307666 0.665602 -0.174677
C39   C     C_R   0.861662 0.845815 0.312649 -0.216086
C40   C     C_R   0.138248 0.385597 0.686789 -0.215730
H1    H     H_    0.834534 0.820401 0.262127 0.089439
H2    H     H_    0.165079 0.422810 0.736248 0.089131
H3    H     H_    0.019056 0.928162 0.308155 0.099204
H4    H     H_    0.981557 0.285186 0.694441 0.099598
H5    H     H_    0.876799 0.946548 0.612506 0.119453
H6    H     H_    0.124181 0.236449 0.391053 0.119163
H7    H     H_    0.529261 0.767827 0.522050 0.111715
H8    H     H_    0.469750 0.476932 0.474272 0.112051
H9    H     H_    0.480891 0.789770 0.692028 0.099253
H10   H     H_    0.518481 0.433092 0.305367 0.099614
H11   H     H_    0.665458 0.896858 0.738018 0.089145
H12   H     H_    0.334918 0.296046 0.263565 0.088813
H13   H     H_    0.736424 0.790377 0.319482 0.118503
H14   H     H_    0.262834 0.457440 0.677784 0.118902
H15   H     H_    0.763741 0.922411 0.680901 0.117327
H16   H     H_    0.236931 0.266097 0.321620 0.117578
H17   H     H_    0.970766 0.948205 0.478201 0.111937
H18   H     H_    0.030186 0.243313 0.525388 0.112278
C41   C     C_3   0.228863 0.770627 0.909441 -0.318499
C42   C     C_3   0.787572 0.159861 0.005586 -0.311609
H19   H     H_    0.211501 0.627653 0.903214 0.135344
H20   H     H_    0.816377 0.077207 0.944668 0.138454
H21   H     H_    0.223228 0.848154 0.847397 0.128869
H22   H     H_    0.793817 0.094567 0.070563 0.136576
C43   C     C_3   0.301716 0.764428 0.908106 -0.328597
C44   C     C_3   0.715282 0.153211 0.006839 -0.313974
H23   H     H_    0.318724 0.618471 0.901231 0.139754
H24   H     H_    0.709988 0.067354 0.946487 0.134236
H25   H     H_    0.179134 0.609267 0.083510 0.143573
H26   H     H_    0.831175 0.370161 0.845497 0.121540
H27   H     H_    0.286257 0.599951 0.081896 0.138682
H28   H     H_    0.723524 0.360428 0.847384 0.127938
C45   C     C_3   0.197196 0.752634 0.085829 -0.326397
C46   C     C_3   0.801800 0.446879 0.908181 -0.325994
C47   C     C_3   0.214764 0.061195 0.006994 -0.310131
C48   C     C_3   0.770065 0.471177 0.084658 -0.318335
C49   C     C_3   0.187400 0.863516 0.001214 0.121164
C50   C     C_3   0.812658 0.361993 0.998991 0.121868
H29   H     H_    0.186769 0.132095 0.072577 0.136185
H30   H     H_    0.785969 0.617601 0.082069 0.136949
H31   H     H_    0.209361 0.144937 0.946687 0.137830
H32   H     H_    0.776282 0.412283 0.151029 0.128392
C51   C     C_3   0.312406 0.852640 0.998994 0.120645
C52   C     C_3   0.687654 0.350525 0.001197 0.119909
C53   C     C_3   0.270027 0.746380 0.084594 -0.315358
C54   C     C_3   0.728964 0.440267 0.909484 -0.315183
C55   C     C_3   0.287060 0.054824 0.005766 -0.315502
C56   C     C_3   0.697237 0.464541 0.085897 -0.328628
H33   H     H_    0.315757 0.135384 0.944943 0.139890
H34   H     H_    0.668628 0.402510 0.152840 0.122237
H35   H     H_    0.293198 0.122280 0.070822 0.132919
H36   H     H_    0.678861 0.607733 0.083673 0.141549
H37   H     H_    0.168446 0.817011 0.152791 0.121752
H38   H     H_    0.818478 0.592686 0.901418 0.141530
H39   H     H_    0.276111 0.807756 0.150997 0.128143
H40   H     H_    0.711287 0.582927 0.903345 0.137617
O11   O     O_R   0.913210 0.208550 0.002110 -0.539569
O12   O     O_R   0.086790 0.708550 0.997890 -0.538717
O13   O     O_R   0.032060 0.539960 0.861980 -0.538375
O14   O     O_R   0.967940 0.039960 0.138020 -0.538456
C57   C     C_R   0.043777 0.371596 0.825499 0.687695
C58   C     C_R   0.956180 0.873538 0.174587 0.687576
O15   O     O_R   0.910290 0.538020 0.993280 -0.544562
O16   O     O_R   0.089710 0.038020 0.006720 -0.545241
O17   O     O_R   0.964160 0.712340 0.130090 -0.535443
O18   O     O_R   0.035840 0.212340 0.869910 -0.535334
C59   C     C_R   0.883995 0.369892 0.997999 0.640945
C60   C     C_R   0.116023 0.870037 0.002103 0.641240
O19   O     O_3   0.017820 0.379210 0.044690 -0.375868
O20   O     O_3   0.982180 0.879210 0.955310 -0.376098
V3    V     V_3+5 0.996690 0.652500 0.991710 1.392702
V4    V     V_3+5 0.003310 0.152500 0.008290 1.393022
H41   H     H_    0.623326 0.767069 0.387841 0.119835
H42   H     H_    0.375631 0.486253 0.608418 0.119566
H43   H     H_    0.330915 0.839009 0.845462 0.122408
H44   H     H_    0.687395 0.084631 0.072373 0.137922

loop_
_geom_bond_atom_site_label_1
_geom_bond_atom_site_label_2
_ccdc_geom_bond_type
C55   H35   S    
C3    C6    S    
C47   H29   S    
C15   C17   A    
C21   C33   A    
O1    C3    A    
C42   H22   S    
C44   H44   S    
C30   H6    S    
C2    O7    A    
O14   C58   A    
C35   C37   A    
O5    C3    A    
C5    C11   A    
C6    C12   A    
C23   C25   A    
O14   V4    S    
C10   H8    S    
C8    C57   S    
C24   H14   S    
C33   C39   A    
C51   C55   S    
C34   C40   A    
C56   H36   S    
C54   H40   S    
C18   C26   A    
C13   H11   S    
C14   H12   S    
C35   H17   S    
O19   V4    S    
C8    C38   A    
C44   C52   S    
C48   H30   S    
C32   C34   A    
C16   C18   A    
C52   C54   S    
C4    C5    S    
C42   C44   S    
C19   C21   A    
C22   C34   A    
C10   C18   A    
C47   C55   S    
C43   H43   S    
O5    V1    S    
O2    C4    A    
O6    V2    S    
C29   C31   A    
C46   H38   S    
C30   C32   A    
C45   H37   S    
C26   H42   S    
C40   H2    S    
C25   H41   S    
C43   H23   S    
C48   H32   S    
O15   V3    S    
C15   C19   A    
C16   C20   A    
C42   H20   S    
C46   C50   S    
O12   C60   A    
C41   H19   S    
C45   C49   S    
C7    C58   S    
H26   C46   S    
C9    C17   A    
C43   C51   S    
C38   H4    S    
O16   C60   A    
C39   H1    S    
C20   C22   A    
O4    V2    S    
O12   V3    S    
C42   C50   S    
C7    C37   A    
C41   C49   S    
C49   C60   S    
O6    C4    A    
C6    C14   A    
C56   H34   S    
O13   C57   A    
O1    V2    S    
O18   V4    S    
O2    V1    S    
C31   C33   A    
C48   C56   S    
O4    C2    A    
C55   H33   S    
C48   C50   S    
O15   C59   A    
C9    C11   A    
H27   C53   S    
C10   C12   A    
C41   C43   S    
C1    C52   S    
O3    V1    S    
O11   C59   A    
O13   V3    S    
C12   H10   S    
O16   V4    S    
C27   H15   S    
C36   H18   S    
C28   C30   A    
O3    C1    A    
C51   C53   S    
O11   V4    S    
C9    H7    S    
C13   C15   A    
C52   C56   S    
C14   C16   A    
C5    C13   A    
C50   C59   S    
C24   C26   A    
O17   V3    S    
H28   C54   S    
C1    O8    A    
C8    C40   A    
C37   H3    S    
C41   H21   S    
C47   H31   S    
C36   C38   A    
C21   C23   A    
C22   C24   A    
C19   C27   A    
C44   H24   S    
C20   C28   A    
O7    V1    S    
C46   C54   S    
C58   O17   A    
C45   C53   S    
C29   H5    S    
C57   O18   A    
C53   H39   S    
C7    C39   A    
C11   H9    S    
C27   C29   A    
C2    C51   S    
C28   H16   S    
O9    V2    S    
C17   C25   A    
C47   C49   S    
C23   H13   S    
O10   V1    S    
O8    V2    S    
O20   V3    S    
C31   C35   A    
H25   C45   S    
C32   C36   A    
