data_mof_unit_43977.cif
_audit_creation_date              2012-12-10T18:33:33-0500
_audit_creation_method            fapswitch 2.2
_symmetry_space_group_name_H-M    P1
_symmetry_Int_Tables_number       1
_space_group_crystal_system       triclinic
_cell_length_a                    8.792864
_cell_length_b                    15.091879
_cell_length_c                    13.859119
_cell_angle_alpha                 89.72357
_cell_angle_beta                  97.755592
_cell_angle_gamma                 90.193183
_cell_volume                      1822.26575417

loop_
_atom_site_label
_atom_site_type_symbol
_atom_type_description
_atom_site_fract_x
_atom_site_fract_y
_atom_site_fract_z
_atom_type_partial_charge
C1    C     C_R   0.499030 0.329877 0.500158 0.776685
C2    C     C_R   0.499120 0.670148 0.499696 0.774617
C3    C     C_R   0.619989 0.539466 0.117916 -0.272915
C4    C     C_R   0.424961 0.432876 0.885933 -0.266681
C5    C     C_R   0.617109 0.539456 0.219142 0.117129
C6    C     C_R   0.425486 0.434516 0.784486 0.133086
C7    C     C_R   0.382878 0.460486 0.199601 0.090029
C8    C     C_R   0.574281 0.565485 0.796617 0.095038
C9    C     C_R   0.379972 0.460309 0.097866 -0.271325
C10   C     C_R   0.574613 0.567093 0.898113 -0.272585
C11   C     C_R   0.499934 0.499889 0.054648 0.126107
C12   C     C_R   0.499818 0.499950 0.945262 0.122803
C13   C     C_R   0.204332 0.498675 0.475482 0.806709
C14   C     C_R   0.795672 0.501281 0.524520 0.809353
C15   C     C_2   0.039583 0.491641 0.462272 0.183228
C16   C     C_2   0.960455 0.508215 0.537757 0.184397
C17   C     C_R   0.402129 0.096468 0.566833 0.024706
C18   C     C_R   0.405434 0.903460 0.415540 0.019044
C19   C     C_R   0.413933 0.189068 0.567665 -0.161626
C20   C     C_R   0.417291 0.810905 0.416740 -0.155861
C21   C     C_R   0.492823 0.233408 0.500418 -0.067508
C22   C     C_R   0.492964 0.766651 0.498442 -0.070752
C23   C     C_R   0.562789 0.185477 0.432542 -0.185930
C24   C     C_R   0.559559 0.814710 0.579322 -0.192890
C25   C     C_R   0.556121 0.093598 0.432753 -0.162424
C26   C     C_R   0.552769 0.906573 0.578070 -0.159670
C27   C     C_R   0.475568 0.048622 0.498795 -0.017378
C28   C     C_R   0.475485 0.951413 0.497217 -0.019073
Cu1   Cu    Cu3+1 0.500000 0.499990 0.596430 0.963785
Cu2   Cu    Cu3+1 0.500000 0.500010 0.403570 0.956700
H1    H     H_    0.358005 0.227117 0.618865 0.175533
H2    H     H_    0.363858 0.772822 0.355125 0.188778
H3    H     H_    0.624715 0.219067 0.380509 0.147665
H4    H     H_    0.618936 0.781252 0.642755 0.140049
H5    H     H_    0.613690 0.057164 0.381103 0.149142
H6    H     H_    0.607770 0.943098 0.640417 0.151744
H7    H     H_    0.717201 0.569506 0.090107 0.140142
H8    H     H_    0.367768 0.378422 0.917246 0.140202
H9    H     H_    0.709592 0.571034 0.266048 0.159158
H10   H     H_    0.366439 0.382794 0.740319 0.130487
H11   H     H_    0.290322 0.429059 0.231105 0.133493
H12   H     H_    0.633405 0.617237 0.762112 0.116192
H13   H     H_    0.282753 0.430220 0.053781 0.137406
H14   H     H_    0.631716 0.621549 0.938693 0.136183
N1    N     N_R   0.500000 0.500020 0.258690 -0.182134
N2    N     N_R   0.500000 0.499980 0.741310 -0.176183
O1    O     O_R   0.500010 0.371450 0.581430 -0.593735
O2    O     O_R   0.499990 0.628550 0.418570 -0.585145
O3    O     O_R   0.500010 0.371460 0.418560 -0.589049
O4    O     O_R   0.499990 0.628540 0.581440 -0.597673
O5    O     O_R   0.274840 0.499990 0.562640 -0.550032
O6    O     O_R   0.725160 0.500010 0.437360 -0.563385
O7    O     O_R   0.274840 0.500000 0.399770 -0.576227
O8    O     O_R   0.725160 0.500000 0.600230 -0.562858
O9    O     O_3   0.966667 0.471931 0.369648 -0.578628
C29   C     C_3   0.971371 0.379426 0.356200 -0.297288
H15   H     H_    0.913993 0.343326 0.411648 0.147026
H16   H     H_    0.091258 0.355587 0.357532 0.150493
H17   H     H_    0.907985 0.363481 0.283616 0.192117
O10   O     O_3   0.033476 0.527896 0.630382 -0.563131
C30   C     C_3   0.027490 0.620316 0.644225 -0.269310
H18   H     H_    0.907381 0.643436 0.643892 0.142474
H19   H     H_    0.083136 0.657005 0.588402 0.140905
H20   H     H_    0.091836 0.636348 0.716504 0.195352
C31   C     C_2   0.309684 0.051187 0.634745 0.331966
H21   H     H_    0.288020 0.980495 0.629445 0.086464
O11   O     O_2   0.255261 0.092549 0.697384 -0.539642
C32   C     C_2   0.316424 0.948585 0.330569 0.334070
H22   H     H_    0.294333 0.019170 0.331979 0.085454
O12   O     O_2   0.265375 0.907211 0.257756 -0.534874

loop_
_geom_bond_atom_site_label_1
_geom_bond_atom_site_label_2
_ccdc_geom_bond_type
C2    C22   S    
C30   H20   S    
C11   C12   S    
C14   O6    A    
C1    C21   S    
Cu1   Cu2   S    
C8    H12   S    
C4    C12   A    
C2    O4    A    
Cu2   N1    S    
C26   C28   A    
C29   H17   S    
Cu1   N2    S    
O9    C29   S    
C19   H1    S    
C32   O12   D    
C21   C23   A    
C18   C28   A    
O10   C30   S    
C5    N1    A    
C13   O5    A    
C23   C25   A    
C9    C11   A    
C10   C12   A    
Cu1   O1    S    
C16   O10   S    
C10   H14   S    
C7    N1    A    
C22   C24   A    
C4    C6    A    
C17   C31   S    
C14   O8    A    
Cu2   O3    S    
C25   H5    S    
C13   O7    A    
Cu1   O4    S    
C13   C15   S    
Cu1   O5    S    
C30   H18   S    
Cu2   O7    S    
C14   C16   S    
C9    H13   S    
C25   C27   A    
Cu1   O8    S    
C20   C22   A    
C18   C32   S    
C15   C16   D    
C17   C27   A    
C17   C19   A    
C3    C5    A    
C26   H6    S    
C6    H10   S    
C3    C11   A    
C29   H15   S    
C3    H7    S    
C18   C20   A    
C8    C10   A    
C31   H21   S    
C20   H2    S    
Cu2   O2    S    
C27   C28   S    
C7    C9    A    
C5    H9    S    
Cu2   O6    S    
C1    O1    A    
C4    H8    S    
C6    N2    A    
C8    N2    A    
C2    O2    A    
C19   C21   A    
C1    O3    A    
C30   H19   S    
C24   H4    S    
C23   H3    S    
C24   C26   A    
C7    H11   S    
C29   H16   S    
C32   H22   S    
C31   O11   D    
C15   O9    S    
