data_mof_unit_35446.cif
_audit_creation_date              2012-12-10T20:35:52-0500
_audit_creation_method            fapswitch 2.2
_symmetry_space_group_name_H-M    P1
_symmetry_Int_Tables_number       1
_space_group_crystal_system       triclinic
_cell_length_a                    15.712654
_cell_length_b                    10.595616
_cell_length_c                    9.902593
_cell_angle_alpha                 90.747053
_cell_angle_beta                  89.60318
_cell_angle_gamma                 90.07863
_cell_volume                      1648.45462634

loop_
_atom_site_label
_atom_site_type_symbol
_atom_type_description
_atom_site_fract_x
_atom_site_fract_y
_atom_site_fract_z
_atom_type_partial_charge
C1    C     C_R   0.500025 0.260618 0.499414 0.881397
C2    C     C_R   0.498958 0.128863 0.497121 -0.112272
C3    C     C_R   0.428158 0.066186 0.444528 -0.275901
C4    C     C_R   0.338420 0.499477 0.500465 0.896803
C5    C     C_R   0.425729 0.935233 0.445079 0.205304
C6    C     C_R   0.495644 0.871220 0.500297 -0.107769
C7    C     C_R   0.568595 0.934998 0.540232 -0.017115
C8    C     C_3   0.615102 0.928947 0.671327 -0.022233
C9    C     C_3   0.617204 0.072710 0.669613 -0.484436
C10   C     C_R   0.437681 0.438868 0.069310 0.126920
C11   C     C_R   0.558105 0.568290 0.072263 -0.122339
C12   C     C_3   0.948751 0.487652 0.649941 -0.424739
C13   C     C_R   0.558892 0.566807 0.928377 -0.119559
C14   C     C_R   0.434097 0.446814 0.928506 0.078279
C15   C     C_3   0.398036 0.317313 0.909951 -0.083019
C16   C     C_R   0.498113 0.739274 0.500646 0.890138
C17   C     C_3   0.410293 0.301146 0.065015 0.210999
C18   C     C_R   0.661607 0.499819 0.499575 0.898322
C19   C     C_3   0.046875 0.474124 0.651356 0.043459
C20   C     C_3   0.052214 0.372607 0.419945 -0.544142
C21   C     C_3   0.953054 0.362966 0.425200 0.025851
C22   C     C_1   0.750404 0.494416 0.499070 -0.211113
C23   C     C_3   0.917085 0.482755 0.502099 0.315108
C24   C     C_3   0.082874 0.488497 0.503946 0.339254
C25   C     C_3   0.089414 0.552314 0.766528 -0.401397
C26   C     C_3   0.092922 0.695121 0.747498 -0.859374
C27   C     C_3   0.347389 0.866549 0.396121 -0.914728
C28   C     C_3   0.702230 0.864617 0.655035 -0.356446
C29   C     C_3   0.752242 0.870084 0.786437 -0.893399
C30   C     C_3   0.306526 0.322928 0.851054 -0.380286
C31   C     C_3   0.291954 0.218285 0.746223 -0.880047
C32   C     C_3   0.330172 0.281112 0.155077 -0.370803
C33   C     C_3   0.289701 0.150052 0.139111 -0.945546
C34   C     C_3   0.950174 0.602715 0.430563 -0.473258
C35   C     C_3   0.480696 0.200309 0.092600 -0.355152
C36   C     C_3   0.572334 0.235960 0.054819 -0.892904
C37   C     C_3   0.926694 0.232839 0.483979 -0.401026
C38   C     C_3   0.832246 0.200526 0.470329 -0.882363
C39   C     C_3   0.047888 0.607294 0.433611 -0.392771
C40   C     C_1   0.825658 0.488011 0.500081 -0.076453
C41   C     C_1   0.174345 0.492019 0.502679 -0.097290
C42   C     C_1   0.249629 0.495694 0.501498 -0.207748
C43   C     C_R   0.570345 0.063872 0.538841 0.074153
H1    H     H_    0.919011 0.411325 0.710308 0.146669
H2    H     H_    0.607678 0.618349 0.874596 0.145112
H3    H     H_    0.441545 0.257860 0.847118 0.194103
H4    H     H_    0.073556 0.381199 0.312931 0.171423
H5    H     H_    0.082991 0.285577 0.458388 0.166184
H6    H     H_    0.929883 0.365105 0.319143 0.146039
H7    H     H_    0.069228 0.695878 0.483027 0.184195
H8    H     H_    0.072618 0.611164 0.328046 0.164762
H9    H     H_    0.924269 0.689317 0.480853 0.179953
H10   H     H_    0.109766 0.741366 0.844991 0.241321
H11   H     H_    0.143506 0.719721 0.673649 0.253459
H12   H     H_    0.928386 0.577956 0.698601 0.182668
H13   H     H_    0.030690 0.733093 0.715128 0.251968
H14   H     H_    0.054547 0.533285 0.862266 0.196360
H15   H     H_    0.155395 0.517886 0.781337 0.199723
H16   H     H_    0.321770 0.805939 0.477585 0.228759
H17   H     H_    0.296435 0.933134 0.366773 0.233205
H18   H     H_    0.363527 0.806874 0.306661 0.257212
H19   H     H_    0.765056 0.969615 0.816500 0.265379
H20   H     H_    0.716027 0.822994 0.868359 0.250788
H21   H     H_    0.813995 0.820640 0.772134 0.243632
H22   H     H_    0.692173 0.763981 0.626371 0.205060
H23   H     H_    0.928345 0.603271 0.323792 0.170354
H24   H     H_    0.740220 0.909355 0.573403 0.206494
H25   H     H_    0.335430 0.230613 0.658619 0.268126
H26   H     H_    0.303226 0.124284 0.790954 0.258573
H27   H     H_    0.225390 0.222377 0.709489 0.237569
H28   H     H_    0.255520 0.317196 0.927671 0.208314
H29   H     H_    0.295611 0.414468 0.801366 0.228670
H30   H     H_    0.271648 0.129509 0.033323 0.279224
H31   H     H_    0.334179 0.075559 0.172035 0.263772
H32   H     H_    0.231581 0.145001 0.203244 0.249512
H33   H     H_    0.349084 0.291971 0.262149 0.227155
H34   H     H_    0.373930 0.119322 0.409772 0.148835
H35   H     H_    0.281775 0.355589 0.138807 0.184782
H36   H     H_    0.576608 0.273698 0.951128 0.251314
H37   H     H_    0.598270 0.305786 0.128043 0.284819
H38   H     H_    0.613027 0.150513 0.059062 0.243390
H39   H     H_    0.479853 0.172443 0.199600 0.242667
H40   H     H_    0.464228 0.113031 0.034836 0.197250
H41   H     H_    0.794834 0.246835 0.552231 0.259938
H42   H     H_    0.807701 0.228679 0.370240 0.260876
H43   H     H_    0.823316 0.097121 0.480651 0.240562
H44   H     H_    0.962209 0.158128 0.427331 0.205516
H45   H     H_    0.575132 0.889921 0.754211 0.172458
H46   H     H_    0.945638 0.225286 0.591326 0.205602
H47   H     H_    0.578419 0.116685 0.751874 0.192599
H48   H     H_    0.681616 0.114340 0.656646 0.199775
H49   H     H_    0.606031 0.621485 0.126508 0.144381
H50   H     H_    0.059634 0.374584 0.680327 0.100940
N1    N     N_R   0.499430 0.499140 0.142800 -0.104345
N2    N     N_R   0.499430 0.499180 0.857150 -0.106986
O1    O     O_R   0.500010 0.316790 0.614690 -0.625627
O2    O     O_R   0.500000 0.316760 0.385350 -0.629130
O3    O     O_R   0.377150 0.500020 0.614720 -0.612863
O4    O     O_R   0.377140 0.499990 0.385380 -0.628907
O5    O     O_R   0.500000 0.683240 0.614650 -0.625969
O6    O     O_R   0.499990 0.683210 0.385310 -0.612657
O7    O     O_R   0.622860 0.500010 0.614620 -0.617534
O8    O     O_R   0.622850 0.499980 0.385280 -0.616132
Zn1   Zn    Zn3+2 0.500010 0.500020 0.653130 0.930080
Zn2   Zn    Zn3+2 0.499990 0.499980 0.346870 0.928261

loop_
_geom_bond_atom_site_label_1
_geom_bond_atom_site_label_2
_ccdc_geom_bond_type
C39   H8    S    
C29   H20   S    
N1    Zn2   S    
C4    O3    A    
C41   C42   T    
C35   C36   S    
C34   H23   S    
C21   H6    S    
C30   H28   S    
C7    C8    S    
C12   C23   S    
C13   N2    A    
C28   C29   S    
C27   H17   S    
C30   C31   S    
C10   N1    A    
C10   C17   S    
C23   C40   S    
O5    Zn1   S    
C24   C39   S    
C1    C2    S    
C18   O7    A    
C27   H18   S    
C5    C27   S    
C11   H49   S    
C33   H32   S    
C31   H27   S    
C20   C24   S    
C8    C9    S    
C7    C43   A    
C36   H38   S    
C19   H50   S    
O2    Zn2   S    
C29   H21   S    
C24   C41   S    
C9    H48   S    
C25   H14   S    
C26   H11   S    
C35   H39   S    
O6    Zn2   S    
C31   H25   S    
O4    Zn2   S    
C9    C43   S    
C38   H42   S    
C34   C39   S    
C12   H12   S    
C28   H24   S    
C36   H37   S    
C1    O2    A    
C35   H40   S    
C16   O5    A    
C25   C26   S    
C28   H22   S    
C8    H45   S    
C37   C38   S    
C16   O6    A    
C2    C43   A    
C23   C34   S    
C22   C40   T    
O8    Zn2   S    
O7    Zn1   S    
C20   H5    S    
C11   N1    A    
C33   H30   S    
C32   H35   S    
C38   H43   S    
C21   C23   S    
C10   C14   A    
C8    C28   S    
C25   H15   S    
C3    H34   S    
C26   H10   S    
C14   N2    A    
N2    Zn1   S    
C15   C30   S    
C15   C17   S    
C29   H19   S    
C38   H41   S    
C18   C22   S    
C37   H44   S    
C3    C5    A    
C36   H36   S    
C26   H13   S    
C9    H47   S    
C32   H33   S    
C30   H29   S    
C6    C7    A    
C34   H9    S    
C37   H46   S    
C32   C33   S    
O1    Zn1   S    
C19   C24   S    
C12   H1    S    
C27   H16   S    
C13   H2    S    
C11   C13   A    
C5    C6    A    
C4    C42   S    
C1    O1    A    
O3    Zn1   S    
C12   C19   S    
C2    C3    A    
C18   O8    A    
C19   C25   S    
C20   H4    S    
C6    C16   S    
C33   H31   S    
C31   H26   S    
C39   H7    S    
C21   C37   S    
C20   C21   S    
C4    O4    A    
C17   C32   S    
C14   C15   S    
C17   C35   S    
C15   H3    S    
