data_mof_unit_53083.cif
_audit_creation_date              2012-10-26T20:52:02-0400
_audit_creation_method            fapswitch 2.2
_symmetry_space_group_name_H-M    P1
_symmetry_Int_Tables_number       1
_space_group_crystal_system       triclinic
_cell_length_a                    8.720019
_cell_length_b                    16.002036
_cell_length_c                    14.781882
_cell_angle_alpha                 90.050545
_cell_angle_beta                  98.023447
_cell_angle_gamma                 89.993901
_cell_volume                      2042.44324395

loop_
_atom_site_label
_atom_site_type_symbol
_atom_type_description
_atom_site_fract_x
_atom_site_fract_y
_atom_site_fract_z
_atom_type_partial_charge
C1    C     C_R   0.499543 0.340999 0.499929 0.551556
C2    C     C_R   0.796850 0.500236 0.523226 0.547986
C3    C     C_2   0.037584 0.499042 0.463719 -0.158836
C4    C     C_2   0.962408 0.501217 0.536223 -0.158816
C5    C     C_R   0.493191 0.955774 0.583765 0.008071
C6    C     C_R   0.481226 0.044047 0.415837 0.008464
C7    C     C_R   0.490637 0.912587 0.499894 0.019632
C8    C     C_R   0.495674 0.087236 0.500205 0.021894
C9    C     C_R   0.486920 0.955641 0.416050 0.009105
C10   C     C_R   0.507059 0.044160 0.584603 0.010663
C11   C     C_1   0.494621 0.822622 0.499951 -0.078535
C12   C     C_R   0.499848 0.658978 0.500045 0.551809
C13   C     C_1   0.496472 0.177261 0.500017 -0.078817
C14   C     C_1   0.497803 0.252170 0.499848 -0.049321
C15   C     C_1   0.497520 0.747756 0.499983 -0.047482
C16   C     C_R   0.638315 0.513858 0.962417 0.131668
C17   C     C_R   0.361721 0.486980 0.037584 0.131725
C18   C     C_3   0.535177 0.094049 0.673823 -0.247817
C19   C     C_3   0.703088 0.125716 0.692919 -0.290980
C20   C     C_3   0.731153 0.174755 0.782322 -0.459842
C21   C     C_3   0.489783 0.906058 0.327918 -0.248978
C22   C     C_3   0.327484 0.874266 0.289682 -0.293262
C23   C     C_R   0.498934 0.498831 0.902802 -0.027104
C24   C     C_3   0.331771 0.820313 0.204881 -0.456410
C25   C     C_3   0.478527 0.906313 0.670572 -0.244831
C26   C     C_3   0.637672 0.883801 0.722779 -0.291267
C27   C     C_3   0.622073 0.827767 0.804507 -0.460484
C28   C     C_3   0.458190 0.093368 0.326571 -0.249707
C29   C     C_3   0.613486 0.123586 0.300890 -0.292231
C30   C     C_3   0.589736 0.175494 0.213486 -0.454946
C31   C     C_3   0.791336 0.530872 0.122159 -0.237434
C32   C     C_3   0.797252 0.618899 0.164298 -0.299835
C33   C     C_3   0.959530 0.639861 0.211865 -0.452446
C34   C     C_R   0.501153 0.501862 0.097206 -0.027397
C35   C     C_3   0.208380 0.470950 0.877780 -0.237940
C36   C     C_3   0.201625 0.383530 0.834167 -0.300389
C37   C     C_3   0.039334 0.363697 0.785929 -0.453169
C38   C     C_3   0.810469 0.609926 0.900108 -0.310804
C39   C     C_3   0.188386 0.390742 0.098541 -0.310112
C40   C     C_R   0.360008 0.485177 0.940748 0.007777
C41   C     C_R   0.639975 0.515785 0.059245 0.007548
C42   C     C_1   0.499329 0.499583 0.802464 0.104519
C43   C     C_1   0.500814 0.500738 0.197550 0.104608
C44   C     C_R   0.203147 0.499861 0.476764 0.547836
Cu1   Cu    Cu3+1 0.500040 0.500000 0.589220 0.955113
Cu2   Cu    Cu3+1 0.499960 0.500000 0.410780 0.955063
H1    H     H_    0.977323 0.496201 0.394262 0.121977
H2    H     H_    0.376922 0.856960 0.150515 0.143515
H3    H     H_    0.406584 0.764719 0.221916 0.160413
H4    H     H_    0.212908 0.798583 0.178643 0.137676
H5    H     H_    0.279050 0.836392 0.341941 0.171703
H6    H     H_    0.248744 0.928113 0.271592 0.149950
H7    H     H_    0.538138 0.943089 0.275255 0.131383
H8    H     H_    0.570877 0.852425 0.340753 0.146981
H9    H     H_    0.554714 0.860070 0.852621 0.145502
H10   H     H_    0.563064 0.768405 0.781372 0.158644
H11   H     H_    0.738857 0.812744 0.841044 0.133106
H12   H     H_    0.022712 0.504165 0.605645 0.121845
H13   H     H_    0.707358 0.850453 0.676556 0.169069
H14   H     H_    0.700710 0.941353 0.747728 0.157204
H15   H     H_    0.406325 0.939769 0.714947 0.119300
H16   H     H_    0.411782 0.847918 0.653688 0.150307
H17   H     H_    0.531124 0.137649 0.155736 0.142058
H18   H     H_    0.518597 0.231643 0.222839 0.158827
H19   H     H_    0.703790 0.196290 0.196487 0.139507
H20   H     H_    0.675004 0.162497 0.356824 0.172681
H21   H     H_    0.688191 0.069106 0.290680 0.150430
H22   H     H_    0.394924 0.056481 0.269743 0.131200
H23   H     H_    0.655675 0.230958 0.778254 0.160043
H24   H     H_    0.381230 0.147820 0.332835 0.146027
H25   H     H_    0.998877 0.592400 0.264768 0.163290
H26   H     H_    0.042476 0.642070 0.161317 0.146146
H27   H     H_    0.958420 0.702009 0.245251 0.140181
H28   H     H_    0.762848 0.666343 0.110516 0.153994
H29   H     H_    0.715188 0.623422 0.215131 0.173701
H30   H     H_    0.805442 0.483174 0.177337 0.129803
H31   H     H_    0.892482 0.522666 0.085056 0.195283
H32   H     H_    0.956828 0.358837 0.836535 0.145940
H33   H     H_    0.999142 0.413108 0.735515 0.163812
H34   H     H_    0.707120 0.135014 0.840301 0.143680
H35   H     H_    0.040950 0.303144 0.749362 0.140142
H36   H     H_    0.283772 0.379468 0.783371 0.175482
H37   H     H_    0.235203 0.335245 0.887141 0.153369
H38   H     H_    0.107364 0.478713 0.915079 0.195497
H39   H     H_    0.194520 0.519394 0.823382 0.129787
H40   H     H_    0.794628 0.482775 0.874397 0.249906
H41   H     H_    0.722047 0.631376 0.843450 0.149490
H42   H     H_    0.926214 0.613088 0.877103 0.134252
H43   H     H_    0.810792 0.652361 0.959444 0.149257
H44   H     H_    0.206108 0.517517 0.126314 0.250111
H45   H     H_    0.853879 0.195164 0.795306 0.137015
H46   H     H_    0.277500 0.367953 0.154154 0.147298
H47   H     H_    0.185788 0.349283 0.038234 0.149417
H48   H     H_    0.073285 0.387787 0.122406 0.133600
H49   H     H_    0.784259 0.071915 0.697247 0.151738
H50   H     H_    0.730253 0.166902 0.636933 0.171571
H51   H     H_    0.453428 0.147642 0.670200 0.144677
H52   H     H_    0.512272 0.057864 0.733990 0.133292
N1    N     N_1   0.500050 0.499980 0.276720 -0.206938
N2    N     N_1   0.499950 0.500020 0.723280 -0.207271
N3    N     N_2   0.779346 0.524891 0.925216 -0.531557
N4    N     N_2   0.220705 0.475991 0.074818 -0.531738
O1    O     O_R   0.500070 0.380310 0.575330 -0.492788
O2    O     O_R   0.499930 0.619690 0.424670 -0.493293
O3    O     O_R   0.500000 0.380310 0.424640 -0.490715
O4    O     O_R   0.500000 0.619690 0.575360 -0.491086
O5    O     O_R   0.274870 0.500000 0.557960 -0.493555
O6    O     O_R   0.725130 0.500000 0.442040 -0.493404
O7    O     O_R   0.274790 0.500000 0.407270 -0.497359
O8    O     O_R   0.725210 0.500000 0.592730 -0.497213

loop_
_geom_bond_atom_site_label_1
_geom_bond_atom_site_label_2
_ccdc_geom_bond_type
C21   H7    S    
Cu2   N1    S    
C8    C13   S    
C30   H18   S    
C35   C36   S    
C32   H29   S    
Cu1   Cu2   S    
C7    C11   S    
C37   H33   S    
C38   H43   S    
C28   C29   S    
C26   C27   S    
C23   C42   S    
C36   C37   S    
C28   H22   S    
C43   N1    T    
C12   O2    A    
C38   N3    S    
C32   H28   S    
C21   H8    S    
C27   H9    S    
C36   H37   S    
C23   C40   A    
Cu2   O3    S    
C18   C19   S    
C3    H1    S    
C39   H47   S    
Cu1   O1    S    
C33   H26   S    
C29   H21   S    
C11   C15   T    
C6    C28   S    
C19   C20   S    
C36   H36   S    
Cu2   O6    S    
C18   H51   S    
C26   H13   S    
C1    O1    A    
C44   O7    A    
C13   C14   T    
C37   H35   S    
C34   C41   A    
C6    C9    A    
C30   H17   S    
C31   H31   S    
C24   H4    S    
C20   H45   S    
C3    C44   S    
C20   H34   S    
C24   H2    S    
C27   H11   S    
C5    C7    A    
Cu1   O8    S    
C6    C8    A    
C25   C26   S    
Cu2   O2    S    
C38   H42   S    
C17   C40   A    
C2    C4    S    
C17   N4    S    
C39   H48   S    
C29   C30   S    
C42   N2    T    
C31   C32   S    
C12   C15   S    
C25   H15   S    
C5    C25   S    
C33   H27   S    
C16   C23   A    
C22   C24   S    
C20   H23   S    
C17   C34   A    
C3    C4    D    
C39   H46   S    
C19   H49   S    
Cu1   O4    S    
C39   N4    S    
C22   H6    S    
C44   O5    A    
C24   H3    S    
C7    C9    A    
C2    O8    A    
C31   C41   S    
C27   H10   S    
C28   H24   S    
C34   C43   S    
Cu1   N2    S    
C35   H38   S    
C37   H32   S    
C38   H41   S    
C32   C33   S    
C35   C40   S    
C5    C10   A    
H44   N4    S    
C12   O4    A    
C35   H39   S    
C9    C21   S    
C31   H30   S    
C10   C18   S    
C2    O6    A    
C25   H16   S    
C30   H19   S    
C33   H25   S    
C29   H20   S    
C16   N3    S    
C8    C10   A    
Cu2   O7    S    
C4    H12   S    
C1    C14   S    
C18   H52   S    
C21   C22   S    
H40   N3    S    
C26   H14   S    
C16   C41   A    
C19   H50   S    
Cu1   O5    S    
C1    O3    A    
C22   H5    S    
