data_mof_unit_67991.cif
_audit_creation_date              2013-03-05T16:49:26-0500
_audit_creation_method            fapswitch 2.2
_symmetry_space_group_name_H-M    P1
_symmetry_Int_Tables_number       1
_space_group_crystal_system       triclinic
_cell_length_a                    10.704807
_cell_length_b                    8.904698
_cell_length_c                    8.126901
_cell_angle_alpha                 89.922114
_cell_angle_beta                  90.635197
_cell_angle_gamma                 89.894601
_cell_volume                      774.631527267

loop_
_atom_site_label
_atom_site_type_symbol
_atom_site_description
_atom_site_fract_x
_atom_site_fract_y
_atom_site_fract_z
_atom_type_partial_charge
O1    O     O_R   0.499990 0.285340 0.636850 -0.624119
O2    O     O_R   0.500010 0.714660 0.363150 -0.624120
O3    O     O_R   0.500010 0.285350 0.363100 -0.610232
O4    O     O_R   0.499990 0.714650 0.636900 -0.610233
C1    C     C_R   0.499864 0.218125 0.500039 0.927859
C2    C     C_R   0.500135 0.781875 0.499961 0.927859
O5    O     O_R   0.316750 0.500000 0.636870 -0.602099
O6    O     O_R   0.683250 0.500000 0.363130 -0.602085
O7    O     O_R   0.316770 0.500020 0.363120 -0.614064
O8    O     O_R   0.683230 0.499980 0.636880 -0.614067
C3    C     C_R   0.259670 0.497400 0.498748 0.856080
C4    C     C_R   0.740331 0.502598 0.501252 0.856079
Zn1   Zn    Zn3+2 0.499990 0.499990 0.682780 1.024416
Zn2   Zn    Zn3+2 0.500010 0.500010 0.317220 1.024422
H1    H     H_    0.279087 0.041581 0.948929 0.166436
H2    H     H_    0.720955 0.958445 0.051075 0.166437
C5    C     C_R   0.221664 0.268682 0.998400 -0.191765
C6    C     C_R   0.778346 0.731333 0.001598 -0.191745
H3    H     H_    0.256101 0.309345 0.881941 0.183832
H4    H     H_    0.743905 0.690673 0.118056 0.183831
C7    C     C_R   0.163835 0.367539 0.109226 0.445528
C8    C     C_R   0.836162 0.632466 0.890770 0.445542
C9    C     C_R   0.120099 0.309609 0.261026 -0.003510
C10   C     C_R   0.879903 0.690391 0.738970 -0.003517
C11   C     C_R   0.133633 0.155983 0.296447 -0.247119
C12   C     C_R   0.866389 0.844021 0.703553 -0.247118
H5    H     H_    0.100390 0.110746 0.411780 0.152255
H6    H     H_    0.899639 0.889254 0.588222 0.152259
C13   C     C_R   0.190762 0.059980 0.184346 -0.077477
C14   C     C_R   0.809274 0.940033 0.815657 -0.077484
H7    H     H_    0.201121 0.941773 0.212914 0.180423
H8    H     H_    0.798933 0.058243 0.787092 0.180437
C15   C     C_R   0.234738 0.116253 0.035681 -0.156335
C16   C     C_R   0.765292 0.883765 0.964321 -0.156336
C17   C     C_R   0.931937 0.408800 0.391873 -0.151608
C18   C     C_R   0.068063 0.591193 0.608128 -0.151627
H9    H     H_    0.878317 0.336882 0.310064 0.194988
H10   H     H_    0.121684 0.663111 0.689938 0.194995
C19   C     C_R   0.872477 0.502139 0.504038 -0.074390
C20   C     C_R   0.127523 0.497856 0.495962 -0.074406
C21   C     C_R   0.939779 0.593189 0.614870 0.053655
C22   C     C_R   0.060221 0.406806 0.385130 0.053647
C23   C     C_1   0.499942 0.065270 0.500081 -0.196688
C24   C     C_1   0.500058 0.934729 0.499919 -0.196690
N1    N     N_1   0.500020 0.500030 0.073640 0.011792
N2    N     N_1   0.499980 0.499970 0.926360 0.011784
N3    N     N_R   0.154074 0.525000 0.067998 0.205442
O9    O     O_R   0.069050 0.610437 0.132591 -0.420756
O10   O     O_R   0.230691 0.584431 0.963478 -0.432549
N4    N     N_R   0.845909 0.475004 0.931998 0.205453
O11   O     O_R   0.930913 0.389549 0.867390 -0.420766
O12   O     O_R   0.769301 0.415591 0.036540 -0.432546

loop_
_geom_bond_atom_site_label_1
_geom_bond_atom_site_label_2
_geom_bond_distance
_ccdc_geom_bond_type
C17   C19   1.392792 A    
O7    Zn2   2.000761 S    
O5    C3    1.272329 A    
C11   H5    1.083664 S    
C6    C16   1.396778 A    
N4    O12   1.300017 A    
N3    O9    1.300727 A    
O6    C4    1.272330 A    
C23   C24   1.162428 T    
H2    C16   1.082638 S    
C4    C19   1.414537 S    
C18   H10   1.084287 S    
N4    O11   1.300723 A    
C1    C23   1.361123 S    
N3    O10   1.300036 A    
C2    C24   1.361123 S    
N1    N2    1.196925 T    
C14   H8    1.082828 S    
C10   C21   1.480491 S    
O7    C3    1.266499 A    
C18   C21   1.375036 A    
O2    C2    1.263418 A    
O3    Zn2   1.947011 S    
C5    C15   1.396772 A    
C13   H7    1.082821 S    
O1    C1    1.263418 A    
O8    C4    1.266499 A    
O4    C2    1.262972 A    
C5    H3    1.081700 S    
C10   C12   1.404476 A    
C12   C14   1.395466 A    
Zn2   N1    1.979551 S    
C6    H4    1.081697 S    
C9    C11   1.404470 A    
C7    C9    1.420982 A    
C11   C13   1.395469 A    
Zn1   N2    1.979552 S    
O2    Zn2   1.947998 S    
C8    C10   1.420981 A    
O1    Zn1   1.947997 S    
C14   C16   1.394363 A    
C3    C20   1.414536 S    
C13   C15   1.394365 A    
C8    N4    1.444508 S    
O5    Zn1   1.992650 S    
C19   C21   1.406216 A    
O4    Zn1   1.947011 S    
C17   C22   1.375040 A    
C18   C20   1.392788 A    
O6    Zn2   1.992650 S    
C17   H9    1.084286 S    
C6    C8    1.407788 A    
C12   H6    1.083664 S    
H1    C15   1.082639 S    
C5    C7    1.407788 A    
C9    C22   1.480496 S    
C7    N3    1.444503 S    
C20   C22   1.406216 A    
O3    C1    1.262972 A    
O8    Zn1   2.000761 S    
