data_mof_unit_29404.cif
_audit_creation_date              2012-12-10T16:59:21-0500
_audit_creation_method            fapswitch 2.2
_symmetry_space_group_name_H-M    P1
_symmetry_Int_Tables_number       1
_space_group_crystal_system       triclinic
_cell_length_a                    7.81404
_cell_length_b                    8.563143
_cell_length_c                    27.701038
_cell_angle_alpha                 93.399411
_cell_angle_beta                  85.427714
_cell_angle_gamma                 93.440759
_cell_volume                      1841.55316092

loop_
_atom_site_label
_atom_site_type_symbol
_atom_type_description
_atom_site_fract_x
_atom_site_fract_y
_atom_site_fract_z
_atom_type_partial_charge
C1    C     C_R   0.545318 0.794480 0.498847 0.974568
C2    C     C_R   0.581533 0.637627 0.130054 -0.053823
C3    C     C_R   0.509432 0.520277 0.646486 -0.076129
C4    C     C_R   0.497873 0.493718 0.353328 -0.075224
C5    C     C_R   0.610344 0.654573 0.027930 0.020562
C6    C     C_R   0.499620 0.384341 0.969792 0.017095
C7    C     C_R   0.513371 0.375266 0.020298 -0.001951
C8    C     C_R   0.600802 0.663841 0.976941 -0.014294
C9    C     C_R   0.553555 0.511760 0.049421 0.074668
C10   C     C_R   0.551654 0.528043 0.948112 0.068674
C11   C     C_R   0.679389 0.778603 0.058877 -0.025305
C12   C     C_R   0.454681 0.205519 0.501147 0.976472
C13   C     C_R   0.425967 0.259338 0.940042 0.001377
C14   C     C_R   0.654563 0.772057 0.109008 -0.134967
C15   C     C_R   0.435277 0.268055 0.890148 -0.127222
C16   C     C_R   0.502184 0.503890 0.593878 0.901480
C17   C     C_R   0.498525 0.497937 0.406109 0.900942
C18   C     C_R   0.625317 0.807229 0.954106 -0.301675
C19   C     C_R   0.497080 0.231536 0.042552 -0.338173
C20   C     C_2   0.569343 0.957785 0.498109 -0.365191
C21   C     C_2   0.430657 0.042210 0.501874 -0.365799
C22   C     C_R   0.584719 0.684588 0.824259 0.556841
C23   C     C_R   0.547647 0.537750 0.897208 -0.127242
C24   C     C_R   0.472340 0.359816 0.173406 0.568069
C25   C     C_R   0.500805 0.412303 0.818424 0.550668
C26   C     C_R   0.556891 0.631981 0.180404 0.551172
C27   C     C_R   0.365003 0.533310 0.727531 0.541458
C28   C     C_R   0.658675 0.505921 0.274747 0.544893
C29   C     C_R   0.357370 0.519463 0.677051 -0.344718
C30   C     C_R   0.654997 0.504675 0.325235 -0.345408
C31   C     C_R   0.669217 0.543574 0.666378 -0.201490
C32   C     C_R   0.343394 0.475373 0.330578 -0.207510
C33   C     C_R   0.677122 0.563786 0.716162 -0.203363
C34   C     C_R   0.542029 0.503305 0.100602 -0.127937
C35   C     C_R   0.346719 0.469728 0.280208 -0.201099
C36   C     C_R   0.526424 0.556361 0.746677 0.244395
C37   C     C_R   0.503343 0.487840 0.252404 0.235427
C38   C     C_1   0.025458 0.346131 0.455154 0.386134
C39   C     C_1   0.975009 0.655480 0.544324 0.383816
C40   C     C_3   0.846848 0.004846 0.886430 0.142087
C41   C     C_3   0.865843 0.170102 0.909507 -0.826911
C42   C     C_3   0.292271 0.996110 0.089965 0.125753
C43   C     C_3   0.192358 0.891095 0.125588 -0.773654
C44   C     C_3   0.917987 0.645109 0.261169 0.106965
C45   C     C_R   0.591617 0.680621 0.874883 -0.139844
C46   C     C_3   0.037333 0.695010 0.218316 -0.789924
C47   C     C_3   0.110728 0.397334 0.750717 0.108575
C48   C     C_3   0.991494 0.370385 0.795973 -0.793326
C49   C     C_1   0.795431 0.905446 0.042297 0.136156
C50   C     C_1   0.319390 0.128129 0.958014 0.135296
C51   C     C_R   0.490797 0.360737 0.122395 -0.118623
C52   C     C_R   0.633681 0.815374 0.903919 0.515714
C53   C     C_R   0.467682 0.223142 0.092738 0.520786
C54   C     C_R   0.497556 0.404432 0.868509 -0.054199
H1    H     H_    0.788321 0.546767 0.643563 0.173331
H2    H     H_    0.510014 0.122875 0.021554 0.154711
H3    H     H_    0.700668 0.008010 0.494458 0.183994
H4    H     H_    0.299332 0.991983 0.505523 0.183981
H5    H     H_    0.908362 0.004811 0.848868 0.188273
H6    H     H_    0.920586 0.926475 0.906971 0.132752
H7    H     H_    0.805239 0.253315 0.887833 0.265058
H8    H     H_    0.803716 0.174131 0.946982 0.263178
H9    H     H_    0.004164 0.206672 0.910850 0.216870
H10   H     H_    0.346268 0.921124 0.059023 0.156068
H11   H     H_    0.199025 0.074664 0.076807 0.157281
H12   H     H_    0.220777 0.463673 0.351561 0.170010
H13   H     H_    0.133327 0.964099 0.156227 0.272973
H14   H     H_    0.089149 0.821601 0.107278 0.202192
H15   H     H_    0.279138 0.809766 0.139698 0.267413
H16   H     H_    0.996679 0.612584 0.290298 0.132588
H17   H     H_    0.842932 0.748055 0.274549 0.174985
H18   H     H_    0.959418 0.734085 0.189960 0.266244
H19   H     H_    0.127028 0.792904 0.230051 0.237552
H20   H     H_    0.112876 0.595751 0.202786 0.247396
H21   H     H_    0.185522 0.290743 0.742591 0.184900
H22   H     H_    0.031111 0.412347 0.720037 0.132035
H23   H     H_    0.800617 0.581298 0.731272 0.170588
H24   H     H_    0.914745 0.474333 0.805556 0.244604
H25   H     H_    0.902487 0.266548 0.789484 0.237199
H26   H     H_    0.068415 0.349656 0.826781 0.255940
H27   H     H_    0.227899 0.452043 0.262704 0.176692
H28   H     H_    0.775041 0.513192 0.342437 0.163457
H29   H     H_    0.233668 0.507268 0.661804 0.162452
H30   H     H_    0.700870 0.870615 0.131812 0.213663
H31   H     H_    0.383923 0.169566 0.868193 0.212177
H32   H     H_    0.631087 0.918023 0.974175 0.169826
N1    N     N_R   0.538618 0.551652 0.797644 -0.343496
N2    N     N_R   0.505782 0.494108 0.200914 -0.348426
N3    N     N_2   0.950320 0.457960 0.486880 -0.155317
N4    N     N_2   0.049680 0.542040 0.513120 -0.154899
N5    N     N_1   0.086257 0.252099 0.428461 -0.251520
N6    N     N_1   0.914705 0.751004 0.570547 -0.251319
N7    N     N_1   0.888304 0.007761 0.029536 -0.210738
N8    N     N_1   0.233871 0.022198 0.971604 -0.222113
O1    O     O_R   0.389250 0.738570 0.503220 -0.622471
O2    O     O_2   0.424231 0.226322 0.195590 -0.478577
O3    O     O_2   0.584460 0.763201 0.208863 -0.553803
O4    O     O_2   0.466131 0.281453 0.790418 -0.563094
O5    O     O_3   0.669900 0.959493 0.884096 -0.574504
O6    O     O_3   0.427487 0.079896 0.113186 -0.567278
O7    O     O_3   0.812042 0.514737 0.245939 -0.613739
O8    O     O_3   0.217898 0.533701 0.759122 -0.616321
O9    O     O_R   0.610750 0.261430 0.496780 -0.621708
O10   O     O_R   0.678390 0.711630 0.494810 -0.631102
O11   O     O_R   0.321610 0.288370 0.505190 -0.630113
O12   O     O_R   0.355440 0.513440 0.575450 -0.629556
O13   O     O_R   0.644560 0.486560 0.424550 -0.631455
O14   O     O_R   0.644590 0.486500 0.567040 -0.633142
O15   O     O_R   0.355410 0.513500 0.432960 -0.632399
O16   O     O_2   0.621526 0.819228 0.801698 -0.495181
Zn1   Zn    Zn3+2 0.306940 0.517990 0.505620 0.953871
Zn2   Zn    Zn3+2 0.693060 0.482010 0.494380 0.952975

loop_
_geom_bond_atom_site_label_1
_geom_bond_atom_site_label_2
_ccdc_geom_bond_type
C19   H2    S    
C40   H6    S    
C27   C29   A    
O13   Zn2   S    
C37   N2    S    
C41   H7    S    
C33   H23   S    
C40   O5    S    
C35   H27   S    
C18   C52   A    
N3    Zn2   S    
C34   C51   A    
C18   H32   S    
C23   C45   A    
N4    Zn1   S    
C48   H25   S    
C35   C37   A    
C47   H22   S    
C29   H29   S    
O15   Zn1   S    
C12   O11   A    
C11   C14   A    
C25   N1    A    
C33   C36   A    
C44   H17   S    
C48   H24   S    
C3    C29   A    
C28   O7    S    
C43   H14   S    
C22   O16   S    
C42   H11   S    
C31   C33   A    
C44   H16   S    
C14   H30   S    
C39   N4    S    
C46   H18   S    
C16   O12   A    
C15   H31   S    
C2    C34   A    
C24   C51   A    
O11   Zn1   S    
C43   H15   S    
C40   H5    S    
C41   H8    S    
C44   C46   S    
O12   Zn1   S    
C36   N1    S    
C15   C54   A    
C25   C54   A    
C12   O9    A    
O10   Zn2   S    
C50   N8    T    
C45   C52   A    
C38   N5    T    
C8    C18   A    
O14   Zn2   S    
O9    Zn2   S    
C51   C53   A    
C30   H28   S    
C32   C35   A    
C5    C9    A    
C11   C49   S    
C42   O6    S    
C47   C48   S    
C38   N3    S    
C1    O1    A    
C2    C26   A    
C22   N1    A    
C3    C31   A    
C24   N2    A    
C1    O10   A    
C4    C32   A    
C4    C17   S    
C8    C10   A    
C40   C41   S    
C7    C19   A    
C13   C15   A    
C9    C34   A    
C10   C23   A    
C42   C43   S    
C41   H9    S    
C42   H10   S    
C39   N6    T    
C46   H20   S    
C23   C54   A    
C32   H12   S    
C53   O6    S    
C7    C9    A    
C1    C20   S    
C52   O5    S    
C17   O15   A    
C6    C10   A    
C5    C8    A    
C44   O7    S    
C5    C11   A    
C6    C7    A    
C27   C36   A    
C27   O8    S    
C17   O13   A    
C31   H1    S    
C48   H26   S    
C24   O2    S    
N3    N4    D    
C47   H21   S    
C21   H4    S    
O1    Zn1   S    
C6    C13   A    
C19   C53   A    
C28   C37   A    
C12   C21   S    
C28   C30   A    
C2    C14   A    
C16   O14   A    
C26   O3    S    
C13   C50   S    
C26   N2    A    
C25   O4    S    
C22   C45   A    
C20   C21   D    
C43   H13   S    
C47   O8    S    
C49   N7    T    
C20   H3    S    
C46   H19   S    
C4    C30   A    
C3    C16   S    
