data_mof_unit_56876.cif
_audit_creation_date              2012-12-10T18:11:42-0500
_audit_creation_method            fapswitch 2.2
_symmetry_space_group_name_H-M    P1
_symmetry_Int_Tables_number       1
_space_group_crystal_system       triclinic
_cell_length_a                    10.494285
_cell_length_b                    12.68827
_cell_length_c                    12.97426
_cell_angle_alpha                 81.778246
_cell_angle_beta                  91.631207
_cell_angle_gamma                 102.999025
_cell_volume                      1665.99437637

loop_
_atom_site_label
_atom_site_type_symbol
_atom_type_description
_atom_site_fract_x
_atom_site_fract_y
_atom_site_fract_z
_atom_type_partial_charge
C1    C     C_R   0.468280 0.438861 0.690244 0.925666
C2    C     C_3   0.059386 0.542759 0.588264 -0.333800
C3    C     C_3   0.942982 0.442121 0.597394 -0.154817
C4    C     C_3   0.877996 0.500832 0.505915 -0.091474
C5    C     C_R   0.424375 0.716481 0.059579 -0.182410
C6    C     C_R   0.506330 0.599430 0.197335 -0.204788
C7    C     C_R   0.396954 0.288125 0.841246 0.372257
C8    C     C_R   0.395196 0.259553 0.949642 0.379966
C9    C     C_R   0.417069 0.341006 0.013518 -0.282984
C10   C     C_R   0.427691 0.451298 0.970697 0.019936
C11   C     C_R   0.408781 0.476963 0.863560 0.038608
C12   C     C_R   0.742291 0.500700 0.502053 0.917841
C13   C     C_R   0.450752 0.536508 0.032017 0.008208
C14   C     C_R   0.415827 0.636489 0.994073 0.079299
C15   C     C_R   0.373913 0.654573 0.891394 -0.207345
C16   C     C_R   0.374259 0.577019 0.825676 -0.114652
C17   C     C_R   0.515356 0.527468 0.127510 0.426369
C18   C     C_R   0.464472 0.695939 0.162418 -0.222600
C19   C     C_R   0.421409 0.400014 0.798310 -0.309022
C20   C     C_R   0.345128 0.099401 0.327170 -0.251478
C21   C     C_R   0.647820 0.797742 0.636978 0.482832
C22   C     C_R   0.658667 0.892812 0.679574 -0.325248
C23   C     C_R   0.515473 0.561441 0.308061 0.876831
C24   C     C_R   0.590912 0.970352 0.636940 0.344359
C25   C     C_R   0.521513 0.957939 0.541317 -0.090035
C26   C     C_R   0.505483 0.854885 0.504855 0.043821
C27   C     C_R   0.467331 0.040481 0.480625 -0.055551
C28   C     C_R   0.394140 0.017084 0.388946 0.052324
C29   C     C_R   0.374516 0.913400 0.357938 0.394408
C30   C     C_R   0.427942 0.833576 0.417082 -0.257531
C31   C     C_R   0.491864 0.149064 0.501077 0.086992
C32   C     C_R   0.361133 0.200507 0.359191 0.002187
C33   C     C_R   0.257584 0.496729 0.504013 0.892165
C34   C     C_3   0.938945 0.446885 0.426867 -0.358591
C35   C     C_3   0.008073 0.389853 0.518268 -0.155417
C36   C     C_3   0.121096 0.491376 0.507837 -0.100259
C37   C     C_3   0.053907 0.547281 0.417227 0.423891
C38   C     C_3   0.993022 0.600107 0.496368 0.504959
H1    H     H_    0.019910 0.304238 0.527804 0.179178
H2    H     H_    0.414903 0.316068 0.096847 0.224232
H3    H     H_    0.341411 0.593962 0.746511 0.152541
H4    H     H_    0.321819 0.263919 0.313368 0.140692
H5    H     H_    0.295281 0.087136 0.254297 0.204369
H6    H     H_    0.563166 0.180919 0.555680 0.195765
H7    H     H_    0.882786 0.405825 0.364311 0.165130
H8    H     H_    0.715428 0.903832 0.749922 0.221618
H9    H     H_    0.408669 0.755187 0.391692 0.227706
H10   H     H_    0.114948 0.577307 0.654320 0.150972
H11   H     H_    0.892154 0.399208 0.670566 0.177509
H12   H     H_    0.459893 0.753923 0.214743 0.223391
H13   H     H_    0.345196 0.729892 0.861024 0.161398
H14   H     H_    0.395144 0.792397 0.032690 0.195537
N1    N     N_R   0.432930 0.222190 0.444670 -0.113717
N2    N     N_R   0.566370 0.776980 0.554790 -0.142894
O1    O     O_R   0.467970 0.366730 0.627150 -0.557289
O2    O     O_R   0.510820 0.544830 0.662520 -0.575683
O3    O     O_R   0.664630 0.410960 0.482340 -0.626010
O4    O     O_R   0.707470 0.589060 0.517710 -0.525868
O5    O     O_R   0.489180 0.455170 0.337480 -0.587923
O6    O     O_R   0.532030 0.633270 0.372850 -0.631951
O7    O     O_R   0.292530 0.410940 0.482290 -0.633522
O8    O     O_R   0.335370 0.589040 0.517660 -0.654800
Zn1   Zn    Zn3+2 0.471390 0.381080 0.476380 0.989346
Zn2   Zn    Zn3+2 0.528610 0.618920 0.523620 0.988214
O9    O     O_3   0.588715 0.449014 0.152032 -0.639521
C39   C     C_3   0.722749 0.496898 0.131337 0.066736
H15   H     H_    0.779245 0.437198 0.167788 0.168896
H16   H     H_    0.756584 0.572364 0.168394 0.117342
C40   C     C_3   0.753019 0.520364 0.013670 -0.326181
H17   H     H_    0.711887 0.446020 0.977040 0.247816
H18   H     H_    0.707667 0.587436 0.976731 0.239274
C41   C     C_3   0.899610 0.554993 0.991949 -0.941154
H19   H     H_    0.944651 0.626061 0.031789 0.258925
H20   H     H_    0.916835 0.578329 0.906830 0.290429
H21   H     H_    0.946798 0.486291 0.018958 0.265139
Cl1   Cl    Cl    0.349658 0.182984 0.763054 -0.494637
Cl2   Cl    Cl    0.368702 0.122324 0.008066 -0.561650
O10   O     O_3   0.322903 0.894733 0.260832 -0.626262
C42   C     C_3   0.185042 0.867894 0.266308 0.070160
H22   H     H_    0.145294 0.931916 0.296124 0.116187
H23   H     H_    0.151791 0.790616 0.318435 0.211634
C43   C     C_3   0.129127 0.854881 0.157717 -0.267653
H24   H     H_    0.155669 0.934640 0.106568 0.266242
H25   H     H_    0.171968 0.795113 0.123711 0.218810
C44   C     C_3   0.980413 0.816132 0.161332 -0.940973
H26   H     H_    0.951535 0.734803 0.209584 0.268818
H27   H     H_    0.942372 0.809433 0.081256 0.270471
H28   H     H_    0.935690 0.875347 0.194587 0.279688
Cl3   Cl    Cl    0.735210 0.703574 0.698258 -0.627038
Cl4   Cl    Cl    0.585196 0.067136 0.720318 -0.558262
O11   O     O_3   0.127771 0.602245 0.327973 -0.682577
C45   C     C_3   0.095726 0.546329 0.240606 0.069508
H29   H     H_    0.137826 0.603425 0.170843 0.178070
H30   H     H_    0.988654 0.525569 0.227331 0.122543
C46   C     C_3   0.155578 0.445562 0.247549 -0.356858
H31   H     H_    0.262439 0.471195 0.256991 0.234869
H32   H     H_    0.116479 0.384884 0.315737 0.227677
C47   C     C_3   0.127803 0.389765 0.150233 -0.956544
H33   H     H_    0.021120 0.356497 0.143204 0.269700
H34   H     H_    0.178038 0.320941 0.156029 0.267153
H35   H     H_    0.164252 0.448235 0.079648 0.272489
O12   O     O_3   0.974368 0.708294 0.484335 -0.618097
C48   C     C_3   0.085042 0.780027 0.520193 0.060497
H36   H     H_    0.098025 0.859764 0.469560 0.140376
H37   H     H_    0.177697 0.752001 0.514630 0.139482
C49   C     C_3   0.063427 0.801347 0.630936 -0.329872
H38   H     H_    0.986305 0.848874 0.629603 0.259182
H39   H     H_    0.030022 0.723309 0.683294 0.247335
C50   C     C_3   0.188921 0.865961 0.674632 -0.869166
H40   H     H_    0.267054 0.819193 0.678546 0.248898
H41   H     H_    0.170425 0.881239 0.754427 0.291597
H42   H     H_    0.222738 0.945796 0.624772 0.287640

loop_
_geom_bond_atom_site_label_1
_geom_bond_atom_site_label_2
_ccdc_geom_bond_type
C39   H16   S    
C34   C37   S    
C35   C36   S    
C3    H11   S    
C46   C47   S    
C7    C8    A    
C21   Cl3   S    
C44   H26   S    
C23   O5    A    
C11   C19   A    
C29   C30   A    
C49   H39   S    
C28   C29   A    
C1    O2    A    
C50   H41   S    
C21   N2    A    
C39   C40   S    
C49   H38   S    
C15   C16   A    
C33   C36   S    
C40   H18   S    
C34   C35   S    
O7    Zn1   S    
O8    Zn2   S    
C29   O10   S    
C46   H31   S    
C8    C9    A    
O1    Zn1   S    
O2    Zn2   S    
C5    H14   S    
C15   H13   S    
C4    C12   S    
C9    C10   A    
C12   O4    A    
C39   H15   S    
C21   C22   A    
O12   C48   S    
C41   H21   S    
C26   N2    A    
O3    Zn1   S    
C44   H27   S    
O4    Zn2   S    
C23   O6    A    
C6    C18   A    
C4    C34   S    
C1    C19   S    
C31   H6    S    
C37   O11   S    
C27   C31   A    
C30   H9    S    
C24   C25   A    
C41   H20   S    
C50   H42   S    
O11   C45   S    
C42   H23   S    
O10   C42   S    
C33   O8    A    
C5    C18   A    
C20   C28   A    
C2    H10   S    
C25   C26   A    
C45   C46   S    
C40   C41   S    
C35   H1    S    
C37   C38   S    
C11   C16   A    
C2    C38   S    
C3    C35   S    
C45   H30   S    
C48   H37   S    
C34   H7    S    
C31   N1    A    
C5    C14   A    
C12   O3    A    
C17   O9    S    
C22   H8    S    
C4    C38   S    
C43   H24   S    
C43   H25   S    
C8    Cl2   S    
C22   C24   A    
O9    C39   S    
C3    C4    S    
C47   H35   S    
C32   N1    A    
C48   H36   S    
C20   H5    S    
C18   H12   S    
C20   C32   A    
C44   H28   S    
C2    C36   S    
C6    C17   A    
C36   C37   S    
O5    Zn1   S    
C41   H19   S    
C10   C13   A    
C24   Cl4   S    
C42   C43   S    
C46   H32   S    
C26   C30   A    
C7    Cl1   S    
C25   C27   A    
C43   C44   S    
C7    C19   A    
C13   C17   A    
O6    Zn2   S    
C2    C3    S    
C1    O1    A    
C38   O12   S    
C50   H40   S    
N1    Zn1   S    
N2    Zn2   S    
C6    C23   S    
C45   H29   S    
C48   C49   S    
C9    H2    S    
C40   H17   S    
C47   H34   S    
C10   C11   A    
C42   H22   S    
C33   O7    A    
C47   H33   S    
C27   C28   A    
C32   H4    S    
C14   C15   A    
C13   C14   A    
C16   H3    S    
C49   C50   S    
