data_mof_unit_17022.cif
_audit_creation_date              2012-12-10T17:36:37-0500
_audit_creation_method            fapswitch 2.2
_symmetry_space_group_name_H-M    P1
_symmetry_Int_Tables_number       1
_space_group_crystal_system       triclinic
_cell_length_a                    12.103191
_cell_length_b                    12.765923
_cell_length_c                    15.735424
_cell_angle_alpha                 91.111677
_cell_angle_beta                  87.453232
_cell_angle_gamma                 95.821328
_cell_volume                      2416.05696249

loop_
_atom_site_label
_atom_site_type_symbol
_atom_type_description
_atom_site_fract_x
_atom_site_fract_y
_atom_site_fract_z
_atom_type_partial_charge
C1    C     C_R   0.524272 0.700529 0.498159 1.036641
C2    C     C_R   0.536882 0.026767 0.531232 -0.166157
C3    C     C_R   0.941622 0.378719 0.441522 0.335491
C4    C     C_R   0.058289 0.621016 0.558753 0.325171
C5    C     C_R   0.829896 0.401020 0.436637 0.394081
C6    C     C_R   0.170107 0.598921 0.563423 0.429759
C7    C     C_R   0.863850 0.548420 0.530179 0.554673
C8    C     C_R   0.136125 0.451445 0.469948 0.541414
C9    C     C_R   0.980268 0.543612 0.521971 -0.243645
C10   C     C_R   0.019685 0.456193 0.478227 -0.248943
C11   C     C_R   0.501393 0.501580 0.661650 0.928831
C12   C     C_R   0.475759 0.299488 0.502183 1.013430
C13   C     C_R   0.498513 0.497910 0.338363 0.941477
C14   C     C_3   0.479778 0.591097 0.031098 0.387335
C15   C     C_3   0.519296 0.403927 0.968851 0.401379
C16   C     C_3   0.579138 0.569124 0.972435 0.392617
C17   C     C_3   0.419919 0.425907 0.027561 0.393083
C18   C     C_1   0.503519 0.501883 0.750368 -0.042877
C19   C     C_1   0.496022 0.495569 0.249642 -0.090820
C20   C     C_3   0.398507 0.522346 0.974872 -0.409518
C21   C     C_3   0.600570 0.472694 0.025107 -0.414888
C22   C     C_3   0.500286 0.499834 0.916348 -0.030118
C23   C     C_R   0.624254 0.974888 0.562228 0.443381
C24   C     C_3   0.498786 0.495207 0.083632 -0.020253
C25   C     C_1   0.503051 0.501333 0.825572 0.153762
C26   C     C_1   0.496209 0.494628 0.174425 0.123621
C27   C     C_R   0.456054 0.186532 0.504435 -0.249230
C28   C     C_R   0.544008 0.813535 0.497778 -0.256061
C29   C     C_R   0.374422 0.024136 0.442776 0.457392
C30   C     C_R   0.619056 0.864866 0.553773 0.258536
C31   C     C_R   0.379225 0.134098 0.450322 0.279787
C32   C     C_R   0.477806 0.869557 0.448410 0.403167
C33   C     C_R   0.522967 0.131444 0.554274 0.300115
C34   C     C_R   0.462873 0.973345 0.472878 -0.181978
H1    H     H_    0.682102 0.452521 0.046028 0.211727
H2    H     H_    0.707539 0.847088 0.651869 0.377372
H3    H     H_    0.779999 0.991133 0.591025 0.359059
H4    H     H_    0.218014 0.006192 0.415889 0.366984
H5    H     H_    0.256762 0.387449 0.412768 0.399261
H6    H     H_    0.743235 0.612567 0.587180 0.400659
H7    H     H_    0.203050 0.690314 0.660550 0.359767
H8    H     H_    0.797180 0.310120 0.339235 0.368116
H9    H     H_    0.053546 0.169878 0.312574 0.393811
H10   H     H_    0.918343 0.859432 0.532138 0.393279
H11   H     H_    0.316975 0.542527 0.953955 0.210509
H12   H     H_    0.698003 0.676579 0.991838 0.364010
H13   H     H_    0.300996 0.318498 0.008208 0.365341
H14   H     H_    0.451679 0.734607 0.017211 0.368389
H15   H     H_    0.547503 0.260428 0.982599 0.363382
H16   H     H_    0.724020 0.238271 0.578459 0.381133
H17   H     H_    0.511563 0.726741 0.248492 0.404578
H18   H     H_    0.287809 0.149993 0.353524 0.365580
N1    N     N_R   0.207800 0.519340 0.515560 -0.204138
N2    N     N_R   0.792200 0.480660 0.484440 -0.204286
O1    O     O_R   0.421700 0.658830 0.504150 -0.546859
O2    O     O_3   0.338491 0.349240 0.058985 -0.693793
O3    O     O_3   0.461641 0.689566 0.066335 -0.707164
O4    O     O_3   0.537406 0.305497 0.933520 -0.659547
O5    O     O_2   0.490722 0.263959 0.685957 -0.298415
O6    O     O_2   0.579045 0.106997 0.717178 -0.171723
O7    O     O_3   0.697114 0.258306 0.636259 -0.450989
O8    O     O_2   0.322191 0.750873 0.361656 -0.199666
O9    O     O_2   0.423982 0.899924 0.286107 -0.228847
O10   O     O_3   0.526908 0.735753 0.309642 -0.596382
O11   O     O_3   0.313137 0.191942 0.403932 -0.712066
O12   O     O_R   0.578300 0.341170 0.495850 -0.574341
O13   O     O_3   0.683403 0.805947 0.600746 -0.720534
O14   O     O_3   0.715006 0.032518 0.596332 -0.680334
O15   O     O_3   0.283342 0.965252 0.410157 -0.644088
O16   O     O_3   0.175996 0.383041 0.410440 -0.638424
O17   O     O_3   0.823957 0.616706 0.589763 -0.639735
O18   O     O_3   0.244708 0.658988 0.612492 -0.681130
O19   O     O_3   0.755394 0.341114 0.387390 -0.688327
O20   O     O_2   0.055865 0.215739 0.479587 -0.220933
O21   O     O_2   0.870505 0.171188 0.426445 -0.282994
O22   O     O_3   0.027821 0.241008 0.318343 -0.482397
O23   O     O_R   0.609310 0.646410 0.494170 -0.602271
O24   O     O_2   0.979755 0.758826 0.671743 -0.228283
O25   O     O_2   0.129092 0.828508 0.571884 -0.248242
O26   O     O_3   0.932628 0.787021 0.514329 -0.470389
O27   O     O_R   0.390690 0.353590 0.505830 -0.603613
O28   O     O_R   0.406210 0.506220 0.628210 -0.590547
O29   O     O_R   0.593790 0.493780 0.371790 -0.576980
O30   O     O_R   0.593830 0.493800 0.618230 -0.616901
O31   O     O_R   0.406170 0.506200 0.381770 -0.621034
O32   O     O_3   0.660571 0.645809 0.941041 -0.692487
S1    S     S_3+6 0.571501 0.190052 0.651829 0.138668
S2    S     S_3+6 0.433091 0.814340 0.349048 0.108054
S3    S     S_3+6 0.973621 0.247276 0.418372 0.085051
S4    S     S_3+6 0.026213 0.752381 0.581813 0.107454
Zn1   Zn    Zn3+2 0.374730 0.508290 0.506660 1.077614
Zn2   Zn    Zn3+2 0.625270 0.491710 0.493340 1.067404

loop_
_geom_bond_atom_site_label_1
_geom_bond_atom_site_label_2
_ccdc_geom_bond_type
C11   C18   S    
C16   C21   S    
H6    O17   S    
O9    S2    D    
C1    O23   A    
O31   Zn1   S    
H2    O13   S    
H14   O3    S    
O23   Zn2   S    
O28   Zn1   S    
O24   S4    D    
C6    O18   S    
O29   Zn2   S    
O20   S3    D    
C24   C26   S    
C7    O17   S    
C32   S2    S    
H3    O14   S    
C17   C20   S    
C15   C17   S    
C14   C24   S    
C19   C26   T    
O25   S4    D    
O1    Zn1   S    
O7    S1    S    
C15   C22   S    
C22   C25   S    
N1    Zn1   S    
C1    C28   S    
C9    C10   A    
C4    S4    S    
C30   O13   S    
O22   S3    S    
C2    C34   A    
H4    O15   S    
C16   O32   S    
C18   C25   T    
O6    S1    D    
C29   O15   S    
C11   O28   A    
C17   C24   S    
C13   C19   S    
C12   C27   S    
C27   C31   A    
C23   C30   A    
C14   C20   S    
C5    N2    A    
H10   O26   S    
C4    C6    A    
O12   Zn2   S    
O8    S2    D    
C29   C34   A    
C27   C33   A    
H15   O4    S    
C32   C34   A    
C23   O14   S    
N2    Zn2   S    
C28   C32   A    
C17   O2    S    
H7    O18   S    
C2    C33   A    
C20   C22   S    
C15   O4    S    
C14   C16   S    
C6    N1    A    
H9    O22   S    
C31   O11   S    
C14   O3    S    
H8    O19   S    
C16   C22   S    
C5    O19   S    
H17   O10   S    
C20   H11   S    
C3    C5    A    
C8    N1    A    
C21   H1    S    
C11   O30   A    
C13   O29   A    
C8    O16   S    
C3    S3    S    
C28   C30   A    
C33   S1    S    
C29   C31   A    
C3    C10   A    
C12   O12   A    
H5    O16   S    
C12   O27   A    
C1    O1    A    
O26   S4    S    
O5    S1    D    
O21   S3    D    
O27   Zn1   S    
C7    C9    A    
C15   C21   S    
C8    C10   A    
C21   C24   S    
C13   O31   A    
C2    C23   A    
H16   O7    S    
O30   Zn2   S    
C7    N2    A    
C4    C9    A    
O10   S2    S    
H18   O11   S    
H13   O2    S    
H12   O32   S    
