data_mof_unit_37839.cif
_audit_creation_date              2012-12-10T16:36:44-0500
_audit_creation_method            fapswitch 2.2
_symmetry_space_group_name_H-M    P1
_symmetry_Int_Tables_number       1
_space_group_crystal_system       triclinic
_cell_length_a                    14.078191
_cell_length_b                    16.595336
_cell_length_c                    15.082977
_cell_angle_alpha                 89.981716
_cell_angle_beta                  91.935281
_cell_angle_gamma                 89.975362
_cell_volume                      3521.86025624

loop_
_atom_site_label
_atom_site_type_symbol
_atom_type_description
_atom_site_fract_x
_atom_site_fract_y
_atom_site_fract_z
_atom_type_partial_charge
C1    C     C_R   0.679628 0.845045 0.519618 0.873782
C2    C     C_R   0.947639 0.528967 0.108963 0.490832
C3    C     C_R   0.600144 0.954606 0.127614 -0.372622
C4    C     C_R   0.115313 0.494088 0.125515 -0.357019
C5    C     C_R   0.603784 0.944167 0.036122 0.533242
C6    C     C_R   0.123849 0.496293 0.034031 0.506833
C7    C     C_2   0.243448 0.216102 0.477197 -0.321078
C8    C     C_2   0.242355 0.784947 0.479001 -0.266397
C9    C     C_2   0.749305 0.720722 0.470689 -0.286903
C10   C     C_2   0.743376 0.284069 0.477784 -0.277400
C11   C     C_2   0.750466 0.783748 0.528472 -0.219953
C12   C     C_R   0.680678 0.154283 0.519668 0.869243
C13   C     C_2   0.755181 0.213142 0.522010 -0.382343
C14   C     C_2   0.255222 0.286885 0.521666 -0.253836
C15   C     C_2   0.255162 0.713258 0.521500 -0.375348
C16   C     C_R   0.319331 0.155704 0.480850 0.847264
C17   C     C_R   0.319045 0.844556 0.481255 0.845824
C18   C     C_R   0.819350 0.655820 0.480843 0.840986
C19   C     C_R   0.819236 0.344390 0.481069 0.840261
C20   C     C_R   0.520563 0.000304 0.260545 0.859445
C21   C     C_R   0.020412 0.502330 0.260212 0.874271
C22   C     C_R   0.478127 0.000197 0.738364 0.854863
C23   C     C_R   0.180780 0.345790 0.519773 0.909180
C24   C     C_R   0.978977 0.500025 0.738185 0.880754
C25   C     C_R   0.528591 0.000968 0.164345 -0.211613
C26   C     C_R   0.027707 0.508410 0.163458 -0.224922
C27   C     C_R   0.466119 0.002820 0.833361 -0.175076
C28   C     C_R   0.967935 0.500938 0.832843 -0.160325
C29   C     C_R   0.397153 0.071405 0.958053 0.436311
C30   C     C_R   0.868229 0.524455 0.958970 0.434269
C31   C     C_R   0.394039 0.050754 0.867269 0.344351
C32   C     C_R   0.877361 0.508071 0.867363 0.315799
C33   C     C_R   0.533898 0.966730 0.889242 -0.305591
C34   C     C_R   0.180767 0.654247 0.519726 0.866491
C35   C     C_R   0.048794 0.498310 0.887468 -0.300194
C36   C     C_3   0.408665 0.154929 0.182183 0.147952
C37   C     C_3   0.317867 0.197777 0.209387 -0.299262
C38   C     C_3   0.338890 0.278773 0.253606 -0.928937
C39   C     C_3   0.857692 0.640666 0.139010 0.145058
C40   C     C_3   0.884786 0.682854 0.226194 -0.382220
C41   C     C_3   0.866914 0.773493 0.219652 -0.931639
C42   C     C_3   0.339936 0.204693 0.948638 0.120873
C43   C     C_3   0.441515 0.236373 0.933967 -0.422370
C44   C     C_3   0.439737 0.324895 0.906617 -0.899459
C45   C     C_R   0.533720 0.980436 0.980578 -0.051763
C46   C     C_3   0.713675 0.584728 0.949964 0.132022
C47   C     C_3   0.753034 0.666511 0.918780 -0.434734
C48   C     C_3   0.674653 0.717002 0.873658 -0.799197
C49   C     C_3   0.761535 0.917850 0.010565 0.053055
C50   C     C_3   0.789324 0.960183 0.924996 -0.365361
C51   C     C_3   0.894001 0.984238 0.928399 -0.901526
C52   C     C_3   0.259332 0.556598 0.991065 0.055001
C53   C     C_3   0.356453 0.542070 0.951574 -0.322208
C54   C     C_3   0.408931 0.621040 0.936045 -0.928784
C55   C     C_3   0.238620 0.039923 0.818003 0.086138
C56   C     C_R   0.041665 0.504737 0.978899 -0.057733
C57   C     C_3   0.232683 0.969485 0.752303 -0.385528
C58   C     C_3   0.135287 0.929111 0.752201 -0.854388
C59   C     C_3   0.769580 0.421361 0.804847 0.048976
C60   C     C_3   0.692172 0.413300 0.731817 -0.309668
C61   C     C_3   0.660362 0.325941 0.719936 -0.922841
C62   C     C_2   0.679964 0.716312 0.393304 0.928937
C63   C     C_2   0.653158 0.304707 0.427753 0.991821
C64   C     C_2   0.153007 0.195365 0.427270 0.969519
C65   C     C_2   0.150133 0.807702 0.433416 0.958917
C66   C     C_2   0.347929 0.318580 0.557114 0.977903
C67   C     C_R   0.463601 0.031977 0.016360 -0.160891
C68   C     C_2   0.349307 0.680859 0.553380 1.020311
C69   C     C_2   0.807246 0.788300 0.613176 0.943994
C70   C     C_2   0.848348 0.181305 0.557103 1.019730
C71   C     C_R   0.951559 0.519973 0.015672 -0.185464
C72   C     C_R   0.461152 0.041980 0.109451 0.447766
H1    H     H_    0.650017 0.921827 0.170495 0.196568
H2    H     H_    0.271012 0.309743 0.267378 0.290582
H3    H     H_    0.380834 0.317707 0.209563 0.269160
H4    H     H_    0.781858 0.654441 0.123007 0.186735
H5    H     H_    0.900186 0.666606 0.084652 0.087310
H6    H     H_    0.841207 0.657868 0.279363 0.262171
H7    H     H_    0.961021 0.671946 0.243493 0.210012
H8    H     H_    0.913657 0.800870 0.169989 0.258425
H9    H     H_    0.882167 0.802087 0.285096 0.281088
H10   H     H_    0.791501 0.785733 0.200026 0.278597
H11   H     H_    0.303957 0.248343 0.992111 0.169057
H12   H     H_    0.177920 0.481081 0.166826 0.209152
H13   H     H_    0.297239 0.205087 0.885541 0.196697
H14   H     H_    0.486157 0.229945 0.995494 0.212046
H15   H     H_    0.475277 0.201460 0.880675 0.230047
H16   H     H_    0.397647 0.332780 0.843581 0.290373
H17   H     H_    0.513328 0.346366 0.896848 0.257659
H18   H     H_    0.407954 0.361879 0.959251 0.267151
H19   H     H_    0.656228 0.598287 0.996438 0.157790
H20   H     H_    0.677031 0.551430 0.895174 0.185200
H21   H     H_    0.782871 0.701001 0.976021 0.201466
H22   H     H_    0.810152 0.657891 0.870887 0.240325
H23   H     H_    0.588663 0.930084 0.860443 0.205822
H24   H     H_    0.644123 0.684817 0.814749 0.281865
H25   H     H_    0.704523 0.775260 0.851524 0.269052
H26   H     H_    0.617349 0.729616 0.920589 0.269448
H27   H     H_    0.808598 0.864730 0.021404 0.168984
H28   H     H_    0.774729 0.958559 0.068534 0.141904
H29   H     H_    0.775976 0.919210 0.867638 0.233097
H30   H     H_    0.745052 0.015102 0.914924 0.216385
H31   H     H_    0.908900 0.026204 0.984515 0.265504
H32   H     H_    0.911638 0.014917 0.865612 0.280020
H33   H     H_    0.939796 0.930011 0.936425 0.257730
H34   H     H_    0.117327 0.490368 0.857855 0.195444
H35   H     H_    0.270357 0.585445 0.057382 0.153123
H36   H     H_    0.217771 0.598156 0.946425 0.140817
H37   H     H_    0.400215 0.503979 0.997746 0.225979
H38   H     H_    0.347016 0.509686 0.887356 0.240039
H39   H     H_    0.367501 0.659709 0.888655 0.274108
H40   H     H_    0.479093 0.608053 0.907689 0.261268
H41   H     H_    0.420661 0.653909 0.999620 0.265930
H42   H     H_    0.179827 0.082642 0.801610 0.183906
H43   H     H_    0.226867 0.018158 0.886830 0.149063
H44   H     H_    0.246159 0.991850 0.684374 0.235208
H45   H     H_    0.444646 0.192696 0.132695 0.121799
H46   H     H_    0.287835 0.923982 0.770601 0.217480
H47   H     H_    0.120818 0.905328 0.819266 0.249110
H48   H     H_    0.133610 0.878205 0.704384 0.275715
H49   H     H_    0.078808 0.972823 0.732003 0.288817
H50   H     H_    0.740139 0.402171 0.869166 0.156855
H51   H     H_    0.829682 0.380779 0.788471 0.165349
H52   H     H_    0.629937 0.450829 0.748813 0.229106
H53   H     H_    0.719887 0.435510 0.668104 0.236149
H54   H     H_    0.721238 0.287816 0.701010 0.259050
H55   H     H_    0.604289 0.322332 0.666502 0.291758
H56   H     H_    0.456790 0.148592 0.241654 0.116158
H57   H     H_    0.631146 0.302442 0.782330 0.259629
H58   H     H_    0.609992 0.773949 0.292835 0.333200
H59   H     H_    0.545173 0.267899 0.346371 0.335248
H60   H     H_    0.041400 0.232843 0.350299 0.350660
H61   H     H_    0.033799 0.772973 0.361667 0.332980
H62   H     H_    0.418730 0.375385 0.657382 0.346221
H63   H     H_    0.300489 0.647611 0.672387 0.281174
H64   H     H_    0.841754 0.737642 0.731438 0.335963
H65   H     H_    0.795246 0.148003 0.674416 0.278135
H66   H     H_    0.270849 0.207675 0.149737 0.240933
H67   H     H_    0.279240 0.159036 0.256283 0.249020
H68   H     H_    0.378655 0.269582 0.317568 0.270638
O1    O     O_3   0.500000 0.000000 0.500000 -0.522301
O2    O     O_R   0.885830 0.337110 0.539910 -0.625705
O3    O     O_R   0.692160 0.095230 0.468550 -0.608877
O4    O     O_R   0.692160 0.904770 0.468550 -0.590968
O5    O     O_R   0.192160 0.595230 0.468550 -0.613649
O6    O     O_R   0.192160 0.404770 0.468550 -0.630724
O7    O     O_R   0.316720 0.904790 0.427870 -0.604496
O8    O     O_R   0.316720 0.095210 0.427870 -0.619949
O9    O     O_R   0.816720 0.404790 0.427870 -0.603363
O10   O     O_R   0.816720 0.595210 0.427870 -0.620224
O11   O     O_R   0.594900 0.000000 0.310900 -0.625579
O12   O     O_3   0.000000 0.500000 0.500000 -0.520396
O13   O     O_R   0.094900 0.500000 0.310900 -0.638994
O14   O     O_R   0.483090 0.932320 0.697550 -0.658089
O15   O     O_R   0.483090 0.067680 0.697550 -0.618085
O16   O     O_R   0.983090 0.432320 0.697550 -0.654704
O17   O     O_R   0.983090 0.567680 0.697550 -0.633278
O18   O     O_R   0.438930 0.000000 0.294000 -0.607878
O19   O     O_R   0.938930 0.500000 0.294000 -0.595481
O20   O     O_3   0.383263 0.078806 0.146476 -0.571332
O21   O     O_3   0.865659 0.555762 0.148029 -0.561229
O22   O     O_3   0.335167 0.128307 0.991415 -0.622523
O23   O     O_R   0.605310 0.837110 0.563680 -0.629309
O24   O     O_3   0.780065 0.534708 0.997384 -0.614418
O25   O     O_3   0.666989 0.889097 0.001857 -0.655809
O26   O     O_3   0.211809 0.482090 0.998877 -0.644342
O27   O     O_3   0.325084 0.082320 0.809479 -0.644714
O28   O     O_3   0.799066 0.502659 0.809814 -0.651869
O29   O     O_2   0.644418 0.651604 0.372083 -0.546365
O30   O     O_R   0.656905 0.785281 0.343783 -0.812770
O31   O     O_2   0.623761 0.374082 0.427529 -0.556266
O32   O     O_R   0.603452 0.245637 0.379078 -0.814316
O33   O     O_2   0.125317 0.125518 0.424942 -0.540285
O34   O     O_R   0.605310 0.162890 0.563680 -0.630645
O35   O     O_R   0.100803 0.254880 0.381463 -0.817758
O36   O     O_2   0.123839 0.877970 0.433543 -0.566013
O37   O     O_R   0.094427 0.749622 0.389110 -0.819857
O38   O     O_2   0.418183 0.317009 0.511537 -0.590564
O39   O     O_R   0.352672 0.354857 0.640782 -0.821112
O40   O     O_2   0.416846 0.682000 0.504613 -0.527153
O41   O     O_R   0.360300 0.644934 0.636955 -0.772316
O42   O     O_2   0.856350 0.847643 0.629148 -0.622798
O43   O     O_R   0.800210 0.727142 0.676456 -0.766073
O44   O     O_2   0.917612 0.182144 0.510459 -0.526503
O45   O     O_R   0.105310 0.337110 0.563680 -0.605467
O46   O     O_R   0.856499 0.145825 0.641102 -0.773845
O47   O     O_R   0.105310 0.662890 0.563680 -0.633985
O48   O     O_R   0.385830 0.162890 0.539910 -0.607418
O49   O     O_R   0.385830 0.837110 0.539910 -0.628110
O50   O     O_R   0.885830 0.662890 0.539910 -0.605023
Zn1   Zn    Zn3+2 0.493670 0.096680 0.574000 1.014152
Zn2   Zn    Zn3+2 0.493670 0.903320 0.574000 1.010063
Zn3   Zn    Zn3+2 0.993670 0.596680 0.574000 1.013878
Zn4   Zn    Zn3+2 0.993670 0.403320 0.574000 1.027486
Zn5   Zn    Zn3+2 0.617760 0.000000 0.438070 1.048590
Zn6   Zn    Zn3+2 0.117760 0.500000 0.438070 1.035386
Zn7   Zn    Zn3+2 0.394920 0.000000 0.413930 1.049869
Zn8   Zn    Zn3+2 0.894920 0.500000 0.413930 1.062674

loop_
_geom_bond_atom_site_label_1
_geom_bond_atom_site_label_2
_ccdc_geom_bond_type
C53   H38   S    
C21   C26   S    
C6    O26   S    
C40   C41   S    
C16   O8    A    
C33   C45   A    
C10   C63   S    
O1    Zn1   S    
C30   O24   S    
O45   Zn4   S    
C41   H8    S    
C61   H55   S    
C30   C71   A    
C63   O32   S    
O4    Zn5   S    
C53   C54   S    
C27   C33   A    
C48   H25   S    
C66   O38   D    
C65   O37   S    
O12   Zn3   S    
O48   Zn1   S    
O17   Zn3   S    
C42   O22   S    
C39   H5    S    
C60   H53   S    
C17   O7    A    
C59   O28   S    
C38   H2    S    
C34   O5    A    
O8    Zn7   S    
C46   H20   S    
C20   C25   S    
C41   H10   S    
C51   H31   S    
C54   H41   S    
O18   Zn7   S    
C67   C72   A    
O1    Zn5   S    
O11   Zn5   S    
C60   H52   S    
C20   O11   A    
O5    Zn6   S    
O50   Zn3   S    
C52   O26   S    
C29   C67   A    
C7    C14   D    
C18   O50   A    
C52   H35   S    
C1    C11   S    
C45   C67   A    
C61   H54   S    
C5    O25   S    
H62   O39   S    
C39   O21   S    
C15   C34   S    
C68   O41   S    
C61   H57   S    
C69   O42   D    
C22   O15   A    
C59   H50   S    
C41   H9    S    
C59   C60   S    
C20   O18   A    
O47   Zn3   S    
C21   O19   A    
C36   H56   S    
O1    Zn2   S    
O1    Zn7   S    
C33   H23   S    
C2    O21   S    
C57   H44   S    
C38   H3    S    
O19   Zn8   S    
C59   H51   S    
C62   O30   S    
C23   O6    A    
H59   O32   S    
O12   Zn6   S    
C27   C31   A    
C9    C62   S    
C3    C25   A    
C28   C35   A    
C4    C6    A    
C16   O48   A    
C39   C40   S    
C42   H13   S    
C70   O46   S    
C24   O17   A    
C46   H19   S    
C17   O49   A    
C51   H32   S    
C5    C45   A    
C68   O40   D    
C60   C61   S    
H60   O35   S    
C14   C23   S    
O49   Zn2   S    
O16   Zn4   S    
C43   C44   S    
C49   O25   S    
C37   C38   S    
C49   H27   S    
C63   O31   D    
C47   C48   S    
C4    H12   S    
C28   C32   A    
C10   C19   S    
C51   H33   S    
C56   C71   A    
O3    Zn5   S    
C58   H48   S    
C50   C51   S    
C14   C66   S    
C40   H7    S    
O12   Zn8   S    
C2    C26   A    
C25   C72   A    
C39   H4    S    
C64   O35   S    
C36   H45   S    
C9    C11   D    
C52   H36   S    
O23   Zn2   S    
O15   Zn1   S    
C69   O43   S    
C70   O44   D    
C7    C16   S    
C31   O27   S    
C50   H30   S    
C19   O2    A    
C37   H66   S    
C55   C57   S    
C65   O36   D    
C40   H6    S    
O7    Zn7   S    
C42   C43   S    
H63   O41   S    
O6    Zn6   S    
C2    C71   A    
C13   C70   S    
C55   O27   S    
C44   H18   S    
C52   C53   S    
C12   O34   A    
H65   O46   S    
C22   O14   A    
C53   H37   S    
C62   O29   D    
O14   Zn2   S    
C46   C47   S    
C36   C37   S    
C58   H49   S    
C38   H68   S    
C48   H24   S    
C35   C56   A    
C43   H14   S    
C29   O22   S    
C42   H11   S    
C24   C28   S    
C6    C56   A    
C3    C5    A    
C10   C13   D    
C4    C26   A    
C11   C69   S    
C55   H42   S    
C8    C15   D    
C48   H26   S    
C66   O39   S    
O9    Zn8   S    
C8    C17   S    
C72   O20   S    
C12   O3    A    
O12   Zn4   S    
C22   C27   S    
O34   Zn1   S    
C43   H15   S    
C32   O28   S    
C29   C31   A    
C35   H34   S    
C44   H16   S    
C49   H28   S    
C30   C32   A    
O2    Zn4   S    
H61   O37   S    
C57   C58   S    
O13   Zn6   S    
C55   H43   S    
H58   O30   S    
C15   C68   S    
H64   O43   S    
C58   H47   S    
C19   O9    A    
C47   H22   S    
C54   H39   S    
C23   O45   A    
C34   O47   A    
C3    H1    S    
C7    C64   S    
C47   H21   S    
C36   O20   S    
C9    C18   S    
C8    C65   S    
C12   C13   S    
C1    O23   A    
C50   H29   S    
C49   C50   S    
C37   H67   S    
C1    O4    A    
C21   O13   A    
C54   H40   S    
C46   O24   S    
C64   O33   D    
C18   O10   A    
O10   Zn8   S    
C44   H17   S    
C24   O16   A    
C57   H46   S    
