data_mof_unit_44039.cif
_audit_creation_date              2013-03-05T16:48:05-0500
_audit_creation_method            fapswitch 2.2
_symmetry_space_group_name_H-M    P1
_symmetry_Int_Tables_number       1
_space_group_crystal_system       triclinic
_cell_length_a                    18.904523
_cell_length_b                    8.987205
_cell_length_c                    8.233127
_cell_angle_alpha                 89.996373
_cell_angle_beta                  88.555665
_cell_angle_gamma                 90.008684
_cell_volume                      1398.35415368

loop_
_atom_site_label
_atom_site_type_symbol
_atom_site_description
_atom_site_fract_x
_atom_site_fract_y
_atom_site_fract_z
_atom_type_partial_charge
O1    O     O_R   0.500000 0.285350 0.636850 -0.602236
O2    O     O_R   0.500000 0.714650 0.363150 -0.615510
O3    O     O_R   0.500000 0.714650 0.636850 -0.615299
O4    O     O_R   0.500000 0.285350 0.363150 -0.602070
C1    C     C_R   0.499998 0.218402 0.500003 0.895934
C2    C     C_R   0.500000 0.781597 0.499996 0.902161
O5    O     O_R   0.398140 0.500000 0.636920 -0.555540
O6    O     O_R   0.601860 0.500000 0.363080 -0.555465
O7    O     O_R   0.601860 0.500000 0.636920 -0.556189
O8    O     O_R   0.398140 0.500000 0.363080 -0.556226
C3    C     C_R   0.364045 0.492070 0.501874 0.946776
C4    C     C_R   0.635954 0.492075 0.498120 0.946951
Zn1   Zn    Zn3+2 0.500000 0.500000 0.682780 1.124158
Zn2   Zn    Zn3+2 0.500000 0.500000 0.317220 1.124094
C5    C     C_1   0.499998 0.065200 0.500004 -0.138916
C6    C     C_1   0.499998 0.934822 0.499995 -0.149764
N1    N     N_1   0.500000 0.500000 0.073640 0.057772
N2    N     N_1   0.500000 0.500000 0.926360 0.057727
C7    C     C_R   0.250090 0.422576 0.652841 0.177135
C8    C     C_R   0.749866 0.422468 0.347102 0.177248
C9    C     C_R   0.747166 0.418070 0.640072 0.172608
C10   C     C_R   0.252863 0.417857 0.359876 0.172413
C11   C     C_R   0.179278 0.376268 0.655169 0.343534
C12   C     C_R   0.820681 0.376205 0.344738 0.343152
C13   C     C_R   0.812027 0.342850 0.638307 0.329388
C14   C     C_R   0.187999 0.342611 0.361658 0.329425
C15   C     C_R   0.147788 0.330645 0.508573 -0.232920
C16   C     C_R   0.852202 0.330722 0.491349 -0.232770
C17   C     C_R   0.287063 0.451068 0.505321 -0.394043
C18   C     C_R   0.712930 0.451082 0.494634 -0.393770
N3    N     N_R   0.038180 0.281488 0.361065 -0.147957
N4    N     N_R   0.961811 0.281572 0.638824 -0.148021
N5    N     N_R   0.968045 0.279303 0.356906 -0.154086
N6    N     N_R   0.031942 0.279337 0.642988 -0.153972
C19   C     C_R   0.928222 0.287967 0.495466 0.336477
C20   C     C_R   0.071766 0.287913 0.504429 0.336426
N7    N     N_R   0.286241 0.425308 0.801561 0.266796
O9    O     O_R   0.323741 0.308894 0.836614 -0.358515
O10   O     O_R   0.302787 0.553629 0.862646 -0.345968
N8    N     N_R   0.713685 0.425198 0.198419 0.266521
O11   O     O_R   0.675956 0.309000 0.163698 -0.358986
O12   O     O_R   0.697304 0.553548 0.137169 -0.345928
N9    N     N_R   0.715400 0.458315 0.791957 0.261742
O13   O     O_R   0.710188 0.599184 0.825584 -0.391568
O14   O     O_R   0.670711 0.366388 0.859932 -0.333116
N10   N     N_R   0.284676 0.457880 0.207960 0.262104
O15   O     O_R   0.289863 0.598696 0.174066 -0.391505
O16   O     O_R   0.329431 0.365946 0.140288 -0.333209
O17   O     O_3   0.144620 0.360504 0.804599 -0.591058
C21   C     C_3   0.102894 0.488372 0.840440 0.113781
H1    H     H_    0.053547 0.448224 0.902028 0.190314
H2    H     H_    0.086264 0.551338 0.730783 0.099401
C22   C     C_3   0.140715 0.593015 0.956124 -0.258738
H3    H     H_    0.168708 0.526724 0.047388 0.313420
H4    H     H_    0.179767 0.660831 0.885875 0.229504
C23   C     C_3   0.089035 0.696885 0.045143 -1.022503
H5    H     H_    0.063994 0.773013 0.957314 0.274909
H6    H     H_    0.117282 0.764408 0.135469 0.275875
H7    H     H_    0.047922 0.631704 0.112378 0.274529
O18   O     O_3   0.855318 0.360401 0.195294 -0.591495
C24   C     C_3   0.897116 0.488195 0.159441 0.113944
H8    H     H_    0.946425 0.447968 0.097779 0.190413
H9    H     H_    0.913813 0.551083 0.269092 0.099426
C25   C     C_3   0.859329 0.592976 0.043864 -0.258603
H10   H     H_    0.831215 0.526800 0.952713 0.313626
H11   H     H_    0.820374 0.660906 0.114224 0.229375
C26   C     C_3   0.911061 0.696654 0.954659 -1.022337
H12   H     H_    0.936131 0.772872 0.042357 0.274791
H13   H     H_    0.882851 0.764078 0.864195 0.275940
H14   H     H_    0.952147 0.631341 0.887538 0.274536
O19   O     O_3   0.837329 0.291499 0.784659 -0.601491
C27   C     C_3   0.831372 0.134308 0.792433 0.117491
H15   H     H_    0.869595 0.094361 0.883058 0.189995
H16   H     H_    0.846000 0.078355 0.675425 0.113745
C28   C     C_3   0.756775 0.087901 0.848591 -0.356611
H17   H     H_    0.742660 0.147347 0.962626 0.312447
H18   H     H_    0.718491 0.116731 0.753410 0.232798
C29   C     C_3   0.751605 0.921985 0.881219 -0.840285
H19   H     H_    0.769269 0.858671 0.771711 0.272533
H20   H     H_    0.695801 0.892365 0.911694 0.308661
H21   H     H_    0.784454 0.892391 0.986146 0.267904
O20   O     O_3   0.162781 0.290895 0.215367 -0.601112
C30   C     C_3   0.168805 0.133695 0.208047 0.118194
H22   H     H_    0.130976 0.093505 0.116672 0.189835
H23   H     H_    0.153694 0.077998 0.324902 0.113976
C31   C     C_3   0.243621 0.087224 0.153623 -0.358466
H24   H     H_    0.258118 0.145997 0.039383 0.312344
H25   H     H_    0.281548 0.116766 0.249305 0.232446
C32   C     C_3   0.249020 0.921129 0.122352 -0.839248
H26   H     H_    0.230832 0.858362 0.231837 0.271655
H27   H     H_    0.304981 0.891570 0.093645 0.308527
H28   H     H_    0.216757 0.890782 0.016715 0.268614

loop_
_geom_bond_atom_site_label_1
_geom_bond_atom_site_label_2
_geom_bond_distance
_ccdc_geom_bond_type
C10   C17   1.407139 A    
C28   H17   1.107058 S    
O3    C2    1.277281 A    
C8    C18   1.409399 A    
C22   H3    1.104378 S    
C13   C16   1.416455 A    
O5    C3    1.301099 A    
C14   C15   1.416364 A    
Zn1   N2    2.005425 S    
O1    C1    1.277301 A    
C8    N8    1.417438 S    
C29   H20   1.110543 S    
C11   O17   1.386462 S    
C5    C6    1.171733 T    
C23   H5    1.110121 S    
C24   H9    1.117336 S    
O7    Zn1   1.952921 S    
C7    N7    1.417414 S    
C9    N9    1.420365 S    
C8    C12   1.401524 A    
C16   C19   1.488867 S    
C21   H2    1.117339 S    
N3    N5    1.327317 A    
C13   O19   1.386609 S    
C11   C15   1.419666 A    
C32   H27   1.110462 S    
O3    Zn1   1.965793 S    
O6    C4    1.301042 A    
C4    C18   1.500747 S    
N8    O12   1.299491 A    
C14   O20   1.386682 S    
Zn2   N1    2.005425 S    
O2    C2    1.277297 A    
C27   C28   1.530800 S    
O7    C4    1.299723 A    
C21   H1    1.110675 S    
C22   H4    1.108745 S    
N10   O16   1.298225 A    
C21   C22   1.528733 S    
C31   H25   1.110669 S    
C26   H12   1.110119 S    
C25   C26   1.525593 S    
C27   H16   1.115370 S    
O8    Zn2   1.952923 S    
C31   H24   1.107090 S    
O4    C1    1.277279 A    
O18   C24   1.420747 S    
C26   H13   1.107417 S    
C25   H11   1.108734 S    
C24   C25   1.528681 S    
C7    C11   1.401477 A    
N9    O13   1.299176 A    
N4    C19   1.355484 A    
N7    O9    1.300366 A    
N9    O14   1.298225 A    
C30   H22   1.111265 S    
C12   O18   1.386451 S    
N1    N2    1.212574 T    
C32   H28   1.108841 S    
C28   H18   1.110693 S    
N8    O11   1.300414 A    
C10   N10   1.420347 S    
O17   C21   1.420728 S    
O1    Zn1   1.965841 S    
C7    C17   1.409374 A    
C22   C23   1.525563 S    
C9    C13   1.400017 A    
N10   O15   1.299086 A    
O6    Zn2   1.971600 S    
C30   H23   1.115262 S    
C29   H19   1.110448 S    
C12   C16   1.419672 A    
C27   H15   1.111286 S    
C31   C32   1.517801 S    
C15   C20   1.488743 S    
C9    C18   1.407047 A    
C23   H7    1.109861 S    
C26   H14   1.109834 S    
C25   H10   1.104283 S    
O19   C27   1.418481 S    
N7    O10   1.299478 A    
C29   H21   1.108927 S    
N5    C19   1.353118 A    
C23   H6    1.107435 S    
N6    C20   1.353061 A    
O4    Zn2   1.965794 S    
C24   H8    1.110686 S    
O2    Zn2   1.965840 S    
C28   C29   1.517814 S    
C1    C5    1.376859 S    
O8    C3    1.299672 A    
C2    C6    1.377064 S    
O5    Zn1   1.971601 S    
C30   C31   1.530968 S    
C3    C17   1.500760 S    
O20   C30   1.418552 S    
C10   C14   1.400007 A    
N3    C20   1.355527 A    
C32   H26   1.110494 S    
N4    N6    1.327253 A    
