data_mof_unit_10737.cif
_audit_creation_date              2012-12-11T14:03:47-0500
_audit_creation_method            fapswitch 2.2
_symmetry_space_group_name_H-M    P1
_symmetry_Int_Tables_number       1
_space_group_crystal_system       triclinic
_cell_length_a                    18.949408
_cell_length_b                    11.061378
_cell_length_c                    18.95612
_cell_angle_alpha                 89.851802
_cell_angle_beta                  88.958074
_cell_angle_gamma                 90.331042
_cell_volume                      3972.5895271

loop_
_atom_site_label
_atom_site_type_symbol
_atom_type_description
_atom_site_fract_x
_atom_site_fract_y
_atom_site_fract_z
_atom_type_partial_charge
C1    C     C_R   0.241612 0.464084 0.648980 0.545425
C2    C     C_R   0.758294 0.464297 0.351083 0.532565
C3    C     C_R   0.741612 0.964084 0.648980 0.545425
C4    C     C_R   0.258294 0.964297 0.351083 0.532566
C5    C     C_2   0.279527 0.819930 0.527432 -0.034909
C6    C     C_2   0.720031 0.819498 0.472706 -0.034257
C7    C     C_2   0.779527 0.319930 0.527432 -0.034909
C8    C     C_2   0.220031 0.319498 0.472706 -0.034257
C9    C     C_R   0.984687 0.660637 0.429119 -0.018077
C10   C     C_R   0.016024 0.660678 0.570574 -0.020841
C11   C     C_R   0.484687 0.160636 0.429119 -0.018077
C12   C     C_R   0.516024 0.160678 0.570574 -0.020841
C13   C     C_R   0.010673 0.883336 0.426822 -0.079082
C14   C     C_R   0.990157 0.882886 0.572437 -0.078756
C15   C     C_R   0.510673 0.383336 0.426822 -0.079082
C16   C     C_R   0.490157 0.382886 0.572437 -0.078756
C17   C     C_R   0.007723 0.992235 0.463444 -0.133907
C18   C     C_R   0.992940 0.991942 0.535588 -0.134167
C19   C     C_R   0.507723 0.492235 0.463444 -0.133907
C20   C     C_R   0.492940 0.491942 0.535588 -0.134167
C21   C     C_R   0.001048 0.772103 0.536735 -0.001524
C22   C     C_R   0.999818 0.772209 0.462744 -0.000570
C23   C     C_R   0.501048 0.272103 0.536735 -0.001524
C24   C     C_R   0.499818 0.272209 0.462744 -0.000570
C25   C     C_R   0.018382 0.552474 0.530557 0.005861
C26   C     C_R   0.982308 0.552221 0.469306 0.007906
C27   C     C_R   0.518382 0.052474 0.530557 0.005861
C28   C     C_R   0.482308 0.052221 0.469306 0.007906
C29   C     C_R   0.051275 0.442640 0.549478 -0.072029
C30   C     C_R   0.949280 0.441825 0.450658 -0.071598
C31   C     C_R   0.551275 0.942640 0.549478 -0.072029
C32   C     C_R   0.449280 0.941825 0.450658 -0.071598
C33   C     C_R   0.028057 0.332446 0.523213 -0.127389
C34   C     C_R   0.972273 0.332002 0.477307 -0.129119
C35   C     C_R   0.528057 0.832446 0.523213 -0.127389
C36   C     C_R   0.472273 0.832002 0.477307 -0.129119
C37   C     C_2   0.255275 0.925408 0.917362 -0.147562
C38   C     C_2   0.743241 0.935432 0.085489 -0.149572
C39   C     C_2   0.755276 0.425406 0.917362 -0.147563
C40   C     C_2   0.243241 0.435432 0.085490 -0.149571
C41   C     C_2   0.256621 0.940617 0.072976 -0.106570
C42   C     C_2   0.730054 0.980397 0.932652 -0.135583
C43   C     C_2   0.756620 0.440616 0.072977 -0.106564
C44   C     C_2   0.230054 0.480397 0.932652 -0.135582
C45   C     C_R   0.226225 0.869015 0.645235 0.553848
C46   C     C_R   0.773752 0.868955 0.354798 0.549627
C47   C     C_R   0.726225 0.369015 0.645235 0.553848
C48   C     C_R   0.273752 0.368955 0.354798 0.549627
C49   C     C_2   0.239843 0.031729 0.028765 -0.102184
C50   C     C_2   0.756308 0.060873 0.978358 -0.128735
C51   C     C_2   0.739847 0.531729 0.028765 -0.102181
C52   C     C_2   0.256308 0.560872 0.978358 -0.128734
C53   C     C_2   0.224835 0.016286 0.953364 -0.016243
C54   C     C_2   0.773312 0.031908 0.052496 -0.007724
C55   C     C_2   0.724838 0.516287 0.953364 -0.016244
C56   C     C_2   0.273312 0.531907 0.052496 -0.007723
C57   C     C_2   0.042854 0.655992 0.932332 -0.103846
C58   C     C_2   0.015480 0.663061 0.085823 -0.114132
C59   C     C_2   0.542854 0.155992 0.932332 -0.103848
C60   C     C_2   0.515480 0.163061 0.085823 -0.114132
C61   C     C_2   0.035433 0.563487 0.050442 -0.145446
C62   C     C_2   0.058146 0.565058 0.976092 -0.163675
C63   C     C_2   0.535434 0.063487 0.050442 -0.145446
C64   C     C_2   0.558146 0.065058 0.976092 -0.163675
C65   C     C_R   0.035090 0.654189 0.643555 0.551498
C66   C     C_R   0.965275 0.654257 0.356257 0.539625
C67   C     C_R   0.535090 0.154189 0.643555 0.551498
C68   C     C_R   0.465275 0.154257 0.356257 0.539625
C69   C     C_R   0.224683 0.514879 0.858859 0.540609
C70   C     C_R   0.762408 0.470574 0.147384 0.545874
C71   C     C_R   0.724683 0.014879 0.858859 0.540609
C72   C     C_R   0.262409 0.970576 0.147383 0.545877
C73   C     C_R   0.228300 0.875277 0.851814 0.520547
C74   C     C_R   0.771471 0.877016 0.148632 0.535705
C75   C     C_R   0.728300 0.375277 0.851814 0.520546
C76   C     C_R   0.271471 0.377016 0.148632 0.535706
C77   C     C_R   0.061163 0.647960 0.857845 0.549676
C78   C     C_R   0.972505 0.652561 0.150168 0.557167
C79   C     C_R   0.561163 0.147960 0.857845 0.549676
C80   C     C_R   0.472505 0.152561 0.150168 0.557166
C81   C     C_2   0.247259 0.900314 0.572178 -0.083590
C82   C     C_2   0.752706 0.900079 0.427743 -0.083760
C83   C     C_2   0.747259 0.400314 0.572178 -0.083590
C84   C     C_2   0.252706 0.400079 0.427743 -0.083760
C85   C     C_2   0.238909 0.906180 0.417269 -0.138391
C86   C     C_2   0.760698 0.906367 0.582798 -0.137041
C87   C     C_2   0.738909 0.406180 0.417269 -0.138391
C88   C     C_2   0.260698 0.406367 0.582798 -0.137041
C89   C     C_2   0.285556 0.841480 0.451462 -0.155946
C90   C     C_2   0.713837 0.841302 0.548638 -0.156534
C91   C     C_2   0.785556 0.341480 0.451462 -0.155945
C92   C     C_2   0.213837 0.341302 0.548638 -0.156534
Cr1   Cr    Cr6+3 0.113970 0.508630 0.747920 1.022574
Cr2   Cr    Cr6+3 0.886030 0.508630 0.252080 1.026343
Cr3   Cr    Cr6+3 0.613970 0.008630 0.747920 1.022575
Cr4   Cr    Cr6+3 0.386030 0.008630 0.252080 1.026343
Cr5   Cr    Cr6+3 0.269200 0.666740 0.749850 1.021829
Cr6   Cr    Cr6+3 0.730800 0.666740 0.250150 1.021534
Cr7   Cr    Cr6+3 0.769200 0.166740 0.749850 1.021829
Cr8   Cr    Cr6+3 0.230800 0.166740 0.250150 1.021533
Cr9   Cr    Cr6+3 0.112300 0.820070 0.749800 1.024316
Cr10  Cr    Cr6+3 0.887700 0.820070 0.250200 1.027078
Cr11  Cr    Cr6+3 0.612300 0.320070 0.749800 1.024316
Cr12  Cr    Cr6+3 0.387700 0.320070 0.250200 1.027078
H1    H     H_    0.328299 0.799281 0.421979 0.129821
H2    H     H_    0.670739 0.799077 0.578129 0.130912
H3    H     H_    0.828299 0.299281 0.421979 0.129821
H4    H     H_    0.170739 0.299077 0.578129 0.130912
H5    H     H_    0.265466 0.848876 0.055237 0.114114
H6    H     H_    0.714511 0.889572 0.948092 0.141161
H7    H     H_    0.765461 0.348872 0.055238 0.114112
H8    H     H_    0.214510 0.389572 0.948092 0.141151
H9    H     H_    0.297612 0.874773 0.941301 0.128578
H10   H     H_    0.699026 0.889010 0.061831 0.116165
H11   H     H_    0.797612 0.374769 0.941302 0.128581
H12   H     H_    0.199026 0.389010 0.061831 0.116161
H13   H     H_    0.029574 0.474686 0.074527 0.180677
H14   H     H_    0.082232 0.483365 0.955326 0.164938
H15   H     H_    0.529574 0.974686 0.074527 0.180676
H16   H     H_    0.582232 0.983366 0.955326 0.164939
H17   H     H_    0.024422 0.752919 0.064350 0.116837
H18   H     H_    0.017232 0.737729 0.950739 0.127941
H19   H     H_    0.524422 0.252918 0.064350 0.116836
H20   H     H_    0.517232 0.237729 0.950739 0.127941
H21   H     H_    0.189804 0.933056 0.443146 0.115138
H22   H     H_    0.809975 0.933581 0.556941 0.114863
H23   H     H_    0.689804 0.433056 0.443146 0.115138
H24   H     H_    0.309975 0.433581 0.556941 0.114863
H25   H     H_    0.228264 0.985755 0.552059 0.083752
H26   H     H_    0.772018 0.985674 0.447625 0.082720
H27   H     H_    0.728263 0.485755 0.552059 0.083752
H28   H     H_    0.272018 0.485674 0.447625 0.082720
H29   H     H_    0.015083 0.076552 0.435262 0.104731
H30   H     H_    0.985368 0.075955 0.563604 0.105868
H31   H     H_    0.515082 0.576552 0.435262 0.104731
H32   H     H_    0.485368 0.575955 0.563604 0.105868
H33   H     H_    0.022603 0.888147 0.371001 0.140322
H34   H     H_    0.978188 0.887322 0.628233 0.145150
H35   H     H_    0.522603 0.388147 0.371001 0.140322
H36   H     H_    0.478188 0.387322 0.628233 0.145150
H37   H     H_    0.906344 0.439702 0.415573 0.171339
H38   H     H_    0.094234 0.441329 0.584534 0.169978
H39   H     H_    0.406344 0.939702 0.415573 0.171339
H40   H     H_    0.594234 0.941330 0.584534 0.169978
H41   H     H_    0.051365 0.248905 0.540578 0.098950
H42   H     H_    0.948795 0.248094 0.460224 0.098431
H43   H     H_    0.551365 0.748905 0.540578 0.098950
H44   H     H_    0.448795 0.748093 0.460224 0.098431
H45   H     H_    0.232081 0.122112 0.050013 0.181124
H46   H     H_    0.771178 0.150085 0.958750 0.161893
H47   H     H_    0.732088 0.622112 0.050012 0.181123
H48   H     H_    0.271180 0.650084 0.958750 0.161893
O1    O     O_R   0.043230 0.549300 0.667990 -0.525238
O2    O     O_R   0.956770 0.549300 0.332010 -0.533043
O3    O     O_R   0.543230 0.049300 0.667990 -0.525238
O4    O     O_R   0.456770 0.049300 0.332010 -0.533043
O5    O     O_R   0.262920 0.788600 0.824420 -0.508645
O6    O     O_R   0.737080 0.788600 0.175580 -0.495539
O7    O     O_R   0.762920 0.288600 0.824420 -0.508645
O8    O     O_R   0.237080 0.288600 0.175580 -0.495541
O9    O     O_R   0.167530 0.905110 0.830340 -0.520267
O10   O     O_R   0.832470 0.905110 0.169660 -0.511310
O11   O     O_R   0.667530 0.405110 0.830340 -0.520266
O12   O     O_R   0.332470 0.405110 0.169660 -0.511309
O13   O     O_R   0.054010 0.748440 0.822860 -0.484231
O14   O     O_R   0.945990 0.748440 0.177140 -0.489579
O15   O     O_R   0.554010 0.248440 0.822860 -0.484231
O16   O     O_R   0.445990 0.248440 0.177140 -0.489579
O17   O     O_3   0.165160 0.665150 0.749190 -0.295017
O18   O     O_3   0.834840 0.665150 0.250810 -0.254477
O19   O     O_3   0.665160 0.165150 0.749190 -0.295017
O20   O     O_3   0.334840 0.165150 0.250810 -0.254477
O21   O     O_R   0.178620 0.457600 0.674100 -0.513738
O22   O     O_R   0.821380 0.457600 0.325900 -0.517645
O23   O     O_R   0.678620 0.957600 0.674100 -0.513738
O24   O     O_R   0.321380 0.957600 0.325900 -0.517645
O25   O     O_R   0.284680 0.542100 0.669460 -0.531537
O26   O     O_R   0.715320 0.542100 0.330540 -0.536775
O27   O     O_R   0.784680 0.042100 0.669460 -0.531537
O28   O     O_R   0.215320 0.042100 0.330540 -0.536775
O29   O     O_R   0.262860 0.790390 0.676650 -0.500019
O30   O     O_R   0.737140 0.790390 0.323350 -0.503862
O31   O     O_R   0.762860 0.290390 0.676650 -0.500019
O32   O     O_R   0.237140 0.290390 0.323350 -0.503862
O33   O     O_R   0.167460 0.907030 0.670940 -0.513818
O34   O     O_R   0.832540 0.907030 0.329060 -0.518248
O35   O     O_R   0.667460 0.407030 0.670940 -0.513817
O36   O     O_R   0.332540 0.407030 0.329060 -0.518248
O37   O     O_R   0.053950 0.750220 0.675100 -0.507937
O38   O     O_R   0.946050 0.750220 0.324900 -0.516329
O39   O     O_R   0.553950 0.250220 0.675100 -0.507937
O40   O     O_R   0.446050 0.250220 0.324900 -0.516329
O41   O     O_R   0.043300 0.547370 0.827390 -0.490062
O42   O     O_R   0.956700 0.547370 0.172610 -0.501892
O43   O     O_R   0.543300 0.047370 0.827390 -0.490062
O44   O     O_R   0.456700 0.047370 0.172610 -0.501892
O45   O     O_R   0.178690 0.455820 0.821860 -0.502573
O46   O     O_R   0.821310 0.455820 0.178140 -0.480992
O47   O     O_R   0.678690 0.955820 0.821860 -0.502571
O48   O     O_R   0.321310 0.955820 0.178140 -0.480994
O49   O     O_R   0.284750 0.540170 0.828860 -0.479164
O50   O     O_R   0.715250 0.540170 0.171140 -0.506329
O51   O     O_R   0.784750 0.040170 0.828860 -0.479164
O52   O     O_R   0.215250 0.040170 0.171140 -0.506330
C93   C     C_2   0.177849 0.105801 0.919435 0.262096
H49   H     H_    0.178386 0.117493 0.862607 0.139843
O53   O     O_2   0.138789 0.169496 0.955094 -0.518238
C94   C     C_2   0.824064 0.113188 0.088395 0.253873
H50   H     H_    0.823833 0.120385 0.145450 0.127394
O54   O     O_2   0.866113 0.174818 0.054241 -0.503718
C95   C     C_2   0.677855 0.605806 0.919435 0.262095
H51   H     H_    0.678391 0.617495 0.862607 0.139845
O55   O     O_2   0.638798 0.669507 0.955093 -0.518245
C96   C     C_2   0.324065 0.613187 0.088395 0.253873
H52   H     H_    0.323832 0.620387 0.145449 0.127392
O56   O     O_2   0.366116 0.674813 0.054241 -0.503717
C97   C     C_3   0.306318 0.699333 0.549576 -0.338824
H53   H     H_    0.333264 0.650171 0.505852 0.090265
H54   H     H_    0.345418 0.708302 0.592122 0.178700
H55   H     H_    0.258963 0.646495 0.564434 0.161939
C98   C     C_3   0.692755 0.698684 0.450784 -0.339320
H56   H     H_    0.665477 0.649361 0.494605 0.091565
H57   H     H_    0.653857 0.707419 0.408063 0.176495
H58   H     H_    0.739830 0.646037 0.436095 0.163949
C99   C     C_3   0.806318 0.199333 0.549576 -0.338824
H59   H     H_    0.833264 0.150171 0.505852 0.090265
H60   H     H_    0.845418 0.208303 0.592122 0.178700
H61   H     H_    0.758963 0.146495 0.564434 0.161939
C100  C     C_3   0.192755 0.198684 0.450784 -0.339320
H62   H     H_    0.165477 0.149361 0.494605 0.091565
H63   H     H_    0.153857 0.207419 0.408063 0.176495
H64   H     H_    0.239830 0.146037 0.436095 0.163949

loop_
_geom_bond_atom_site_label_1
_geom_bond_atom_site_label_2
_ccdc_geom_bond_type
Cr10  O18   S    
C7    C83   D    
C15   C19   A    
C69   O49   A    
C48   C84   S    
C6    C82   D    
C87   C91   D    
C86   H22   S    
Cr8   O52   S    
C14   C18   A    
C85   H21   S    
C35   C36   A    
C3    O23   A    
C45   O33   A    
C87   H23   S    
Cr5   O17   S    
C57   C62   D    
C40   H12   S    
C93   H49   S    
C97   H55   S    
C71   O51   A    
C12   C23   A    
Cr1   O17   S    
C59   C64   D    
C50   C54   S    
C30   H37   S    
C4    O24   A    
C5    C97   S    
C60   C63   D    
C32   C36   A    
C14   C21   A    
C67   O3    A    
C48   O36   A    
C98   H58   S    
Cr7   O7    S    
C38   H10   S    
C67   O39   A    
C9    C22   A    
Cr7   O19   S    
C68   O40   A    
C43   C70   S    
C19   H31   S    
Cr12  O40   S    
C73   O5    A    
C11   C24   A    
C99   H61   S    
C79   O43   A    
C75   O11   A    
C78   O42   A    
Cr8   O20   S    
C31   H40   S    
Cr3   O23   S    
C9    C66   S    
C32   H39   S    
C65   O1    A    
Cr10  O38   S    
C57   H18   S    
C46   C82   S    
C1    O25   A    
C36   H44   S    
C39   C55   D    
C88   C92   D    
C29   C33   A    
C94   H50   S    
C40   C56   D    
Cr6   O6    S    
C53   C93   S    
C23   C24   A    
Cr9   O17   S    
C8    C92   S    
C39   C75   S    
C82   H26   S    
C56   C96   S    
C52   H48   S    
C72   O52   A    
Cr12  O20   S    
C6    C98   S    
C37   C53   D    
C44   C52   D    
C1    C88   S    
C51   H47   S    
C70   O46   A    
C41   H5    S    
C21   C22   A    
C3    C86   S    
C69   O45   A    
C16   H36   S    
C43   H7    S    
C4    O28   A    
Cr9   O33   S    
C1    O21   A    
C41   C49   D    
Cr1   O21   S    
C48   O32   A    
C92   H4    S    
C9    C26   A    
C17   C18   A    
C15   H35   S    
C93   O53   D    
C10   C21   A    
C25   C29   A    
C80   O44   A    
C12   C67   S    
Cr12  O36   S    
C78   O14   A    
C76   O8    A    
C30   C34   A    
C12   C27   A    
C45   O29   A    
C14   H34   S    
C28   C32   A    
Cr11  O35   S    
C90   H2    S    
C47   O31   A    
Cr10  O10   S    
C86   C90   D    
C59   C79   S    
C74   O10   A    
C85   C89   D    
C96   H52   S    
C4    C85   S    
C7    C99   S    
C51   C55   S    
C8    C84   D    
C25   C26   A    
C6    C90   S    
C27   C31   A    
C70   O50   A    
C84   H28   S    
C46   O34   A    
C47   C83   S    
C3    O27   A    
Cr11  O11   S    
Cr2   O46   S    
Cr5   O5    S    
Cr6   O30   S    
C60   H19   S    
Cr1   O45   S    
Cr10  O34   S    
Cr7   O27   S    
C100  H62   S    
C57   C77   S    
C72   O48   A    
C98   H56   S    
C5    C81   D    
C8    C100  S    
C50   H46   S    
Cr5   O25   S    
C95   H51   S    
C38   C54   D    
C16   C20   A    
C7    C91   S    
C99   H59   S    
C2    C87   S    
C35   H43   S    
Cr11  O15   S    
C20   H32   S    
C74   O6    A    
Cr5   O29   S    
Cr10  O14   S    
C33   H41   S    
C42   C50   D    
C41   C72   S    
C44   H8    S    
C10   C25   A    
C94   O54   D    
C15   C24   A    
C95   O55   D    
C65   O37   A    
C26   C30   A    
C16   C23   A    
C39   H11   S    
C100  H64   S    
C17   H29   S    
C81   H25   S    
C100  H63   S    
C31   C35   A    
C76   O12   A    
Cr6   O26   S    
C47   O35   A    
Cr8   O28   S    
C11   C68   S    
C66   O2    A    
C38   C74   S    
C10   C65   S    
C75   O7    A    
C59   H20   S    
Cr4   O48   S    
C37   C73   S    
C60   C80   S    
C58   H17   S    
Cr3   O43   S    
Cr4   O24   S    
Cr7   O51   S    
C77   O41   A    
Cr2   O42   S    
Cr7   O31   S    
Cr6   O50   S    
Cr1   O41   S    
C54   C94   S    
Cr5   O49   S    
Cr8   O8    S    
C73   O9    A    
Cr12  O12   S    
Cr12  O16   S    
C71   O47   A    
C49   H45   S    
C97   H54   S    
C77   O13   A    
Cr9   O37   S    
C64   H16   S    
C13   C17   A    
C98   H57   S    
C89   H1    S    
C46   O30   A    
C19   C20   A    
Cr9   O9    S    
C83   H27   S    
C97   H53   S    
C96   O56   D    
C88   H24   S    
C61   H13   S    
C2    O22   A    
Cr2   O2    S    
C34   H42   S    
Cr11  O19   S    
C43   C51   D    
Cr4   O4    S    
Cr3   O19   S    
C11   C28   A    
C58   C61   D    
C49   C53   S    
C29   H38   S    
C66   O38   A    
Cr1   O1    S    
C42   C71   S    
C99   H60   S    
C33   C34   A    
C13   C22   A    
C18   H30   S    
C45   C81   S    
Cr3   O3    S    
C42   H6    S    
C61   C62   S    
Cr8   O32   S    
C5    C89   S    
C62   H14   S    
Cr9   O13   S    
C58   C78   S    
C55   C95   S    
C63   C64   S    
Cr6   O18   S    
C40   C76   S    
Cr4   O44   S    
Cr11  O39   S    
Cr3   O47   S    
C63   H15   S    
Cr4   O20   S    
Cr2   O22   S    
C27   C28   A    
C44   C69   S    
C37   H9    S    
C2    O26   A    
C79   O15   A    
C68   O4    A    
C80   O16   A    
Cr2   O18   S    
C52   C56   S    
C13   H33   S    
C91   H3    S    
