data_mof_unit_51676.cif
_audit_creation_date              2013-03-05T16:13:10-0500
_audit_creation_method            fapswitch 2.2
_symmetry_space_group_name_H-M    P1
_symmetry_Int_Tables_number       1
_space_group_crystal_system       triclinic
_cell_length_a                    8.278878
_cell_length_b                    16.404607
_cell_length_c                    18.925343
_cell_angle_alpha                 112.261015
_cell_angle_beta                  91.115668
_cell_angle_gamma                 84.034421
_cell_volume                      2365.27965564

loop_
_atom_site_label
_atom_site_type_symbol
_atom_site_description
_atom_site_fract_x
_atom_site_fract_y
_atom_site_fract_z
_atom_type_partial_charge
P1    P     P_3+3 0.582960 0.413890 0.320860 0.623675
O1    O     O_2   0.402610 0.439360 0.314250 -0.338525
O2    O     O_3   0.648560 0.446300 0.404730 -0.348506
O3    O     O_3   0.108870 0.604000 0.387500 -0.295763
O4    O     O_2   0.242740 0.527781 0.249934 -0.424125
O5    O     O_3   0.584456 0.299368 0.274834 -0.490233
O6    O     O_3   0.139302 0.692680 0.283448 -0.574147
C1    C     C_3   0.016061 0.810957 0.244023 0.438551
P2    P     P_3+3 0.071690 0.707860 0.593450 0.511444
P3    P     P_3+3 0.496609 0.766002 0.455480 0.556184
O7    O     O_2   0.241370 0.719440 0.573960 -0.395381
O8    O     O_3   0.507090 0.652150 0.432150 -0.383332
O9    O     O_2   0.338892 0.808552 0.503432 -0.329813
O10   O     O_3   0.066920 0.743338 0.693677 -0.532244
O11   O     O_3   0.465739 0.785062 0.371040 -0.420359
C2    C     C_3   0.537026 0.710995 0.309722 0.547377
H1    H     H_    0.470690 0.652343 0.300302 0.029766
H2    H     H_    0.666246 0.695061 0.320738 -0.015354
C3    C     C_3   0.527832 0.729720 0.236694 0.023729
H3    H     H_    0.596652 0.674269 0.190099 0.020882
H4    H     H_    0.399301 0.734356 0.220110 0.131102
C4    C     C_3   0.618989 0.736138 0.661922 0.191967
H5    H     H_    0.751049 0.727733 0.651015 0.114226
H6    H     H_    0.556278 0.702732 0.607825 0.087686
C5    C     C_3   0.554736 0.834435 0.690826 -0.052600
H7    H     H_    0.561546 0.859672 0.644857 0.056760
H8    H     H_    0.424274 0.842135 0.706407 0.176482
Ba1   Ba    Ba6+2 0.333520 0.539550 0.472180 1.683835
C6    C     C_3   0.594930 0.254569 0.324628 0.260924
H9    H     H_    0.493297 0.279446 0.367395 -0.007477
H10   H     H_    0.710953 0.264350 0.354409 0.130654
C7    C     C_3   0.586421 0.155360 0.275673 0.477110
H11   H     H_    0.456997 0.141810 0.272488 0.036520
C8    C     C_3   0.165519 0.686623 0.720318 0.702426
H12   H     H_    0.284371 0.666179 0.689183 -0.065890
C9    C     C_3   0.198093 0.735530 0.806300 0.348488
H13   H     H_    0.276720 0.688081 0.824588 -0.056850
P4    P     P_3+3 0.606720 0.586180 0.679160 0.518292
O12   O     O_2   0.787080 0.560670 0.685800 -0.256824
O13   O     O_3   0.541120 0.553770 0.595290 -0.428475
O14   O     O_3   0.080800 0.396070 0.612520 -0.391666
O15   O     O_3   0.588414 0.702538 0.717569 -0.532761
P5    P     P_3+3 0.705104 0.235614 0.549917 0.515540
O16   O     O_3   0.164600 0.390590 0.443970 -0.350479
O17   O     O_3   0.682580 0.347920 0.567870 -0.413303
O18   O     O_2   0.851815 0.195444 0.494444 -0.305400
O19   O     O_3   0.765250 0.220473 0.633747 -0.494154
Ba2   Ba    Ba6+2 0.856270 0.460520 0.527840 1.695492
P6    P     P_3+3 0.096008 0.593364 0.291545 0.515284
C10   C     C_3   0.993971 0.747050 0.285409 0.549425
H14   H     H_    0.895756 0.707404 0.254840 -0.058612
H15   H     H_    0.898621 0.852300 0.248624 0.163900
O20   O     O_3   0.025080 0.609480 0.556050 -0.410689
C11   C     C_3   0.131176 0.241623 0.256636 1.115687
C12   C     C_3   0.150201 0.161954 0.179827 -0.686077
H16   H     H_    0.070477 0.111417 0.179769 0.263906
H17   H     H_    0.115289 0.181395 0.131252 0.285621
H18   H     H_    0.277294 0.130699 0.170291 0.215282
P7    P     P_3+3 0.135071 0.276020 0.409955 0.550853
O21   O     O_2   0.948320 0.280590 0.426090 -0.324182
O22   O     O_3   0.159013 0.205494 0.312702 -0.619645
C13   C     C_3   0.650011 0.266806 0.692947 1.086085
H19   H     H_    0.526991 0.278772 0.671757 -0.248255
C14   C     C_3   0.634286 0.212612 0.741811 -0.689709
H20   H     H_    0.748963 0.207501 0.771801 0.301535
H21   H     H_    0.536922 0.245477 0.785928 0.209376
H22   H     H_    0.605465 0.145027 0.705377 0.206791
P8    P     P_3+3 0.097167 0.401240 0.705036 0.556187
C15   C     C_3   0.200509 0.237277 0.677635 0.355268
H23   H     H_    0.292385 0.261708 0.721899 0.002117
O23   O     O_2   0.945996 0.463208 0.746300 -0.290870
O24   O     O_3   0.056598 0.295673 0.698237 -0.400864
H24   H     H_    0.250146 0.234155 0.622651 -0.073922
C16   C     C_3   0.167361 0.142776 0.669122 0.561035
H25   H     H_    0.163626 0.101857 0.607020 0.029742
C17   C     C_R   0.518359 0.453942 0.041105 0.009576
C18   C     C_R   0.441480 0.409594 0.080029 -0.067814
C19   C     C_R   0.297370 0.372377 0.051225 0.330760
C20   C     C_R   0.226851 0.384587 0.988303 -0.168056
C21   C     C_R   0.307876 0.422288 0.945080 -0.069158
C22   C     C_R   0.453340 0.458561 0.972147 -0.000064
C23   C     C_R   0.247207 0.419828 0.874125 0.254956
C24   C     C_R   0.331027 0.456619 0.828793 -0.170473
C25   C     C_R   0.472197 0.500492 0.859769 0.024991
C26   C     C_R   0.532864 0.499680 0.931146 0.016258
C27   C     C_R   0.284445 0.449744 0.753502 0.181710
C28   C     C_R   0.377330 0.485297 0.712234 -0.440757
C29   C     C_R   0.505875 0.536494 0.743545 0.188804
C30   C     C_R   0.554378 0.544657 0.819919 -0.141210
C31   C     C_R   0.662116 0.491445 0.070154 0.038170
C32   C     C_R   0.721610 0.491580 0.141455 0.016186
C33   C     C_R   0.636204 0.453223 0.183642 -0.146942
C34   C     C_R   0.504518 0.406970 0.148922 0.017077
H26   H     H_    0.110660 0.359457 0.971855 0.230348
H27   H     H_    0.344644 0.475496 0.654228 0.143746
H28   H     H_    0.443928 0.373035 0.177596 0.186970
C35   C     C_R   0.687034 0.591589 0.857308 0.474110
C36   C     C_R   0.755070 0.581842 0.922973 0.048257
C37   C     C_R   0.676798 0.537494 0.960912 -0.006868
C38   C     C_R   0.743165 0.531588 0.029205 0.043329
C39   C     C_R   0.904276 0.614378 0.950569 -0.001332
C40   C     C_R   0.973592 0.604204 0.014999 -0.163071
C41   C     C_R   0.891831 0.565280 0.056187 0.126137
C42   C     C_R   0.865342 0.530919 0.170679 -0.063142
C43   C     C_R   0.954879 0.561514 0.124624 -0.187636
C44   C     C_R   0.908456 0.543725 0.246883 0.060097
C45   C     C_R   0.805261 0.519469 0.292470 0.199617
C46   C     C_R   0.679998 0.466300 0.260379 0.226350
H29   H     H_    0.972081 0.643924 0.920107 0.196316
H30   H     H_    0.090972 0.627590 0.032819 0.153666
H31   H     H_    0.070109 0.586902 0.143347 0.153582
C47   C     C_2   0.393806 0.244035 0.501212 -0.476270
C48   C     C_R   0.799348 0.751611 0.519305 -0.486527
C49   C     C_2   0.218079 0.127091 0.442025 -0.104691
C50   C     C_2   0.245147 0.211993 0.460484 0.217291
C51   C     C_2   0.517884 0.187351 0.507992 0.081066
C52   C     C_3   0.506988 0.087938 0.470401 -0.052313
C53   C     C_3   0.329659 0.066450 0.468266 0.113046
C54   C     C_2   0.630550 0.028860 0.495492 0.350947
C55   C     C_2   0.582820 0.968593 0.521792 -0.243348
C56   C     C_R   0.830805 0.931853 0.583729 0.177056
C57   C     C_R   0.697838 0.902770 0.537722 0.047547
C58   C     C_R   0.948988 0.872511 0.595935 -0.161944
C59   C     C_R   0.934380 0.782074 0.563118 0.338075
C60   C     C_R   0.678169 0.811378 0.507676 0.185510
H32   H     H_    0.117537 0.100283 0.406095 0.234492
H33   H     H_    0.049223 0.897391 0.632687 0.175070
H34   H     H_    0.403766 0.314665 0.522407 0.168701
H35   H     H_    0.783882 0.681960 0.498469 0.203229
H36   H     H_    0.455095 0.962001 0.525924 0.186446
N1    N     N_R   0.938949 0.797551 0.363884 0.217035
O25   O     O_R   0.796062 0.841611 0.376801 -0.401005
O26   O     O_R   0.034322 0.803399 0.420606 -0.313514
N2    N     N_R   0.646078 0.888002 0.755543 0.312881
O27   O     O_R   0.799070 0.894139 0.746746 -0.328364
O28   O     O_R   0.569544 0.941965 0.817648 -0.190592
N3    N     N_R   0.677803 0.099094 0.309290 0.230991
O29   O     O_R   0.833811 0.102469 0.316930 -0.320074
O30   O     O_R   0.615244 0.029640 0.309472 -0.322566
O31   O     O_3   0.649958 0.133241 0.201524 -0.621344
H37   H     H_    0.561385 0.147793 0.170794 0.360043
O32   O     O_3   0.085330 0.612857 0.712656 -0.721512
H38   H     H_    0.112417 0.567965 0.660986 0.331655
N4    N     N_R   0.140494 0.871689 0.276572 0.248056
O33   O     O_R   0.203894 0.881585 0.342324 -0.298056
O34   O     O_R   0.172990 0.925077 0.243754 -0.300449
N5    N     N_R   0.282830 0.813567 0.819784 0.221842
O35   O     O_R   0.416046 0.822671 0.858306 -0.324925
O36   O     O_R   0.208630 0.881841 0.809167 -0.278699
N6    N     N_R   0.049836 0.762491 0.854029 0.269164
O37   O     O_R   0.064168 0.787065 0.927580 -0.340672
O38   O     O_R   0.913579 0.785639 0.827981 -0.226455
N7    N     N_R   0.968658 0.288655 0.264305 0.187043
O39   O     O_R   0.873029 0.271152 0.206127 -0.379115
O40   O     O_R   0.937750 0.362377 0.322192 -0.458045
O41   O     O_3   0.248687 0.298319 0.260763 -0.746684
H39   H     H_    0.213948 0.330347 0.226993 0.327852
O42   O     O_3   0.048296 0.763142 0.165900 -0.752984
H40   H     H_    0.159471 0.732331 0.160641 0.308129
O43   O     O_3   0.592303 0.809173 0.247983 -0.613775
H41   H     H_    0.584475 0.816595 0.198329 0.361145
O44   O     O_3   0.703945 0.347473 0.739360 -0.680272
H42   H     H_    0.698897 0.383912 0.707931 0.331921
N8    N     N_R   0.295052 0.102391 0.703816 0.190758
O45   O     O_R   0.313437 0.134850 0.777383 -0.282762
O46   O     O_R   0.368620 0.024854 0.663973 -0.468153
O47   O     O_3   0.017419 0.144439 0.702999 -0.626905
H43   H     H_    0.995137 0.081871 0.688104 0.334680
N9    N     N_R   0.227913 0.315572 0.081130 0.216617
O48   O     O_R   0.317043 0.245650 0.081627 -0.386082
O49   O     O_R   0.071124 0.321239 0.090082 -0.391733
N10   N     N_R   0.105022 0.374760 0.848719 0.244062
O50   O     O_R   0.963898 0.420071 0.867482 -0.372499
O51   O     O_R   0.113678 0.290837 0.836386 -0.318290
O52   O     O_3   0.747605 0.651522 0.833575 -0.656811
H44   H     H_    0.656104 0.697938 0.840500 0.371413
O53   O     O_3   0.816569 0.555063 0.370411 -0.732284
H45   H     H_    0.898947 0.516004 0.384288 0.382484
N11   N     N_R   0.799649 0.026600 0.477411 0.279840
O54   O     O_R   0.845680 0.009260 0.407619 -0.259739
O55   O     O_R   0.904886 0.052282 0.531169 -0.401845

loop_
_geom_bond_atom_site_label_1
_geom_bond_atom_site_label_2
_geom_bond_distance
_ccdc_geom_bond_type
P4    O13   1.576106 S    
C28   C29   1.404717 A    
C39   C40   1.396791 A    
C35   O52   1.365908 S    
P8    C27   1.877874 S    
N9    O48   1.300867 A    
C3    H3    1.110756 S    
C32   C42   1.414880 A    
C12   H16   1.111740 S    
C1    O42   1.402016 S    
O19   C13   1.410280 S    
C42   C44   1.420360 A    
C35   C36   1.411304 A    
C58   C59   1.391985 A    
C4    O15   1.398639 S    
C18   C19   1.402586 A    
N3    O30   1.300801 A    
C6    H9    1.111075 S    
C48   H35   1.079125 S    
O8    Ba1   2.775814 S    
C55   H36   1.081360 S    
C3    O43   1.399472 S    
N8    O45   1.300777 A    
C3    H4    1.106725 S    
C9    H13   1.113292 S    
C7    O31   1.407436 S    
C6    C7    1.546266 S    
P3    O11   1.750115 S    
C52   C54   1.528020 S    
C11   O41   1.395601 S    
P4    O12   1.524189 D    
C49   H32   1.084491 S    
C48   C60   1.402361 A    
C44   C45   1.411395 A    
Ba1   O13   2.819996 S    
O16   P7    1.783057 S    
C39   H29   1.078552 S    
O11   C2    1.407350 S    
O2    Ba2   2.820543 S    
P2    C59   1.822189 S    
C51   C52   1.524113 S    
C8    H12   1.110005 S    
C42   C43   1.412455 A    
C13   C14   1.521220 S    
C33   C46   1.430461 A    
C8    O32   1.398702 S    
N5    O35   1.300224 A    
N10   O51   1.300653 A    
C2    H1    1.111400 S    
C4    C5    1.532038 S    
C28   H27   1.080738 S    
P1    Ba1   3.404101 S    
C45   C46   1.402571 A    
C15   H24   1.107363 S    
N7    O40   1.292687 A    
P3    C60   1.845784 S    
C1    H15   1.111012 S    
P4    Ba2   3.404613 S    
C43   H31   1.080134 S    
P7    O21   1.570416 D    
O47   H43   0.992525 S    
C45   O53   1.370753 S    
N9    O49   1.301453 A    
O4    P6    1.541748 D    
C15   H23   1.106846 S    
C54   N11   1.441039 S    
C11   N7    1.460687 S    
C31   C38   1.408270 A    
C16   O47   1.401230 S    
O3    Ba1   2.811431 S    
C55   C57   1.478289 S    
Ba2   O21   2.878275 S    
O14   P8    1.723899 S    
C4    H5    1.101288 S    
O31   H37   0.992530 S    
Ba2   O20   2.811032 S    
C23   N10   1.432812 S    
P7    O22   1.765957 S    
C56   C58   1.386336 A    
C16   H25   1.112672 S    
P1    O5    1.744737 S    
C14   H22   1.109498 S    
C25   C26   1.436322 A    
O6    P6    1.766083 S    
C20   H26   1.079678 S    
N4    O34   1.301091 A    
C32   C33   1.424212 A    
C19   C20   1.388651 A    
N4    O33   1.299816 A    
N2    O28   1.300267 A    
C5    H7    1.100499 S    
Ba1   O16   2.811564 S    
C19   N9    1.429330 S    
C20   C21   1.411567 A    
P4    C29   1.944140 S    
P1    O2    1.576106 S    
C14   H21   1.110108 S    
C15   O24   1.409635 S    
P2    O10   1.760667 S    
C13   H19   1.113017 S    
C26   C37   1.408835 A    
P5    C51   1.841211 S    
P2    O7    1.508055 D    
C9    N5    1.458865 S    
C58   H33   1.082510 S    
C24   C25   1.433912 A    
P8    O24   1.754662 S    
C24   C27   1.434480 A    
C10   H14   1.106973 S    
C15   C16   1.549838 S    
C41   C43   1.407609 A    
C2    H2    1.109381 S    
C17   C18   1.413351 A    
C54   C55   1.357575 D    
C5    N2    1.459705 S    
P5    O17   1.732404 S    
C56   C57   1.398086 A    
C49   C53   1.501670 S    
P3    O8    1.741772 S    
O53   H45   0.987088 S    
C21   C23   1.412109 A    
C36   C37   1.405901 A    
C34   H28   1.074029 S    
C12   H17   1.105888 S    
O42   H40   0.990596 S    
N6    O38   1.300319 A    
C40   H30   1.082574 S    
P2    O20   1.583618 S    
C25   C30   1.446721 A    
N1    O25   1.296612 A    
C1    C10   1.553560 S    
C47   C51   1.350201 D    
N10   O50   1.295881 A    
O44   H42   0.987972 S    
O17   Ba2   2.776404 S    
O13   Ba2   2.932150 S    
C11   C12   1.540358 S    
Ba1   Ba2   4.545668 S    
N5    O36   1.301851 A    
C27   C28   1.415329 A    
O6    C10   1.413550 S    
C21   C22   1.400271 A    
N1    O26   1.299896 A    
P3    O9    1.546758 D    
C17   C22   1.427498 A    
O10   C8    1.402742 S    
Ba1   O20   2.919816 S    
C49   C50   1.343608 D    
P6    C44   1.865123 S    
C11   O22   1.403130 S    
C5    H8    1.106932 S    
C36   C39   1.408632 A    
N3    O29   1.301403 A    
N2    O27   1.299828 A    
N6    O37   1.300981 A    
C37   C38   1.427566 A    
O3    P6    1.759507 S    
O43   H41   0.992349 S    
C57   C60   1.413793 A    
N8    O46   1.299072 A    
C7    N3    1.452629 S    
C6    H10   1.099303 S    
O52   H44   0.989523 S    
C52   C53   1.541299 S    
C7    H11   1.112637 S    
C16   N8    1.464438 S    
C9    N6    1.464821 S    
C31   C32   1.426723 A    
C13   O44   1.396053 S    
C48   C59   1.397526 A    
O7    Ba1   2.878089 S    
P8    O23   1.543282 D    
P1    O1    1.523882 D    
C14   H20   1.108623 S    
C18   C34   1.409084 A    
C33   C34   1.400843 A    
O14   Ba2   2.810826 S    
C4    H6    1.109671 S    
C38   C41   1.408609 A    
C40   C41   1.400364 A    
P5    O18   1.539737 D    
C47   H34   1.084734 S    
C10   N1    1.454386 S    
P1    C46   1.902557 S    
N11   O54   1.297365 A    
C1    N4    1.468654 S    
P4    O15   1.757222 S    
O5    C6    1.394269 S    
O41   H39   0.991502 S    
C29   C30   1.452688 A    
C8    C9    1.550182 S    
O2    Ba1   2.931381 S    
P7    C50   1.837466 S    
C23   C24   1.443733 A    
C12   H18   1.108016 S    
C30   C35   1.425595 A    
O32   H38   0.988668 S    
O1    Ba1   2.848005 S    
N7    O39   1.302032 A    
P5    O19   1.751780 S    
C47   C50   1.475008 S    
C22   C26   1.413976 A    
O16   Ba2   2.919047 S    
P2    Ba1   3.426093 S    
C17   C31   1.402727 A    
O12   Ba2   2.848510 S    
N11   O55   1.299491 A    
C2    C3    1.524138 S    
