data_mof_unit_32907.cif
_audit_creation_date              2012-12-10T17:24:16-0500
_audit_creation_method            fapswitch 2.2
_symmetry_space_group_name_H-M    P1
_symmetry_Int_Tables_number       1
_space_group_crystal_system       triclinic
_cell_length_a                    10.156743
_cell_length_b                    10.767933
_cell_length_c                    16.856834
_cell_angle_alpha                 91.868965
_cell_angle_beta                  75.294276
_cell_angle_gamma                 95.814054
_cell_volume                      1773.97362655

loop_
_atom_site_label
_atom_site_type_symbol
_atom_type_description
_atom_site_fract_x
_atom_site_fract_y
_atom_site_fract_z
_atom_type_partial_charge
C1    C     C_R   0.557600 0.732827 0.491734 0.954439
C2    C     C_R   0.520148 0.498466 0.345615 0.890104
C3    C     C_R   0.465374 0.519030 0.740838 -0.128843
C4    C     C_R   0.539116 0.504298 0.258396 -0.117833
C5    C     C_R   0.457349 0.412781 0.787483 -0.367767
C6    C     C_R   0.461660 0.417292 0.221720 -0.368334
C7    C     C_R   0.440374 0.424081 0.872049 0.547984
C8    C     C_R   0.471635 0.423729 0.137859 0.543146
C9    C     C_R   0.427333 0.543096 0.908544 0.067082
C10   C     C_R   0.562725 0.518027 0.091856 0.052327
C11   C     C_R   0.427391 0.648162 0.862355 -0.337100
C12   C     C_R   0.443340 0.266948 0.502590 0.939345
C13   C     C_R   0.645743 0.600679 0.127947 -0.319408
C14   C     C_R   0.447009 0.637015 0.778094 0.014410
C15   C     C_R   0.634567 0.594515 0.211476 0.004701
C16   C     C_2   0.440377 0.561825 0.991796 0.357375
C17   C     C_2   0.560110 0.540567 0.007827 0.336631
C18   C     C_1   0.716971 0.684898 0.248229 0.170504
C19   C     C_1   0.452573 0.747961 0.730877 0.153507
C20   C     C_3   0.740960 0.634758 0.910924 0.039857
C21   C     C_3   0.812098 0.612879 0.820853 -0.301199
C22   C     C_3   0.880854 0.734381 0.778691 -0.954159
C23   C     C_2   0.591955 0.864835 0.477893 -0.337394
C24   C     C_3   0.326404 0.701618 0.081778 0.021415
C25   C     C_3   0.223951 0.707413 0.165349 -0.292061
C26   C     C_3   0.214448 0.841337 0.196953 -0.957839
C27   C     C_3   0.259609 0.320531 0.135340 0.178466
C28   C     C_3   0.216736 0.187432 0.167264 -0.396451
C29   C     C_3   0.063822 0.168858 0.208178 -0.958711
C30   C     C_3   0.541913 0.250467 0.897295 0.154610
C31   C     C_3   0.495074 0.115856 0.878014 -0.363022
C32   C     C_3   0.614464 0.034956 0.856779 -0.977568
C33   C     C_2   0.412549 0.134130 0.494976 -0.375547
C34   C     C_2   0.493533 0.932333 0.469175 -0.142166
C35   C     C_2   0.516981 0.065344 0.467019 -0.146381
C36   C     C_2   0.925861 0.510776 0.506742 -0.124715
C37   C     C_2   0.074181 0.489378 0.493170 -0.132367
C38   C     C_R   0.480469 0.504128 0.654259 0.905685
H1    H     H_    0.463982 0.321734 0.758198 0.150198
H2    H     H_    0.883632 0.580752 0.551160 0.164908
H3    H     H_    0.110006 0.617224 0.574589 0.163084
H4    H     H_    0.889983 0.382717 0.425452 0.158250
H5    H     H_    0.819193 0.669677 0.944045 0.159888
H6    H     H_    0.670029 0.708566 0.914198 0.116116
H7    H     H_    0.890342 0.546223 0.816717 0.229056
H8    H     H_    0.735725 0.571147 0.788280 0.227269
H9    H     H_    0.803567 0.800984 0.780089 0.269400
H10   H     H_    0.932114 0.714791 0.713704 0.255457
H11   H     H_    0.958817 0.777423 0.809654 0.268892
H12   H     H_    0.394010 0.344813 0.258529 0.145887
H13   H     H_    0.296282 0.760839 0.037709 0.156575
H14   H     H_    0.429190 0.739459 0.088983 0.122581
H15   H     H_    0.121232 0.666992 0.160242 0.233411
H16   H     H_    0.256173 0.651113 0.210021 0.218501
H17   H     H_    0.315815 0.883837 0.202963 0.264491
H18   H     H_    0.140530 0.842149 0.258064 0.272576
H19   H     H_    0.178190 0.897639 0.154170 0.265498
H20   H     H_    0.205755 0.335733 0.087259 0.205505
H21   H     H_    0.224442 0.389699 0.185113 0.117722
H22   H     H_    0.241413 0.120666 0.115134 0.234757
H23   H     H_    0.419728 0.739369 0.891445 0.140901
H24   H     H_    0.274472 0.166989 0.212346 0.223782
H25   H     H_    0.037431 0.233637 0.261261 0.258678
H26   H     H_    0.035675 0.071598 0.230654 0.276535
H27   H     H_    0.003805 0.185952 0.163615 0.271436
H28   H     H_    0.588786 0.249890 0.950091 0.202351
H29   H     H_    0.624183 0.289886 0.844418 0.125488
H30   H     H_    0.417090 0.075629 0.932125 0.231938
H31   H     H_    0.447462 0.114750 0.825458 0.226549
H32   H     H_    0.692757 0.072077 0.801911 0.273384
H33   H     H_    0.577056 0.938166 0.843152 0.266174
H34   H     H_    0.714198 0.673491 0.091783 0.147777
H35   H     H_    0.661938 0.032501 0.909185 0.262672
H36   H     H_    0.622500 0.106488 0.448920 0.188486
H37   H     H_    0.390704 0.890613 0.470804 0.187696
H38   H     H_    0.307326 0.092534 0.513194 0.152997
H39   H     H_    0.694450 0.906982 0.476444 0.150286
H40   H     H_    0.116435 0.419473 0.448708 0.162208
N1    N     N_2   0.846390 0.448330 0.467170 -0.191193
N2    N     N_2   0.153610 0.551670 0.532830 -0.191167
N3    N     N_1   0.783013 0.757233 0.277608 -0.215680
N4    N     N_1   0.457018 0.836944 0.693228 -0.211359
O1    O     O_R   0.430310 0.692580 0.506610 -0.610276
O2    O     O_3   0.323717 0.576671 0.053763 -0.662767
O3    O     O_3   0.402081 0.334433 0.098134 -0.631080
O4    O     O_3   0.426730 0.320057 0.921073 -0.630417
O5    O     O_R   0.569690 0.307420 0.493390 -0.610551
O6    O     O_R   0.652740 0.659410 0.485540 -0.608529
O7    O     O_R   0.347260 0.340590 0.514460 -0.612150
O8    O     O_R   0.375640 0.518570 0.627580 -0.599335
O9    O     O_R   0.624360 0.481430 0.372420 -0.606052
O10   O     O_R   0.598070 0.485390 0.606510 -0.613794
O11   O     O_R   0.401930 0.514610 0.393490 -0.617250
O12   O     O_3   0.674856 0.519819 0.945499 -0.666946
Zn1   Zn    Zn3+2 0.351480 0.522150 0.514070 0.947801
Zn2   Zn    Zn3+2 0.648520 0.477850 0.485930 0.948665

loop_
_geom_bond_atom_site_label_1
_geom_bond_atom_site_label_2
_ccdc_geom_bond_type
C24   H14   S    
C15   C18   S    
C22   H10   S    
C24   C25   S    
O6    Zn2   S    
C35   H36   S    
O10   Zn2   S    
C26   H17   S    
H3    N2    S    
C29   H25   S    
O8    Zn1   S    
C28   C29   S    
C9    C16   S    
C25   H15   S    
C8    O3    S    
C30   C31   S    
C11   C14   A    
C7    O4    S    
C10   C17   S    
C38   O10   A    
C16   O2    S    
C18   N3    T    
C34   C35   S    
C27   O3    S    
O9    Zn2   S    
C3    C38   S    
C16   C17   D    
C10   C13   A    
C30   O4    S    
C19   N4    T    
C30   H29   S    
C34   H37   S    
C1    O6    A    
C22   H9    S    
C29   H26   S    
H4    N1    S    
O11   Zn1   S    
C21   C22   S    
C20   H6    S    
C32   H33   S    
C21   H7    S    
C28   H22   S    
C31   H30   S    
C37   N2    D    
C12   O7    A    
C36   H2    S    
C25   H16   S    
C4    C6    A    
C32   H35   S    
C5    C7    A    
C32   H32   S    
C3    C5    A    
C25   C26   S    
C27   H20   S    
C6    H12   S    
O7    Zn1   S    
C2    C4    S    
C33   H38   S    
C31   C32   S    
C23   C34   D    
O1    Zn1   S    
O5    Zn2   S    
C23   H39   S    
N2    Zn1   S    
C9    C11   A    
C30   H28   S    
C3    C14   A    
C22   H11   S    
C29   H27   S    
C1    C23   S    
C13   C15   A    
C20   H5    S    
C21   H8    S    
C7    C9    A    
C20   O12   S    
C36   C37   S    
C12   O5    A    
C14   C19   S    
C2    O11   A    
C11   H23   S    
C36   N1    D    
C26   H18   S    
C6    C8    A    
C13   H34   S    
C1    O1    A    
C37   H40   S    
C38   O8    A    
C4    C15   A    
C5    H1    S    
C24   O2    S    
N1    Zn2   S    
C27   H21   S    
C24   H13   S    
C33   C35   D    
C2    O9    A    
C26   H19   S    
C31   H31   S    
C20   C21   S    
C8    C10   A    
C27   C28   S    
C17   O12   S    
C12   C33   S    
C28   H24   S    
