data_mof_unit_24459.cif
_audit_creation_date              2012-12-11T17:41:18-0500
_audit_creation_method            fapswitch 2.2
_symmetry_space_group_name_H-M    P1
_symmetry_Int_Tables_number       1
_space_group_crystal_system       triclinic
_cell_length_a                    15.498942
_cell_length_b                    15.069258
_cell_length_c                    15.013236
_cell_angle_alpha                 109.803497
_cell_angle_beta                  121.248168
_cell_angle_gamma                 58.84727
_cell_volume                      2553.54721815

loop_
_atom_site_label
_atom_site_type_symbol
_atom_type_description
_atom_site_fract_x
_atom_site_fract_y
_atom_site_fract_z
_atom_type_partial_charge
C1    C     C_R   0.755847 0.992673 0.791100 -0.118269
C2    C     C_R   0.196639 0.062308 0.227126 -0.132797
C3    C     C_R   0.206508 0.300547 0.562953 -0.012964
C4    C     C_R   0.865073 0.726372 0.520261 -0.007405
C5    C     C_R   0.498548 0.298128 0.431321 0.051111
C6    C     C_R   0.495909 0.676858 0.459725 0.039962
C7    C     C_R   0.496523 0.924808 0.791481 0.003843
C8    C     C_R   0.496705 0.967676 0.172760 0.023037
C9    C     C_R   0.732888 0.595875 0.811373 0.582600
C10   C     C_R   0.267210 0.291461 0.093943 0.576613
C11   C     C_R   0.646536 0.682667 0.833014 -0.193607
C12   C     C_R   0.345821 0.193448 0.074956 -0.173250
C13   C     C_R   0.669103 0.745220 0.928666 0.033296
C14   C     C_R   0.313012 0.114285 0.008555 0.027148
C15   C     C_R   0.780337 0.718958 0.003533 -0.171175
C16   C     C_R   0.199550 0.135130 0.958016 -0.178153
C17   C     C_R   0.867013 0.632251 0.982651 -0.142160
C18   C     C_R   0.120573 0.232786 0.976473 -0.153207
C19   C     C_R   0.843814 0.570842 0.887131 -0.290617
C20   C     C_R   0.153906 0.310690 0.044325 -0.291877
C21   C     C_R   0.575128 0.855998 0.046920 -0.252963
C22   C     C_R   0.393809 0.985692 0.892026 -0.245246
C23   C     C_R   0.241261 0.289970 0.489482 -0.195592
C24   C     C_R   0.801309 0.725821 0.559136 -0.209457
C25   C     C_R   0.489494 0.944241 0.068505 0.066005
C26   C     C_R   0.486940 0.908240 0.874777 0.042277
C27   C     C_R   0.397511 0.010188 0.989848 0.058464
C28   C     C_R   0.576173 0.837557 0.949877 0.075119
C29   C     C_2   0.142800 0.399192 0.608457 -0.195962
C30   C     C_2   0.980168 0.651749 0.538637 -0.198822
C31   C     C_2   0.134207 0.489238 0.600343 -0.094231
C32   C     C_2   0.041128 0.584797 0.610953 -0.096391
C33   C     C_2   0.847730 0.116952 0.899017 -0.209583
C34   C     C_2   0.016092 0.046171 0.156286 -0.218910
C35   C     C_R   0.250817 0.796119 0.589427 -0.130227
C36   C     C_R   0.738908 0.124810 0.296510 -0.099612
C37   C     C_R   0.334416 0.711670 0.562276 -0.121058
C38   C     C_R   0.650820 0.215754 0.310683 -0.135502
C39   C     C_R   0.308262 0.664627 0.459013 0.110593
C40   C     C_R   0.671746 0.295448 0.388862 0.105617
C41   C     C_R   0.196639 0.700665 0.384128 -0.185769
C42   C     C_R   0.782639 0.282838 0.451658 -0.170173
C43   C     C_R   0.113157 0.785089 0.411558 -0.145348
C44   C     C_R   0.870540 0.191889 0.436976 -0.110477
C45   C     C_R   0.591874 0.217406 0.488418 -0.128233
C46   C     C_R   0.405664 0.771820 0.441990 -0.131346
C47   C     C_R   0.140291 0.833064 0.513998 -0.087230
C48   C     C_R   0.848721 0.112874 0.359611 -0.067625
C49   C     C_R   0.397947 0.480417 0.413191 -0.193254
C50   C     C_R   0.574621 0.488542 0.415900 -0.206422
C51   C     C_R   0.490627 0.388851 0.409542 0.121953
C52   C     C_R   0.487845 0.579504 0.432807 0.098470
C53   C     C_R   0.577933 0.391340 0.404882 0.030264
C54   C     C_R   0.397219 0.575468 0.429820 0.006898
C55   C     C_2   0.862363 0.104127 0.990567 -0.101856
C56   C     C_2   0.956916 0.114525 0.085302 -0.104074
C57   C     C_R   0.406896 0.977804 0.707931 -0.030262
C58   C     C_R   0.591624 0.955157 0.266587 -0.132898
C59   C     C_R   0.407467 0.286094 0.408869 -0.125091
C60   C     C_R   0.591190 0.693669 0.526163 -0.081507
C61   C     C_R   0.590318 0.910750 0.788621 -0.128972
C62   C     C_R   0.405836 0.021962 0.194977 -0.112980
C63   C     C_R   0.238298 0.200078 0.579384 0.515286
C64   C     C_R   0.802880 0.816743 0.470167 0.498269
C65   C     C_R   0.756840 0.084297 0.700811 -0.123928
C66   C     C_R   0.195425 0.971815 0.316353 -0.165985
C67   C     C_R   0.787114 0.068180 0.800876 0.135745
C68   C     C_R   0.132650 0.024757 0.228272 0.154460
H1    H     H_    0.768484 0.959648 0.852703 0.092801
H2    H     H_    0.168689 0.119055 0.178383 0.093829
H3    H     H_    0.983032 0.996384 0.153584 0.128503
H4    H     H_    0.891882 0.152976 0.896880 0.127322
H5    H     H_    0.912080 0.503984 0.872370 0.119699
H6    H     H_    0.091537 0.385871 0.057726 0.118299
H7    H     H_    0.561422 0.701459 0.775183 0.124294
H8    H     H_    0.432809 0.178392 0.112201 0.123517
H9    H     H_    0.800247 0.766279 0.077518 0.116479
H10   H     H_    0.172729 0.075251 0.905689 0.128101
H11   H     H_    0.952455 0.612740 0.040578 0.125003
H12   H     H_    0.033364 0.248088 0.938237 0.130399
H13   H     H_    0.642194 0.803350 0.106609 0.132329
H14   H     H_    0.324576 0.040153 0.834794 0.153829
H15   H     H_    0.011435 0.590012 0.664817 0.129134
H16   H     H_    0.181453 0.491260 0.567833 0.133326
H17   H     H_    0.010881 0.643517 0.484260 0.124942
H18   H     H_    0.092560 0.399699 0.639065 0.118787
H19   H     H_    0.075608 0.898566 0.534984 0.123078
H20   H     H_    0.916890 0.042446 0.348583 0.097096
H21   H     H_    0.228131 0.351135 0.455601 0.120855
H22   H     H_    0.828215 0.674489 0.612995 0.118904
H23   H     H_    0.271748 0.832880 0.668891 0.112618
H24   H     H_    0.721964 0.063611 0.236585 0.107568
H25   H     H_    0.419573 0.683221 0.620915 0.127011
H26   H     H_    0.566306 0.224019 0.261237 0.134419
H27   H     H_    0.174802 0.664325 0.304451 0.115598
H28   H     H_    0.801259 0.342600 0.512960 0.113911
H29   H     H_    0.027465 0.813461 0.353366 0.115971
H30   H     H_    0.955668 0.182502 0.485894 0.131016
H31   H     H_    0.330986 0.479315 0.417761 0.115836
H32   H     H_    0.641013 0.493549 0.414116 0.122254
H33   H     H_    0.678094 0.197513 0.512160 0.118607
H34   H     H_    0.319519 0.788134 0.391028 0.123048
H35   H     H_    0.322587 0.986785 0.676605 0.136707
H36   H     H_    0.676895 0.918035 0.277105 0.156893
H37   H     H_    0.322275 0.326127 0.353888 0.107522
H38   H     H_    0.676498 0.636122 0.557869 0.115340
H39   H     H_    0.676172 0.864595 0.837305 0.110922
H40   H     H_    0.319601 0.041707 0.141668 0.118138
H41   H     H_    0.769738 0.137436 0.680571 0.102908
H42   H     H_    0.164044 0.946799 0.348616 0.107912
H43   H     H_    0.988993 0.164321 0.086608 0.127971
H44   H     H_    0.819310 0.067660 0.993676 0.128352
N1    N     N_R   0.705410 0.966550 0.689210 -0.049472
N2    N     N_R   0.294590 0.033450 0.310790 -0.046494
N3    N     N_R   0.294590 0.188320 0.465660 -0.070742
N4    N     N_R   0.705410 0.811680 0.534340 -0.070647
N5    N     N_R   0.556610 0.157790 0.497330 -0.040563
N6    N     N_R   0.443390 0.842210 0.502670 -0.047337
N7    N     N_R   0.443390 0.997080 0.657540 -0.040063
N8    N     N_R   0.556610 0.002920 0.342460 -0.032817
N9    N     N_R   0.443390 0.203250 0.451380 -0.042956
N10   N     N_R   0.556610 0.796750 0.548620 -0.046575
N11   N     N_R   0.556610 0.951620 0.703500 -0.048824
N12   N     N_R   0.443390 0.048380 0.296500 -0.045363
N13   N     N_R   0.294590 0.131500 0.522480 -0.076016
N14   N     N_R   0.705410 0.868500 0.477520 -0.071180
N15   N     N_R   0.705410 0.023370 0.632390 -0.042404
N16   N     N_R   0.294590 0.976630 0.367610 -0.044482
Ni1   Ni    Ni4+2 0.629830 0.882720 0.617850 0.204794
Ni2   Ni    Ni4+2 0.370170 0.117280 0.382150 0.205318
Ni3   Ni    Ni4+2 0.629830 0.013030 0.487540 0.259652
Ni4   Ni    Ni4+2 0.370170 0.986970 0.512460 0.232146
O1    O     O_3   0.706242 0.537296 0.716176 -0.786115
H45   H     H_    0.776071 0.479660 0.712708 0.298684
O2    O     O_3   0.303451 0.366404 0.160749 -0.784157
H46   H     H_    0.238412 0.430365 0.166789 0.300329
O3    O     O_3   0.215845 0.172029 0.640544 -0.808352
H47   H     H_    0.177390 0.235947 0.677459 0.305399
O4    O     O_3   0.842266 0.862950 0.443643 -0.801547
H48   H     H_    0.919458 0.814079 0.452929 0.304174

loop_
_geom_bond_atom_site_label_1
_geom_bond_atom_site_label_2
_ccdc_geom_bond_type
C33   C55   D    
C66   C68   A    
C55   C56   S    
C34   C56   D    
C55   H44   S    
N8    Ni3   S    
C41   C43   A    
C3    C23   A    
N9    Ni2   S    
C35   C47   A    
N7    N11   A    
C62   N12   A    
O2    H46   S    
C39   C41   A    
C15   H9    S    
C46   H34   S    
C59   H37   S    
C7    C26   S    
C1    N1    A    
C11   C13   A    
C42   H28   S    
C65   N15   A    
C35   C37   A    
C2    C68   A    
C4    C24   A    
C39   C54   S    
C62   H40   S    
C49   C54   A    
C17   H11   S    
C46   N6    A    
N6    N10   A    
C3    C29   S    
N5    N9    A    
C7    C61   A    
C33   H4    S    
C8    C58   A    
C44   H30   S    
C9    C19   A    
N4    Ni1   S    
C10   C20   A    
C49   C51   A    
C50   C52   A    
C48   H20   S    
C13   C28   S    
C14   C27   S    
C56   H43   S    
C18   C20   A    
C57   N7    A    
C36   H24   S    
C40   C42   A    
C63   O3    S    
C38   C40   A    
N4    N14   A    
N11   Ni1   S    
C8    C25   S    
N2    Ni2   S    
C42   C44   A    
N5    Ni3   S    
N16   Ni4   S    
C52   C54   A    
C10   C12   A    
N10   Ni1   S    
C57   H35   S    
C50   C53   A    
C5    C59   A    
C37   H25   S    
C6    C60   A    
C19   H5    S    
C10   O2    S    
C34   C68   S    
C17   C19   A    
C65   C67   A    
C5    C45   A    
C1    H1    S    
C31   H16   S    
C64   O4    S    
C51   C53   A    
C47   H19   S    
C49   H31   S    
N2    N16   A    
C31   C32   S    
C38   H26   S    
C58   N8    A    
N7    Ni4   S    
C20   H6    S    
C66   H42   S    
C30   H17   S    
C60   N10   A    
C9    C11   A    
C65   H41   S    
C29   H18   S    
C63   N13   A    
C45   H33   S    
C18   H12   S    
C21   C28   A    
C12   C14   A    
C24   N4    A    
C64   N14   A    
C22   C27   A    
C13   C15   A    
O1    H45   S    
C14   C16   A    
C58   H36   S    
C22   H14   S    
C60   H38   S    
C33   C67   S    
C45   N5    A    
C15   C17   A    
C32   H15   S    
C21   C25   A    
C6    C46   A    
C26   C28   A    
C9    O1    S    
C43   H29   S    
C21   H13   S    
C24   H22   S    
O4    H48   S    
C23   H21   S    
N1    N15   A    
C3    C63   A    
C25   C27   A    
O3    H47   S    
C4    C64   A    
C50   H32   S    
N3    N13   A    
C61   N11   A    
C12   H8    S    
C29   C31   D    
C11   H7    S    
N12   Ni2   S    
C30   C32   D    
C2    N2    A    
N13   Ni4   S    
C41   H27   S    
C2    H2    S    
N14   Ni3   S    
C36   C38   A    
C1    C67   A    
C66   N16   A    
C36   C48   A    
C16   H10   S    
C61   H39   S    
N15   Ni3   S    
N6    Ni4   S    
C23   N3    A    
C59   N9    A    
C44   C48   A    
C37   C39   A    
C16   C18   A    
C40   C53   S    
C22   C26   A    
C5    C51   S    
C6    C52   S    
N1    Ni1   S    
C43   C47   A    
C34   H3    S    
C7    C57   A    
C4    C30   S    
N8    N12   A    
C8    C62   A    
N3    Ni2   S    
C35   H23   S    
