data_mof_unit_61826.cif
_audit_creation_date              2012-12-10T18:20:01-0500
_audit_creation_method            fapswitch 2.2
_symmetry_space_group_name_H-M    P1
_symmetry_Int_Tables_number       1
_space_group_crystal_system       triclinic
_cell_length_a                    41.659003
_cell_length_b                    35.652374
_cell_length_c                    21.910125
_cell_angle_alpha                 89.469868
_cell_angle_beta                  121.156408
_cell_angle_gamma                 90.47315
_cell_volume                      27846.5282194

loop_
_atom_site_label
_atom_site_type_symbol
_atom_type_description
_atom_site_fract_x
_atom_site_fract_y
_atom_site_fract_z
_atom_type_partial_charge
C1    C     C_R   0.427617 0.499936 0.927604 0.790196
C2    C     C_R   0.572383 0.500064 0.072396 0.790267
C3    C     C_R   0.927617 0.999936 0.927604 0.790196
C4    C     C_R   0.072383 0.000064 0.072396 0.790267
C5    C     C_2   0.503867 0.502035 0.820021 -0.316480
C6    C     C_2   0.496143 0.497958 0.179989 -0.317412
C7    C     C_2   0.003867 0.002035 0.820021 -0.316480
C8    C     C_2   0.996143 0.997958 0.179989 -0.317412
C9    C     C_R   0.172918 0.499821 0.726593 -0.246009
C10   C     C_R   0.827081 0.500357 0.273407 -0.245952
C11   C     C_R   0.672918 0.999822 0.726593 -0.246011
C12   C     C_R   0.327082 0.000358 0.273407 -0.245952
C13   C     C_R   0.133752 0.500032 0.687923 -0.187803
C14   C     C_R   0.866248 0.500324 0.312076 -0.187799
C15   C     C_R   0.633752 0.000033 0.687923 -0.187802
C16   C     C_R   0.366248 0.000325 0.312076 -0.187800
C17   C     C_R   0.113812 0.500169 0.612946 -0.103268
C18   C     C_R   0.886190 0.500381 0.387051 -0.103242
C19   C     C_R   0.613812 0.000169 0.612946 -0.103267
C20   C     C_R   0.386190 0.000381 0.387051 -0.103240
C21   C     C_R   0.133907 0.500277 0.577469 -0.277663
C22   C     C_R   0.866098 0.500663 0.422525 -0.277595
C23   C     C_R   0.633907 0.000275 0.577468 -0.277666
C24   C     C_R   0.366098 0.000662 0.422525 -0.277597
C25   C     C_R   0.173303 0.500819 0.616151 0.528204
C26   C     C_R   0.826712 0.501451 0.383830 0.527996
C27   C     C_R   0.673303 0.000818 0.616151 0.528205
C28   C     C_R   0.326711 0.001450 0.383830 0.527997
C29   C     C_R   0.192773 0.499965 0.691058 0.037638
C30   C     C_R   0.807230 0.500676 0.308937 0.037599
C31   C     C_R   0.692773 0.999965 0.691058 0.037639
C32   C     C_R   0.307230 0.000676 0.308937 0.037599
C33   C     C_1   0.233137 0.499700 0.731818 0.007895
C34   C     C_1   0.766863 0.500555 0.268184 0.007860
C35   C     C_1   0.733137 0.999701 0.731818 0.007899
C36   C     C_1   0.266863 0.000555 0.268184 0.007862
C37   C     C_1   0.266921 0.499615 0.765871 -0.055839
C38   C     C_1   0.733079 0.500494 0.234132 -0.055770
C39   C     C_1   0.766921 0.999615 0.765871 -0.055838
C40   C     C_1   0.233079 0.000494 0.234132 -0.055769
C41   C     C_R   0.326822 0.465730 0.826320 -0.149812
C42   C     C_R   0.673072 0.466398 0.173292 -0.150692
C43   C     C_R   0.826822 0.965730 0.826320 -0.149812
C44   C     C_R   0.173072 0.966398 0.173292 -0.150692
C45   C     C_R   0.501206 0.500289 0.883557 0.856883
C46   C     C_R   0.498797 0.499703 0.116446 0.857062
C47   C     C_R   0.001206 0.000289 0.883557 0.856883
C48   C     C_R   0.998797 0.999703 0.116446 0.857062
C49   C     C_R   0.366028 0.465770 0.865807 -0.189342
C50   C     C_R   0.633875 0.466254 0.133813 -0.192847
C51   C     C_R   0.866028 0.965770 0.865807 -0.189341
C52   C     C_R   0.133875 0.966254 0.133813 -0.192847
C53   C     C_R   0.386123 0.499820 0.885947 -0.035438
C54   C     C_R   0.613876 0.500202 0.114053 -0.035441
C55   C     C_R   0.886124 0.999820 0.885947 -0.035438
C56   C     C_R   0.113876 0.000202 0.114053 -0.035441
C57   C     C_R   0.366148 0.533782 0.865752 -0.190735
C58   C     C_R   0.633949 0.534259 0.134629 -0.187051
C59   C     C_R   0.866148 0.033782 0.865752 -0.190736
C60   C     C_R   0.133949 0.034259 0.134628 -0.187051
C61   C     C_R   0.326952 0.533658 0.826265 -0.159976
C62   C     C_R   0.673154 0.534319 0.174127 -0.158938
C63   C     C_R   0.826952 0.033658 0.826265 -0.159976
C64   C     C_R   0.173154 0.034319 0.174127 -0.158938
C65   C     C_R   0.307236 0.499656 0.806492 0.141007
C66   C     C_R   0.692764 0.500407 0.193511 0.141077
C67   C     C_R   0.807236 0.999656 0.806492 0.141006
C68   C     C_R   0.192764 0.000407 0.193511 0.141077
C69   C     C_R   0.500368 0.692808 0.501630 0.145229
C70   C     C_R   0.000368 0.192808 0.501630 0.145229
C71   C     C_R   0.466237 0.633878 0.466658 -0.192804
C72   C     C_R   0.534237 0.633977 0.534952 -0.189072
C73   C     C_R   0.966237 0.133878 0.466658 -0.192804
C74   C     C_R   0.034237 0.133977 0.534952 -0.189072
C75   C     C_1   0.000419 0.266961 0.502042 -0.063419
C76   C     C_1   0.500419 0.766961 0.502042 -0.063419
C77   C     C_R   0.000348 0.307312 0.501745 0.145027
C78   C     C_R   0.500348 0.807312 0.501745 0.145028
C79   C     C_R   0.499936 0.427629 0.499892 0.848641
C80   C     C_R   0.999936 0.927629 0.499892 0.848641
C81   C     C_R   0.466367 0.673085 0.467239 -0.158234
C82   C     C_R   0.534286 0.673192 0.535452 -0.157489
C83   C     C_R   0.966367 0.173085 0.467239 -0.158234
C84   C     C_R   0.034286 0.173192 0.535452 -0.157489
C85   C     C_R   0.499675 0.498776 0.617315 0.854438
C86   C     C_R   0.500325 0.501199 0.382685 0.854695
C87   C     C_R   0.999675 0.998776 0.617315 0.854438
C88   C     C_R   0.000325 0.001199 0.382685 0.854694
C89   C     C_R   0.500063 0.572363 0.500110 0.789335
C90   C     C_R   0.000063 0.072363 0.500110 0.789335
C91   C     C_R   0.000015 0.427779 0.500256 0.794014
C92   C     C_R   0.500015 0.927779 0.500256 0.794014
C93   C     C_R   0.072303 0.500105 0.572027 0.821600
C94   C     C_R   0.927697 0.500137 0.427972 0.821595
C95   C     C_R   0.572303 0.000105 0.572027 0.821600
C96   C     C_R   0.427697 0.000137 0.427972 0.821595
C97   C     C_R   0.999985 0.572370 0.499743 0.789873
C98   C     C_R   0.499985 0.072370 0.499743 0.789874
C99   C     C_R   0.999423 0.673209 0.442905 -0.152972
C100  C     C_R   0.999991 0.672952 0.554001 -0.153481
C101  C     C_R   0.499424 0.173209 0.442906 -0.152971
C102  C     C_R   0.499990 0.172952 0.554000 -0.153481
C103  C     C_R   0.999555 0.634004 0.443311 -0.190700
C104  C     C_R   0.000108 0.633768 0.554533 -0.190142
C105  C     C_R   0.499555 0.134004 0.443312 -0.190701
C106  C     C_R   0.500107 0.133768 0.554532 -0.190142
C107  C     C_R   0.999895 0.613854 0.499170 -0.036413
C108  C     C_R   0.499895 0.113854 0.499170 -0.036413
C109  C     C_R   0.999642 0.692716 0.498227 0.137580
C110  C     C_R   0.499642 0.192716 0.498227 0.137579
C111  C     C_1   0.999567 0.733006 0.497921 -0.048679
C112  C     C_1   0.499567 0.233006 0.497921 -0.048678
C113  C     C_R   0.000105 0.386253 0.500825 -0.036747
C114  C     C_R   0.500104 0.886253 0.500825 -0.036748
C115  C     C_1   0.499557 0.266773 0.497982 0.080808
C116  C     C_1   0.999557 0.766773 0.497982 0.080803
C117  C     C_R   0.465550 0.326806 0.462484 0.459479
C118  C     C_R   0.533789 0.326873 0.534823 0.460399
C119  C     C_R   0.965550 0.826806 0.462480 0.459479
C120  C     C_R   0.033789 0.826873 0.534828 0.460399
C121  C     C_R   0.465801 0.366133 0.464440 -0.278668
C122  C     C_R   0.533720 0.366217 0.533957 -0.282263
C123  C     C_R   0.965801 0.866133 0.464436 -0.278664
C124  C     C_R   0.033720 0.866217 0.533962 -0.282261
C125  C     C_R   0.499809 0.386146 0.499466 -0.172786
C126  C     C_R   0.999809 0.886146 0.499466 -0.172789
C127  C     C_R   0.499627 0.307171 0.498362 -0.083746
C128  C     C_R   0.999627 0.807171 0.498362 -0.083748
C129  C     C_R   0.000306 0.326850 0.556805 -0.156298
C130  C     C_R   0.000266 0.327116 0.446247 -0.156763
C131  C     C_R   0.500306 0.826850 0.556805 -0.156298
C132  C     C_R   0.500266 0.827117 0.446247 -0.156764
C133  C     C_R   0.000186 0.366074 0.556415 -0.188507
C134  C     C_R   0.000147 0.366320 0.445721 -0.187829
C135  C     C_R   0.500186 0.866074 0.556415 -0.188508
C136  C     C_R   0.500147 0.866320 0.445721 -0.187827
C137  C     C_1   0.500431 0.733155 0.501987 -0.063917
C138  C     C_1   0.000431 0.233155 0.501987 -0.063917
C139  C     C_R   0.500189 0.613879 0.500536 -0.035152
C140  C     C_R   0.000189 0.113879 0.500536 -0.035152
C141  C     C_2   0.524519 0.479034 0.741068 -0.156080
C142  C     C_2   0.475472 0.520933 0.258924 -0.155952
C143  C     C_2   0.024519 0.979034 0.741068 -0.156081
C144  C     C_2   0.975472 0.020933 0.258924 -0.155953
C145  C     C_2   0.497906 0.496098 0.681738 -0.314586
C146  C     C_2   0.502093 0.503880 0.318262 -0.316306
C147  C     C_2   0.997906 0.996098 0.681738 -0.314586
C148  C     C_2   0.002093 0.003880 0.318262 -0.316306
C149  C     C_2   0.520861 0.475380 0.804240 -0.154767
C150  C     C_2   0.479129 0.524597 0.195753 -0.155198
C151  C     C_2   0.020861 0.975380 0.804240 -0.154767
C152  C     C_2   0.979129 0.024597 0.195753 -0.155199
Cu1   Cu    Cu3+1 0.500000 0.537250 0.000000 0.943776
Cu2   Cu    Cu3+1 0.000000 0.037250 0.000000 0.943776
Cu3   Cu    Cu3+1 0.500000 0.462730 0.000000 0.944268
Cu4   Cu    Cu3+1 0.000000 0.962730 0.000000 0.944267
Cu5   Cu    Cu3+1 0.537260 0.499990 0.537250 0.945869
Cu6   Cu    Cu3+1 0.462740 0.499990 0.462750 0.945572
Cu7   Cu    Cu3+1 0.037260 0.999990 0.537250 0.945870
Cu8   Cu    Cu3+1 0.962740 0.999990 0.462750 0.945573
Cu9   Cu    Cu3+1 1.000000 0.500090 0.438970 0.939363
Cu10  Cu    Cu3+1 0.000000 0.500090 0.561030 0.939397
Cu11  Cu    Cu3+1 0.500000 0.000090 0.438970 0.939362
Cu12  Cu    Cu3+1 0.500000 0.000090 0.561030 0.939397
H1    H     H_    0.439950 0.688008 0.440851 0.133032
H2    H     H_    0.560768 0.688202 0.562194 0.133575
H3    H     H_    0.939950 0.188008 0.440851 0.133032
H4    H     H_    0.060768 0.188202 0.562195 0.133575
H5    H     H_    0.311798 0.439253 0.811253 0.135571
H6    H     H_    0.688012 0.439991 0.188050 0.134953
H7    H     H_    0.811798 0.939253 0.811253 0.135572
H8    H     H_    0.188012 0.939991 0.188050 0.134953
H9    H     H_    0.380563 0.439159 0.880501 0.154622
H10   H     H_    0.619269 0.439571 0.118817 0.153658
H11   H     H_    0.880563 0.939159 0.880501 0.154622
H12   H     H_    0.119269 0.939571 0.118818 0.153658
H13   H     H_    0.380771 0.560460 0.880395 0.153026
H14   H     H_    0.619397 0.560859 0.120286 0.154003
H15   H     H_    0.880771 0.060460 0.880395 0.153026
H16   H     H_    0.119397 0.060859 0.120285 0.154003
H17   H     H_    0.312030 0.560077 0.811152 0.130060
H18   H     H_    0.688161 0.560802 0.189550 0.130594
H19   H     H_    0.812030 0.060077 0.811152 0.130060
H20   H     H_    0.188161 0.060802 0.189550 0.130594
H21   H     H_    0.439556 0.619265 0.439702 0.153536
H22   H     H_    0.560845 0.619436 0.561521 0.154527
H23   H     H_    0.939556 0.119265 0.439702 0.153536
H24   H     H_    0.060845 0.119436 0.561521 0.154527
H25   H     H_    0.999158 0.688292 0.399487 0.131301
H26   H     H_    0.000177 0.687828 0.597087 0.131254
H27   H     H_    0.499159 0.188292 0.399488 0.131302
H28   H     H_    0.500176 0.187828 0.597086 0.131255
H29   H     H_    0.999375 0.619520 0.399914 0.152844
H30   H     H_    0.000374 0.619114 0.598300 0.153286
H31   H     H_    0.499376 0.119520 0.399915 0.152844
H32   H     H_    0.500373 0.119114 0.598299 0.153286
H33   H     H_    0.439298 0.380879 0.438151 0.182408
H34   H     H_    0.560298 0.381035 0.560639 0.181778
H35   H     H_    0.939299 0.880879 0.438142 0.182409
H36   H     H_    0.060298 0.881035 0.560648 0.181779
H37   H     H_    0.000359 0.311773 0.600022 0.133178
H38   H     H_    0.000289 0.312256 0.403353 0.133206
H39   H     H_    0.500359 0.811773 0.600022 0.133178
H40   H     H_    0.500289 0.812257 0.403353 0.133206
H41   H     H_    0.548224 0.465840 0.742157 0.160146
H42   H     H_    0.451758 0.534111 0.257829 0.161483
H43   H     H_    0.048224 0.965840 0.742157 0.160145
H44   H     H_    0.951758 0.034111 0.257829 0.161483
H45   H     H_    0.000160 0.380555 0.599613 0.154198
H46   H     H_    0.000090 0.380979 0.402162 0.154665
H47   H     H_    0.500160 0.880555 0.599613 0.154198
H48   H     H_    0.500090 0.880979 0.402162 0.154665
H49   H     H_    0.472213 0.505607 0.677910 0.154891
H50   H     H_    0.527792 0.494386 0.322096 0.155537
H51   H     H_    0.972213 0.005607 0.677910 0.154891
H52   H     H_    0.027792 0.994386 0.322096 0.155538
H53   H     H_    0.534006 0.451647 0.839953 0.160629
H54   H     H_    0.465964 0.548320 0.160024 0.161407
H55   H     H_    0.034006 0.951647 0.839953 0.160629
H56   H     H_    0.965964 0.048320 0.160024 0.161407
H57   H     H_    0.494407 0.527745 0.788734 0.154008
H58   H     H_    0.505623 0.472254 0.211292 0.154376
H59   H     H_    0.994407 0.027745 0.788734 0.154008
H60   H     H_    0.005623 0.972254 0.211292 0.154376
H61   H     H_    0.187749 0.499492 0.784354 0.155681
H62   H     H_    0.812246 0.500070 0.215652 0.155683
H63   H     H_    0.687749 0.999495 0.784354 0.155681
H64   H     H_    0.312246 0.000071 0.215652 0.155683
H65   H     H_    0.119115 0.499924 0.716829 0.165901
H66   H     H_    0.880884 0.500094 0.283173 0.165898
H67   H     H_    0.619115 0.999926 0.716829 0.165901
H68   H     H_    0.380884 0.000095 0.283173 0.165899
H69   H     H_    0.119197 0.499926 0.519757 0.169692
H70   H     H_    0.880802 0.500266 0.480244 0.169681
H71   H     H_    0.619197 0.999923 0.519757 0.169690
H72   H     H_    0.380802 0.000264 0.480244 0.169680
O1    O     O_R   0.445630 0.531460 0.945630 -0.591835
O2    O     O_R   0.554370 0.531460 0.054370 -0.587857
O3    O     O_R   0.945630 0.031460 0.945630 -0.591835
O4    O     O_R   0.054370 0.031460 0.054370 -0.587857
O5    O     O_R   0.054370 0.500090 0.502830 -0.586178
O6    O     O_R   0.945630 0.500090 0.497170 -0.586159
O7    O     O_R   0.554370 0.000090 0.502830 -0.586178
O8    O     O_R   0.445630 0.000090 0.497170 -0.586159
O9    O     O_R   0.054360 0.500110 0.605880 -0.587405
O10   O     O_R   0.945640 0.500110 0.394120 -0.587414
O11   O     O_R   0.554360 0.000110 0.605880 -0.587405
O12   O     O_R   0.445640 0.000110 0.394120 -0.587414
O13   O     O_R   0.000010 0.554450 0.448450 -0.587923
O14   O     O_R   0.999990 0.554450 0.551550 -0.588014
O15   O     O_R   0.500010 0.054450 0.448450 -0.587923
O16   O     O_R   0.499990 0.054450 0.551550 -0.588014
O17   O     O_R   0.445610 0.468530 0.945600 -0.587689
O18   O     O_R   0.554390 0.468530 0.054400 -0.591618
O19   O     O_R   0.945610 0.968530 0.945600 -0.587689
O20   O     O_R   0.054390 0.968530 0.054400 -0.591618
O21   O     O_R   0.500010 0.531460 0.910980 -0.585963
O22   O     O_R   0.499990 0.531460 0.089020 -0.579233
O23   O     O_R   0.000010 0.031460 0.910980 -0.585963
O24   O     O_R   0.999990 0.031460 0.089020 -0.579233
O25   O     O_R   0.499990 0.468530 0.910950 -0.579133
O26   O     O_R   0.500010 0.468530 0.089050 -0.585934
O27   O     O_R   0.999990 0.968530 0.910950 -0.579133
O28   O     O_R   0.000010 0.968530 0.089050 -0.585934
O29   O     O_R   0.531450 0.445630 0.531430 -0.592060
O30   O     O_R   0.468550 0.445630 0.468570 -0.588174
O31   O     O_R   0.031450 0.945630 0.531430 -0.592059
O32   O     O_R   0.968550 0.945630 0.468570 -0.588174
O33   O     O_R   0.531450 0.499990 0.620480 -0.580884
O34   O     O_R   0.468550 0.499990 0.379520 -0.581157
O35   O     O_R   0.031450 0.999990 0.620480 -0.580884
O36   O     O_R   0.968550 0.999990 0.379520 -0.581157
O37   O     O_R   0.468510 0.499990 0.557540 -0.585100
O38   O     O_R   0.531490 0.499990 0.442460 -0.585025
O39   O     O_R   0.968510 0.999990 0.557540 -0.585100
O40   O     O_R   0.031490 0.999990 0.442460 -0.585025
O41   O     O_R   0.531470 0.554350 0.531480 -0.587711
O42   O     O_R   0.468530 0.554350 0.468520 -0.591705
O43   O     O_R   0.031470 0.054350 0.531480 -0.587711
O44   O     O_R   0.968530 0.054350 0.468520 -0.591705
O45   O     O_R   0.999980 0.445730 0.448470 -0.586377
O46   O     O_R   0.000020 0.445730 0.551530 -0.586285
O47   O     O_R   0.499980 0.945730 0.448470 -0.586377
O48   O     O_R   0.500020 0.945730 0.551530 -0.586285
O49   O     O_3   0.431866 0.307455 0.429267 -0.565295
C153  C     C_3   0.417507 0.307697 0.355192 -0.313216
H73   H     H_    0.437495 0.294652 0.342326 0.155153
H74   H     H_    0.410306 0.336624 0.332766 0.158068
H75   H     H_    0.391313 0.290806 0.328792 0.193079
O50   O     O_3   0.567388 0.307644 0.567581 -0.565136
C154  C     C_3   0.581719 0.306765 0.641640 -0.315794
H76   H     H_    0.561652 0.293021 0.654118 0.155173
H77   H     H_    0.589051 0.335411 0.664824 0.156393
H78   H     H_    0.607831 0.289951 0.667628 0.193029
O51   O     O_3   0.931866 0.807455 0.429257 -0.565294
C155  C     C_3   0.917512 0.807695 0.355184 -0.313216
H79   H     H_    0.937502 0.794647 0.342326 0.155154
H80   H     H_    0.910314 0.836621 0.332755 0.158068
H81   H     H_    0.891317 0.790805 0.328780 0.193079
O52   O     O_3   0.067388 0.807644 0.567591 -0.565135
C156  C     C_3   0.081714 0.806763 0.641648 -0.315793
H82   H     H_    0.061645 0.793018 0.654118 0.155174
H83   H     H_    0.089043 0.835408 0.664834 0.156392
H84   H     H_    0.107827 0.789950 0.667641 0.193028
O53   O     O_3   0.192779 0.499724 0.580800 -0.573797
C157  C     C_3   0.193231 0.536085 0.555420 -0.327734
H85   H     H_    0.206476 0.556673 0.599828 0.156395
H86   H     H_    0.164507 0.545355 0.514310 0.156985
H87   H     H_    0.210297 0.535585 0.529894 0.198037
O54   O     O_3   0.807223 0.500509 0.419202 -0.574077
C158  C     C_3   0.807259 0.536896 0.443873 -0.327153
H88   H     H_    0.794279 0.557520 0.399059 0.156666
H89   H     H_    0.836108 0.546032 0.484785 0.157097
H90   H     H_    0.790198 0.536526 0.469429 0.198100
O55   O     O_3   0.692780 0.999721 0.580801 -0.573797
C159  C     C_3   0.693227 0.036080 0.555410 -0.327731
H91   H     H_    0.706469 0.056672 0.599812 0.156393
H92   H     H_    0.664503 0.045346 0.514295 0.156985
H93   H     H_    0.710296 0.035580 0.529887 0.198036
O56   O     O_3   0.307223 0.000507 0.419202 -0.574077
C160  C     C_3   0.307261 0.036893 0.443879 -0.327148
H94   H     H_    0.294283 0.057520 0.399068 0.156664
H95   H     H_    0.336111 0.046026 0.484794 0.157096
H96   H     H_    0.290199 0.036522 0.469433 0.198099

loop_
_geom_bond_atom_site_label_1
_geom_bond_atom_site_label_2
_ccdc_geom_bond_type
C99   C103  A    
Cu5   Cu6   S    
C134  H46   S    
C55   C59   A    
C80   O31   A    
C142  C146  D    
C154  H76   S    
Cu1   O21   S    
C49   H9    S    
C156  H82   S    
Cu6   O30   S    
C28   O56   S    
C92   O47   A    
C98   O15   A    
C29   C33   S    
C100  C104  A    
C98   C108  S    
C91   O46   A    
C9    C13   A    
C120  O52   S    
C42   H6    S    
C22   H70   S    
C11   C15   A    
C72   C139  A    
C12   C16   A    
C70   C84   A    
Cu9   O5    S    
C130  H38   S    
C141  C145  D    
C119  C128  A    
C143  C151  S    
C100  C109  A    
C113  C133  A    
C4    C56   S    
C101  C105  A    
C130  C134  A    
C2    O18   A    
C41   C49   A    
C25   C29   A    
C25   O53   S    
Cu8   O36   S    
C63   H19   S    
C27   C31   A    
C28   C32   A    
Cu5   O38   S    
C30   C34   S    
C123  C126  A    
C106  H32   S    
C101  C110  A    
C41   H5    S    
C17   C21   A    
C90   O43   A    
C19   C23   A    
C44   H8    S    
C84   H4    S    
C7    H59   S    
C10   C30   A    
C90   C140  S    
C16   C20   A    
C157  H85   S    
C88   C148  S    
Cu8   O39   S    
C149  H53   S    
C146  H50   S    
C93   O9    A    
C129  C133  A    
C155  H79   S    
C70   C138  S    
C151  H55   S    
Cu2   O24   S    
O52   C156  S    
C156  H84   S    
C48   O24   A    
C153  H75   S    
C100  H26   S    
C101  H27   S    
C75   C138  T    
C41   C65   A    
C57   C61   A    
C119  C123  A    
C59   C63   A    
C60   C64   A    
C47   O27   A    
C153  H74   S    
C74   C140  A    
C49   C53   A    
Cu11  O15   S    
C48   O28   A    
C51   C55   A    
C142  H42   S    
C14   H66   S    
C12   H64   S    
Cu5   O41   S    
Cu3   O25   S    
C61   C65   A    
C160  H94   S    
C114  C136  A    
C103  C107  A    
C73   C83   A    
C104  C107  A    
C6    H58   S    
C46   O22   A    
C133  H45   S    
Cu8   O44   S    
C5    C149  D    
C76   C137  T    
C80   C126  S    
C159  H93   S    
C64   C68   A    
C159  H92   S    
Cu12  O16   S    
C85   C145  S    
C147  H51   S    
C109  C111  S    
Cu2   O4    S    
Cu12  O48   S    
C118  C122  A    
C1    C53   S    
C69   C82   A    
C57   H13   S    
C95   O11   A    
C136  H48   S    
C3    C55   S    
C155  H81   S    
C96   O8    A    
C37   C65   S    
Cu11  O7    S    
C23   H71   S    
C44   C52   A    
C20   C96   S    
C27   O55   S    
C87   O39   A    
C71   H21   S    
C148  H52   S    
C143  H43   S    
C62   C66   A    
C119  O51   S    
C10   C14   A    
C43   H7    S    
C1    O1    A    
C83   H3    S    
C97   C107  S    
C121  C125  A    
C24   H72   S    
C45   O25   A    
C132  C136  A    
C160  H96   S    
Cu5   O33   S    
C89   O41   A    
C58   H14   S    
C122  H34   S    
C75   C77   S    
C42   C50   A    
C26   C30   A    
C158  H89   S    
C40   C68   S    
Cu1   Cu3   S    
C118  C127  A    
C4    O20   A    
C117  O49   S    
C19   C95   S    
Cu6   O37   S    
C124  C126  A    
C21   C25   A    
C15   H67   S    
C18   C22   A    
C118  O50   S    
C24   C28   A    
C74   C84   A    
C8    C152  D    
Cu8   O32   S    
C13   C17   A    
C122  C125  A    
C92   O48   A    
C93   O5    A    
Cu9   O13   S    
C106  C108  A    
C85   O37   A    
C91   O45   A    
C110  C112  S    
C64   H20   S    
C17   C93   S    
C11   H63   S    
C104  H30   S    
C9    H61   S    
C71   C81   A    
C58   C62   A    
C135  H47   S    
Cu9   Cu10  S    
C15   C19   A    
C50   C54   A    
C87   C147  S    
Cu1   O2    S    
Cu7   O40   S    
Cu3   O18   S    
Cu9   O45   S    
Cu6   O42   S    
C99   C109  A    
C79   O30   A    
Cu7   O43   S    
C90   O44   A    
O50   C154  S    
C85   O33   A    
Cu12  O11   S    
C21   H69   S    
C47   O23   A    
C157  H86   S    
C111  C116  T    
Cu10  O6    S    
C131  H39   S    
C52   H12   S    
Cu2   Cu4   S    
C8    H60   S    
Cu4   O19   S    
C155  H80   S    
O55   C159  S    
C80   O32   A    
Cu7   O35   S    
C98   O16   A    
Cu11  O12   S    
Cu1   O22   S    
C86   C146  S    
C73   H23   S    
C1    O17   A    
C74   H24   S    
C156  H83   S    
C132  H40   S    
C157  H87   S    
C2    C54   S    
O51   C155  S    
C53   C57   A    
C5    C45   S    
C33   C37   T    
C56   C60   A    
C7    C47   S    
C35   C39   T    
C8    C48   S    
O49   C153  S    
C62   H18   S    
Cu7   Cu8   S    
C4    O4    A    
C51   H11   S    
C70   C83   A    
C117  C127  A    
C72   H22   S    
C145  H49   S    
C113  C134  A    
C31   C35   S    
C102  C110  A    
Cu12  O8    S    
C32   C36   S    
C82   H2    S    
C123  H35   S    
O54   C158  S    
C154  H77   S    
C76   C78   S    
C97   O13   A    
C120  C128  A    
C45   O21   A    
C97   O14   A    
C60   H16   S    
Cu5   O29   S    
C124  H36   S    
C61   H17   S    
Cu6   O34   S    
C142  C150  S    
C59   H15   S    
C43   C51   A    
Cu10  O9    S    
C26   O54   S    
C77   C130  A    
C88   O40   A    
C69   C81   A    
C13   H65   S    
C6    C150  D    
C144  C152  S    
O53   C157  S    
C22   C26   A    
C159  H91   S    
C103  H29   S    
C96   O12   A    
Cu2   O23   S    
C3    O3    A    
C144  H44   S    
C5    H57   S    
C158  H88   S    
C14   C18   A    
Cu11  Cu12  S    
C144  C148  D    
C141  C149  S    
C143  C147  D    
C86   O38   A    
C131  C135  A    
C153  H73   S    
Cu7   O31   S    
C115  C127  S    
C77   C129  A    
C117  C121  A    
C78   C132  A    
C87   O35   A    
Cu3   O26   S    
C120  C124  A    
C88   O36   A    
C20   C24   A    
C160  H95   S    
C114  C135  A    
C23   C27   A    
C9    C29   A    
C11   C31   A    
Cu4   O28   S    
C12   C32   A    
C141  H41   S    
Cu10  O46   S    
C69   C137  S    
C105  C108  A    
C63   C67   A    
C38   C66   S    
C36   C40   T    
C154  H78   S    
C86   O34   A    
C99   H25   S    
C2    O2    A    
C71   C139  A    
C89   C139  S    
Cu2   O3    S    
C16   H68   S    
C91   C113  S    
C78   C131  A    
Cu4   O27   S    
C94   O10   A    
C150  H54   S    
C121  H33   S    
C43   C67   A    
Cu11  O47   S    
C18   C94   S    
C7    C151  D    
C44   C68   A    
C10   H62   S    
C54   C58   A    
C105  H31   S    
C6    C46   S    
C34   C38   T    
C39   C67   S    
C73   C140  A    
C46   O26   A    
Cu1   O1    S    
C50   H10   S    
O56   C160  S    
C94   O6    A    
C129  H37   S    
Cu9   O10   S    
Cu10  O14   S    
Cu3   O17   S    
C152  H56   S    
C89   O42   A    
C79   O29   A    
C102  C106  A    
C102  H28   S    
C79   C125  S    
C3    O19   A    
Cu4   O20   S    
C116  C128  S    
C158  H90   S    
C42   C66   A    
C81   H1    S    
C92   C114  S    
C112  C115  T    
C72   C82   A    
C52   C56   A    
C95   O7    A    
