data_mof_unit_26066.cif
_audit_creation_date              2012-12-10T17:57:27-0500
_audit_creation_method            fapswitch 2.2
_symmetry_space_group_name_H-M    P1
_symmetry_Int_Tables_number       1
_space_group_crystal_system       triclinic
_cell_length_a                    9.627428
_cell_length_b                    10.788643
_cell_length_c                    13.543741
_cell_angle_alpha                 92.518645
_cell_angle_beta                  72.726081
_cell_angle_gamma                 89.587597
_cell_volume                      1341.69644942

loop_
_atom_site_label
_atom_site_type_symbol
_atom_type_description
_atom_site_fract_x
_atom_site_fract_y
_atom_site_fract_z
_atom_type_partial_charge
C1    C     C_R   0.500056 0.737224 0.498976 0.870654
C2    C     C_R   0.432098 0.490264 0.982579 0.086138
C3    C     C_R   0.480895 0.499246 0.873775 -0.162540
C4    C     C_R   0.537088 0.463758 0.034186 -0.019380
C5    C     C_R   0.668405 0.401241 0.978051 -0.153700
C6    C     C_R   0.716061 0.412106 0.869968 0.143800
C7    C     C_R   0.633066 0.486606 0.826113 0.398895
C8    C     C_R   0.525464 0.513755 0.133781 0.363058
C9    C     C_R   0.730980 0.382432 0.138651 0.314068
C10   C     C_R   0.379430 0.524354 0.817649 -0.213273
C11   C     C_R   0.617440 0.930623 0.429914 0.311782
C12   C     C_R   0.422318 0.509057 0.700894 0.762733
C13   C     C_R   0.613293 0.061111 0.428438 0.297134
C14   C     C_R   0.500539 0.128424 0.502078 -0.219533
C15   C     C_R   0.385879 0.066629 0.571917 0.347764
C16   C     C_R   0.384416 0.938242 0.565320 -0.230586
C17   C     C_R   0.500149 0.870900 0.496884 -0.175399
C18   C     C_R   0.905042 0.597594 0.544845 0.540461
C19   C     C_R   0.051774 0.595176 0.548642 0.318997
C20   C     C_R   0.097506 0.407358 0.448835 0.212313
C21   C     C_R   0.949584 0.406332 0.449617 0.319587
C22   C     C_R   0.499972 0.262665 0.500888 0.869293
C23   C     C_R   0.577714 0.493607 0.300645 0.877527
C24   C     C_R   0.757379 0.348876 0.032663 0.350816
C25   C     C_R   0.618775 0.469077 0.187892 -0.266076
C26   C     C_R   0.235542 0.561602 0.876123 0.164246
C27   C     C_R   0.187005 0.549328 0.983258 0.167969
C28   C     C_R   0.282025 0.505248 0.035673 0.148300
Cu1   Cu    Cu3+1 0.359340 0.499980 0.500000 0.978995
Cu2   Cu    Cu3+1 0.640660 0.500020 0.500000 1.047809
H1    H     H_    0.296117 0.890526 0.618058 0.204685
N1    N     N_R   0.147940 0.499970 0.499970 -0.248592
N2    N     N_R   0.852060 0.500060 0.499990 -0.264872
O1    O     O_R   0.381250 0.680340 0.500010 -0.595707
O2    O     O_R   0.618820 0.680370 0.500010 -0.484586
O3    O     O_R   0.323240 0.499950 0.650980 -0.627630
O4    O     O_R   0.560810 0.499980 0.650980 -0.525965
O5    O     O_R   0.381180 0.319630 0.499990 -0.560139
O6    O     O_R   0.618750 0.319660 0.499990 -0.544581
O7    O     O_R   0.439190 0.500020 0.349020 -0.551310
O8    O     O_R   0.676760 0.500050 0.349020 -0.562295
O9    O     O_3   0.811852 0.331518 0.196181 -0.721871
H2    H     H_    0.886752 0.272747 0.152551 0.374148
O10   O     O_3   0.712807 0.124860 0.353770 -0.683448
H3    H     H_    0.750204 0.070056 0.290611 0.342524
O11   O     O_3   0.274661 0.127084 0.647994 -0.691257
H4    H     H_    0.305980 0.210971 0.663455 0.327147
O12   O     O_3   0.813010 0.697341 0.587268 -0.667299
H5    H     H_    0.866420 0.765587 0.609757 0.359222
O13   O     O_3   0.093794 0.691425 0.602191 -0.743889
H6    H     H_    0.169998 0.659037 0.628921 0.361479
N3    N     N_3   0.196516 0.312797 0.390122 -0.477480
H7    H     H_    0.197156 0.314595 0.312899 0.236312
H8    H     H_    0.158157 0.226715 0.417892 0.248340
O14   O     O_3   0.909625 0.310146 0.395128 -0.681755
H9    H     H_    0.832222 0.342318 0.369442 0.426500
N4    N     N_3   0.859330 0.371656 0.809000 -0.530364
H10   H     H_    0.916500 0.447782 0.774246 0.256694
H11   H     H_    0.848186 0.311094 0.749540 0.222377
O15   O     O_3   0.868220 0.264514 0.985678 -0.713060
H12   H     H_    0.836305 0.212267 0.934728 0.355636
O16   O     O_3   0.432486 0.614770 0.171844 -0.698605
H13   H     H_    0.468560 0.664928 0.221831 0.329307
N5    N     N_3   0.137563 0.619534 0.830129 -0.519009
H14   H     H_    0.107256 0.554785 0.781676 0.245610
H15   H     H_    0.190080 0.694009 0.788813 0.214406
N6    N     N_3   0.225176 0.467698 0.140319 -0.549133
H16   H     H_    0.153087 0.395407 0.141452 0.218595
H17   H     H_    0.167499 0.542168 0.186871 0.252713
N7    N     N_3   0.038679 0.582189 0.038182 -0.533175
H18   H     H_    0.037803 0.652746 0.093793 0.228179
H19   H     H_    0.988603 0.504909 0.076027 0.240295
O17   O     O_3   0.708215 0.572866 0.759835 -0.695071
H20   H     H_    0.643521 0.646796 0.766197 0.353327
O18   O     O_3   0.731893 0.859566 0.366266 -0.719765
H21   H     H_    0.821426 0.909007 0.351459 0.341511

loop_
_geom_bond_atom_site_label_1
_geom_bond_atom_site_label_2
_ccdc_geom_bond_type
O14   H9    S    
O17   H20   S    
C4    C8    A    
C9    C25   A    
C7    O17   S    
O10   H3    S    
C16   H1    S    
Cu1   O3    S    
C26   C27   A    
O16   H13   S    
Cu2   O2    S    
Cu1   N1    S    
C3    C7    A    
C5    C6    A    
N4    H11   S    
C21   N2    A    
C15   C16   A    
C22   O5    A    
C18   C19   A    
C12   O4    A    
C26   N5    S    
C16   C17   A    
Cu1   O5    S    
Cu2   O8    S    
N7    H18   S    
C12   O3    A    
C10   C26   A    
C13   C14   A    
C8    C25   A    
C6    N4    S    
C19   N1    A    
N3    H8    S    
C1    O1    A    
N6    H16   S    
C28   N6    S    
C21   O14   S    
Cu1   O1    S    
Cu2   O4    S    
O15   H12   S    
N6    H17   S    
N5    H15   S    
C2    C4    A    
O18   H21   S    
Cu1   Cu2   S    
C24   O15   S    
O13   H6    S    
C9    O9    S    
C27   N7    S    
C10   C12   S    
O12   H5    S    
O9    H2    S    
N3    H7    S    
C1    O2    A    
C20   N1    A    
O11   H4    S    
C11   C17   A    
Cu2   N2    S    
C4    C5    A    
C18   O12   S    
N7    H19   S    
C9    C24   A    
C6    C7    A    
C1    C17   S    
C23   O8    A    
N5    H14   S    
C14   C22   S    
C2    C3    A    
C20   N3    S    
C3    C10   A    
C11   O18   S    
C11   C13   A    
C19   O13   S    
N4    H10   S    
C5    C24   A    
C22   O6    A    
Cu1   O7    S    
Cu2   O6    S    
C23   C25   S    
C18   N2    A    
C20   C21   A    
C27   C28   A    
C14   C15   A    
C2    C28   A    
C15   O11   S    
C13   O10   S    
C23   O7    A    
C8    O16   S    
