data_mof_unit_11465.cif
_audit_creation_date              2012-12-10T17:32:57-0500
_audit_creation_method            fapswitch 2.2
_symmetry_space_group_name_H-M    P1
_symmetry_Int_Tables_number       1
_space_group_crystal_system       triclinic
_cell_length_a                    12.414483
_cell_length_b                    13.151637
_cell_length_c                    14.217708
_cell_angle_alpha                 93.323275
_cell_angle_beta                  107.92356
_cell_angle_gamma                 116.812297
_cell_volume                      1917.56037585

loop_
_atom_site_label
_atom_site_type_symbol
_atom_type_description
_atom_site_fract_x
_atom_site_fract_y
_atom_site_fract_z
_atom_type_partial_charge
C1    C     C_R   0.647293 0.713752 0.503725 0.856947
C2    C     C_R   0.855690 0.519076 0.925454 -0.054676
C3    C     C_R   0.798548 0.522221 0.996674 0.048024
C4    C     C_R   0.961998 0.497126 0.950905 -0.140062
C5    C     C_R   0.028452 0.504309 0.054612 -0.002717
C6    C     C_R   0.985682 0.535270 0.128856 0.152213
C7    C     C_R   0.865936 0.532130 0.098302 -0.222257
C8    C     C_R   0.999173 0.462622 0.874671 0.546338
C9    C     C_R   0.113653 0.456648 0.901322 0.020432
C10   C     C_R   0.182786 0.466447 0.003551 0.008135
C11   C     C_R   0.135367 0.482303 0.079243 0.059498
C12   C     C_R   0.619093 0.518407 0.687110 0.835973
C13   C     C_R   0.294933 0.454415 0.031085 -0.173316
C14   C     C_R   0.361770 0.460987 0.131851 -0.177468
C15   C     C_R   0.193586 0.470096 0.176298 -0.158515
C16   C     C_R   0.195247 0.953017 0.446974 0.099633
C17   C     C_R   0.260070 0.160256 0.480407 -0.082582
C18   C     C_R   0.705613 0.924642 0.539890 0.438222
C19   C     C_R   0.804631 0.041547 0.568221 -0.250166
C20   C     C_R   0.924773 0.072073 0.562800 0.097707
C21   C     C_R   0.938866 0.988793 0.505576 -0.000283
C22   C     C_R   0.835030 0.871000 0.469614 -0.021879
C23   C     C_R   0.347419 0.284703 0.488100 0.826268
C24   C     C_R   0.052268 0.016625 0.483893 0.042479
C25   C     C_R   0.072450 0.926453 0.448615 0.113462
C26   C     C_R   0.965634 0.814104 0.405772 -0.261134
C27   C     C_R   0.844157 0.790810 0.405211 0.169677
C28   C     C_R   0.139878 0.130758 0.486530 -0.324306
C29   C     C_R   0.292168 0.071463 0.467533 0.105087
C30   C     C_R   0.726471 0.837251 0.499581 -0.191391
C31   C     C_R   0.252131 0.682389 0.663399 -0.312222
C32   C     C_R   0.652397 0.337780 0.365495 0.238360
C33   C     C_R   0.725391 0.289740 0.344729 0.362312
C34   C     C_R   0.379672 0.480547 0.312885 0.803481
C35   C     C_R   0.860985 0.346449 0.396571 0.035930
C36   C     C_R   0.925564 0.454297 0.469533 -0.083502
C37   C     C_R   0.843613 0.492828 0.494809 0.131832
C38   C     C_R   0.066448 0.522725 0.522824 0.025490
C39   C     C_R   0.118191 0.618923 0.604739 0.170962
C40   C     C_R   0.036779 0.652576 0.628087 -0.178513
C41   C     C_R   0.903455 0.591696 0.574518 -0.039381
C42   C     C_R   0.160527 0.503849 0.498462 0.044101
C43   C     C_R   0.336543 0.652925 0.639935 0.077188
C44   C     C_R   0.681746 0.525924 0.795106 -0.211661
C45   C     C_R   0.311225 0.469571 0.205185 -0.076802
C46   C     C_R   0.680310 0.524846 0.965569 0.179892
C47   C     C_R   0.617393 0.516450 0.862384 -0.325210
C48   C     C_R   0.809056 0.546004 0.832569 0.532269
Cu1   Cu    Cu3+1 0.416420 0.526630 0.522910 0.955437
Cu2   Cu    Cu3+1 0.583580 0.473370 0.477090 0.963212
H1    H     H_    0.831390 0.546309 0.156412 0.152834
H2    H     H_    0.331306 0.439475 0.974987 0.130565
H3    H     H_    0.972782 0.747393 0.363848 0.163083
H4    H     H_    0.111647 0.196837 0.487968 0.189138
H5    H     H_    0.792372 0.109488 0.601720 0.155539
H6    H     H_    0.439373 0.699907 0.686324 0.121156
H7    H     H_    0.146695 0.455942 0.230180 0.176892
H8    H     H_    0.077734 0.728462 0.688501 0.142453
H9    H     H_    0.291335 0.754238 0.727615 0.132807
H10   H     H_    0.134822 0.443032 0.431333 0.167547
H11   H     H_    0.849891 0.623889 0.599790 0.215539
H12   H     H_    0.450878 0.456662 0.151827 0.171233
H13   H     H_    0.521536 0.508320 0.835900 0.175459
N1    N     N_R   0.290690 0.566960 0.557640 -0.181933
N2    N     N_R   0.709100 0.433710 0.442970 -0.230413
O1    O     O_R   0.545970 0.684450 0.528810 -0.528294
O2    O     O_R   0.687130 0.639470 0.490120 -0.600241
O3    O     O_R   0.519670 0.535100 0.660030 -0.599601
O4    O     O_R   0.660830 0.490120 0.621340 -0.551852
O5    O     O_R   0.312870 0.360530 0.509880 -0.602064
O6    O     O_R   0.454030 0.315550 0.471190 -0.528171
O7    O     O_R   0.339170 0.509880 0.378660 -0.587373
O8    O     O_R   0.480330 0.464900 0.339970 -0.554836
N3    N     N_3   0.420778 0.101198 0.473697 -0.581185
H14   H     H_    0.461392 0.071049 0.533560 0.220063
H15   H     H_    0.414149 0.058173 0.406381 0.207590
N4    N     N_3   0.220363 0.859799 0.424695 -0.613758
H16   H     H_    0.245542 0.867145 0.360741 0.219619
H17   H     H_    0.298817 0.868504 0.486340 0.249059
O9    O     O_3   0.585675 0.894451 0.546182 -0.557963
C49   C     C_3   0.600768 0.939887 0.644743 -0.347364
H18   H     H_    0.630438 0.034306 0.656681 0.142248
H19   H     H_    0.670030 0.924248 0.704941 0.156255
H20   H     H_    0.504959 0.894897 0.652246 0.178996
N5    N     N_3   0.031496 0.182105 0.627672 -0.601753
H21   H     H_    0.118109 0.179220 0.655640 0.234144
H22   H     H_    0.039979 0.249876 0.590351 0.242711
N6    N     N_3   0.729697 0.693631 0.330212 -0.563247
H23   H     H_    0.725982 0.710991 0.258829 0.197959
H24   H     H_    0.739699 0.618893 0.332840 0.234637
N7    N     N_3   0.516497 0.284590 0.305239 -0.499622
H25   H     H_    0.506031 0.286702 0.229652 0.210877
H26   H     H_    0.470517 0.197037 0.309042 0.220631
N8    N     N_3   0.929235 0.288804 0.378504 -0.627661
H27   H     H_    0.911411 0.272500 0.300835 0.248389
H28   H     H_    0.894357 0.209018 0.399995 0.237268
O10   O     O_3   0.663528 0.187724 0.270207 -0.584194
C50   C     C_3   0.623057 0.089291 0.313630 -0.330735
H29   H     H_    0.518879 0.026678 0.268298 0.181966
H30   H     H_    0.633519 0.108946 0.394475 0.153061
H31   H     H_    0.679239 0.044560 0.308888 0.189529
N9    N     N_3   0.153582 0.434572 0.821291 -0.536462
H32   H     H_    0.155380 0.355864 0.821164 0.224050
H33   H     H_    0.246953 0.503023 0.834695 0.212762
N10   N     N_3   0.624894 0.535851 0.038014 -0.604173
H34   H     H_    0.540850 0.540295 0.001642 0.207224
H35   H     H_    0.689828 0.617667 0.088280 0.198828
O11   O     O_3   0.894162 0.612437 0.788420 -0.546069
C51   C     C_3   0.957912 0.730811 0.841253 -0.379829
H36   H     H_    0.887781 0.759535 0.846839 0.149940
H37   H     H_    0.012971 0.787853 0.799456 0.173836
H38   H     H_    0.028566 0.745609 0.918314 0.179566
N11   N     N_3   0.066486 0.580525 0.234733 -0.604477
H39   H     H_    0.015350 0.529038 0.276066 0.211691
H40   H     H_    0.083148 0.665331 0.255869 0.232681
O12   O     O_3   0.923473 0.432566 0.772197 -0.505016
C52   C     C_3   0.827964 0.313268 0.745752 -0.300734
H41   H     H_    0.760366 0.296667 0.786582 0.135847
H42   H     H_    0.873012 0.256424 0.760702 0.157652
H43   H     H_    0.769378 0.288759 0.663134 0.193184

loop_
_geom_bond_atom_site_label_1
_geom_bond_atom_site_label_2
_ccdc_geom_bond_type
C12   O4    A    
Cu1   O3    S    
C42   N1    A    
C17   C29   A    
C19   C20   A    
C41   H11   S    
C4    C8    A    
O10   C50   S    
N5    H21   S    
O12   C52   S    
N10   H35   S    
C26   C27   A    
C17   C23   S    
C31   C43   A    
C36   C37   A    
Cu2   O4    S    
C38   C42   A    
C3    C7    A    
C51   H37   S    
C47   H13   S    
C5    C6    A    
C32   N7    S    
C14   H12   S    
C46   N10   S    
O11   C51   S    
C18   C19   A    
C31   H9    S    
C1    O2    A    
C11   C15   A    
C35   C36   A    
C9    N9    S    
Cu1   O7    S    
C37   N2    A    
C18   C30   A    
Cu2   O2    S    
C44   C47   A    
N8    H28   S    
N5    H22   S    
Cu1   N1    S    
C21   C22   A    
C15   H7    S    
C23   O5    A    
C27   N6    S    
C49   H19   S    
C43   N1    A    
C49   H18   S    
C14   C45   A    
N4    H17   S    
C38   C39   A    
C40   H8    S    
Cu1   O1    S    
N9    H32   S    
C23   O6    A    
C24   C25   A    
N3    H14   S    
C51   H38   S    
C42   H10   S    
N7    H25   S    
C28   H4    S    
C8    C9    A    
C29   N3    S    
C2    C48   A    
C16   C29   A    
N4    H16   S    
C2    C4    A    
Cu2   O6    S    
C6    N11   S    
N7    H26   S    
C13   H2    S    
C12   O3    A    
C20   N5    S    
C1    O1    A    
C34   C45   S    
C20   C21   A    
N9    H33   S    
N3    H15   S    
C40   C41   A    
N6    H24   S    
Cu1   Cu2   S    
C50   H30   S    
C22   C27   A    
C52   H43   S    
C15   C45   A    
C26   H3    S    
C34   O7    A    
C39   C40   A    
C49   H20   S    
N11   H39   S    
C9    C10   A    
C35   N8    S    
C19   H5    S    
C16   C25   A    
C46   C47   A    
C22   C30   A    
C17   C28   A    
C24   C28   A    
O9    C49   S    
C10   C13   A    
C5    C11   A    
C6    C7    A    
C50   H31   S    
N10   H34   S    
C3    C46   A    
Cu1   O5    S    
C32   C33   A    
C52   H42   S    
C2    C3    A    
C25   C26   A    
C7    H1    S    
C12   C44   S    
C52   H41   S    
C48   O11   S    
Cu2   O8    S    
C36   C38   A    
C1    C30   S    
C33   C35   A    
C31   C39   A    
C33   O10   S    
C37   C41   A    
N8    H27   S    
Cu2   N2    S    
C10   C11   A    
C8    O12   S    
C34   O8    A    
C43   H6    S    
C4    C5    A    
N6    H23   S    
C18   O9    S    
C50   H29   S    
C21   C24   A    
C51   H36   S    
C16   N4    S    
C13   C14   A    
C44   C48   A    
C32   N2    A    
N11   H40   S    
