data_mof_unit_5420.cif
_audit_creation_date              2012-12-11T17:15:00-0500
_audit_creation_method            fapswitch 2.2
_symmetry_space_group_name_H-M    P1
_symmetry_Int_Tables_number       1
_space_group_crystal_system       triclinic
_cell_length_a                    7.218509
_cell_length_b                    12.160603
_cell_length_c                    21.295153
_cell_angle_alpha                 90.019735
_cell_angle_beta                  90.664221
_cell_angle_gamma                 90.071128
_cell_volume                      1869.19164442

loop_
_atom_site_label
_atom_site_type_symbol
_atom_type_description
_atom_site_fract_x
_atom_site_fract_y
_atom_site_fract_z
_atom_type_partial_charge
O1    O     O_R   0.354460 0.152320 0.595720 -0.533800
O2    O     O_R   0.645540 0.847680 0.404280 -0.533800
O3    O     O_R   0.145540 0.652320 0.404280 -0.533540
O4    O     O_R   0.854460 0.347680 0.595720 -0.533541
O5    O     O_R   0.683670 0.140090 0.727290 -0.538230
O6    O     O_R   0.316330 0.859910 0.272710 -0.538230
O7    O     O_R   0.816330 0.640090 0.272710 -0.537394
O8    O     O_R   0.183670 0.359910 0.727290 -0.537393
O9    O     O_R   0.854010 0.349340 0.727750 -0.535641
O10   O     O_R   0.145990 0.650660 0.272250 -0.535641
O11   O     O_R   0.645990 0.849340 0.272250 -0.534629
O12   O     O_R   0.354010 0.150660 0.727750 -0.534629
C1    C     C_R   0.516391 0.112124 0.746850 0.685176
C2    C     C_R   0.483609 0.887876 0.253150 0.685176
C3    C     C_R   0.983229 0.612145 0.253064 0.685484
C4    C     C_R   0.016771 0.387855 0.746936 0.685484
O13   O     O_R   0.684170 0.139420 0.596190 -0.536402
O14   O     O_R   0.315830 0.860580 0.403810 -0.536402
O15   O     O_R   0.815830 0.639420 0.403810 -0.536763
O16   O     O_R   0.184170 0.360580 0.596190 -0.536763
C5    C     C_R   0.514979 0.113137 0.574444 0.711032
C6    C     C_R   0.485021 0.886863 0.425556 0.711032
C7    C     C_R   0.984936 0.613125 0.425562 0.710997
C8    C     C_R   0.015064 0.386875 0.574438 0.710997
O17   O     O_3   0.520730 0.319480 0.661730 -0.375993
O18   O     O_3   0.479270 0.680520 0.338270 -0.375993
O19   O     O_3   0.979270 0.819480 0.338270 -0.375853
O20   O     O_3   0.020730 0.180520 0.661730 -0.375853
V1    V     V_3+5 0.795560 0.238090 0.661730 1.431989
V2    V     V_3+5 0.204440 0.761910 0.338270 1.431988
V3    V     V_3+5 0.704440 0.738090 0.338270 1.432473
V4    V     V_3+5 0.295560 0.261910 0.661730 1.432474
C9    C     C_R   0.014069 0.466859 0.798437 -0.032704
C10   C     C_R   0.985931 0.533141 0.201563 -0.032704
C11   C     C_R   0.489204 0.966579 0.201646 -0.031113
C12   C     C_R   0.510795 0.033422 0.798354 -0.031112
C13   C     C_R   0.049905 0.651862 0.837100 -0.189089
C14   C     C_R   0.950091 0.348137 0.162900 -0.189094
C15   C     C_R   0.509334 0.152717 0.163997 -0.192780
C16   C     C_R   0.490682 0.847283 0.836003 -0.192780
C17   C     C_R   0.048814 0.577654 0.787404 -0.164182
C18   C     C_R   0.951183 0.422346 0.212596 -0.164180
C19   C     C_R   0.506321 0.078504 0.213621 -0.165877
C20   C     C_R   0.493699 0.921495 0.786379 -0.165879
C21   C     C_R   0.989245 0.429042 0.859443 -0.193632
C22   C     C_R   0.010756 0.570958 0.140557 -0.193634
C23   C     C_R   0.481699 0.928014 0.140160 -0.190331
C24   C     C_R   0.518282 0.071987 0.859840 -0.190327
C25   C     C_R   0.003353 0.501002 0.911527 0.109438
C26   C     C_R   0.996645 0.498997 0.088473 0.109436
C27   C     C_R   0.493653 0.000682 0.088475 0.110769
C28   C     C_R   0.506331 0.999319 0.911525 0.110771
C29   C     C_R   0.022055 0.615860 0.899417 0.050542
C30   C     C_R   0.977940 0.384140 0.100583 0.050536
C31   C     C_R   0.497439 0.115990 0.101041 0.047314
C32   C     C_R   0.502557 0.884011 0.898959 0.047315
C33   C     C_R   0.999103 0.461812 0.974783 0.070263
C34   C     C_R   0.000894 0.538188 0.025217 0.070263
C35   C     C_R   0.500366 0.961731 0.025160 0.073638
C36   C     C_R   0.499613 0.038270 0.974841 0.073635
C37   C     C_R   0.000718 0.651752 0.011037 -0.123531
C38   C     C_R   0.999276 0.348247 0.988963 -0.123528
C39   C     C_R   0.487679 0.151593 0.989092 -0.118752
C40   C     C_R   0.512300 0.848408 0.010908 -0.118750
C41   C     C_R   0.013670 0.691427 0.949636 -0.052457
C42   C     C_R   0.986323 0.308573 0.050364 -0.052462
C43   C     C_R   0.489693 0.191355 0.050682 -0.054405
C44   C     C_R   0.510297 0.808647 0.949318 -0.054404
H1    H     H_    0.040662 0.657327 0.135776 0.099355
H2    H     H_    0.959343 0.342672 0.864224 0.099354
H3    H     H_    0.536381 0.159398 0.865192 0.097233
H4    H     H_    0.463584 0.840605 0.134808 0.097235
H5    H     H_    0.926868 0.393108 0.259853 0.102990
H6    H     H_    0.073127 0.606892 0.740148 0.102990
H7    H     H_    0.484343 0.891480 0.738530 0.102225
H8    H     H_    0.515693 0.108518 0.261470 0.102225
H9    H     H_    0.077557 0.736828 0.825876 0.111949
H10   H     H_    0.922437 0.263172 0.174124 0.111948
H11   H     H_    0.524024 0.238533 0.176012 0.112179
H12   H     H_    0.476006 0.761465 0.823988 0.112181
H13   H     H_    0.984164 0.712699 0.047120 0.150011
H14   H     H_    0.015829 0.287300 0.952880 0.150013
H15   H     H_    0.470638 0.212291 0.952819 0.148869
H16   H     H_    0.529338 0.787709 0.047182 0.148863
C45   C     C_1   0.995426 0.533135 0.478083 -0.178225
C46   C     C_1   0.004574 0.466865 0.521917 -0.178224
C47   C     C_1   0.504464 0.033144 0.521920 -0.178322
C48   C     C_1   0.495536 0.966856 0.478080 -0.178322
C49   C     C_2   0.007473 0.812780 0.939551 0.380786
H17   H     H_    0.964962 0.847329 0.894811 0.049846
O21   O     O_2   0.046559 0.876481 0.982053 -0.502377
C50   C     C_2   0.992517 0.187219 0.060450 0.380789
H18   H     H_    0.035025 0.152670 0.105190 0.049847
O22   O     O_2   0.953431 0.123519 0.017947 -0.502378
C51   C     C_2   0.474370 0.312470 0.060462 0.382404
H19   H     H_    0.420532 0.346127 0.103627 0.047326
O23   O     O_2   0.519050 0.376932 0.019336 -0.498263
C52   C     C_2   0.525625 0.687532 0.939539 0.382405
H20   H     H_    0.579494 0.653876 0.896378 0.047323
O24   O     O_2   0.480913 0.623069 0.980660 -0.498261

loop_
_geom_bond_atom_site_label_1
_geom_bond_atom_site_label_2
_ccdc_geom_bond_type
C47   C48   T    
C5    C47   S    
O1    C5    A    
O3    V2    S    
C9    C21   A    
O3    C7    A    
C51   H19   S    
C10   C18   A    
C11   C23   A    
C25   C33   A    
C33   C38   A    
C45   C46   T    
C41   C49   S    
C35   C40   A    
C26   C30   A    
C36   C39   A    
C40   C44   A    
O20   V1    S    
O9    C4    A    
C14   C18   A    
O10   C3    A    
O4    C8    A    
O11   C2    A    
O13   V1    S    
C40   H16   S    
C22   H1    S    
C28   C36   A    
C17   H6    S    
C15   C31   A    
O16   C8    A    
C16   C32   A    
O2    C6    A    
C16   H12   S    
C10   C22   A    
C6    C48   S    
C49   O21   D    
C11   C19   A    
C3    C10   S    
O5    C1    A    
O4    V1    S    
O9    V1    S    
C13   C29   A    
C34   C37   A    
O7    C3    A    
C38   H14   S    
O15   V3    S    
C35   C36   A    
O8    C4    A    
O12   V4    S    
O19   V2    S    
C43   C51   S    
O5    V1    S    
C15   C19   A    
C39   C43   A    
O7    V3    S    
C38   C42   A    
O8    V4    S    
C1    C12   S    
C2    C11   S    
C42   C50   S    
C14   H10   S    
C32   C44   A    
C13   H9    S    
O1    V4    S    
O13   C5    A    
C39   H15   S    
O2    V3    S    
C26   C34   A    
C20   H7    S    
O15   C7    A    
C4    C9    S    
O6    C2    A    
O10   V2    S    
C31   C43   A    
C14   C30   A    
C21   C25   A    
C50   O22   D    
O14   V2    S    
O6    V2    S    
C16   C20   A    
C52   O24   D    
C12   C20   A    
C27   C35   A    
C24   H3    S    
C29   C41   A    
O16   V4    S    
C19   H8    S    
C18   H5    S    
C21   H2    S    
O14   C6    A    
O18   V3    S    
C23   C27   A    
C51   O23   D    
C30   C42   A    
C22   C26   A    
C9    C17   A    
C37   H13   S    
C33   C34   A    
O17   V4    S    
C25   C29   A    
C50   H18   S    
C12   C24   A    
C27   C31   A    
C13   C17   A    
C44   C52   S    
C23   H4    S    
O11   V3    S    
C37   C41   A    
C24   C28   A    
O12   C1    A    
C52   H20   S    
C7    C45   S    
C49   H17   S    
C8    C46   S    
C28   C32   A    
C15   H11   S    
