data_mof_unit_64416.cif
_audit_creation_date              2012-12-10T19:38:44-0500
_audit_creation_method            fapswitch 2.2
_symmetry_space_group_name_H-M    P1
_symmetry_Int_Tables_number       1
_space_group_crystal_system       triclinic
_cell_length_a                    25.843407
_cell_length_b                    43.096786
_cell_length_c                    25.11423
_cell_angle_alpha                 90.000042
_cell_angle_beta                  120.860025
_cell_angle_gamma                 89.999949
_cell_volume                      24011.31024

loop_
_atom_site_label
_atom_site_type_symbol
_atom_type_description
_atom_site_fract_x
_atom_site_fract_y
_atom_site_fract_z
_atom_type_partial_charge
C1    C     C_R   0.360218 0.749770 0.000499 0.876405
C2    C     C_R   0.639781 0.250231 0.999499 0.876392
C3    C     C_R   0.639781 0.749769 0.999500 0.876399
C4    C     C_R   0.360218 0.250230 0.000498 0.876388
C5    C     C_R   0.860220 0.249768 0.000502 0.876362
C6    C     C_R   0.139782 0.750230 0.999501 0.876404
C7    C     C_R   0.139782 0.249770 0.999502 0.876418
C8    C     C_R   0.860219 0.750231 0.000500 0.876402
C9    C     C_R   0.500032 0.967452 0.000024 0.216228
C10   C     C_R   0.500035 0.032549 0.000026 0.216241
C11   C     C_R   0.999975 0.467451 0.999981 0.216235
C12   C     C_R   0.999977 0.532548 0.999982 0.216225
C13   C     C_R   0.500000 0.532496 0.000001 -0.202542
C14   C     C_R   0.500000 0.467504 0.000001 -0.202542
C15   C     C_R   1.000000 0.032496 0.999999 -0.202592
C16   C     C_R   1.000000 0.967504 0.999999 -0.202593
C17   C     C_R   0.771553 0.750848 0.216081 -0.215402
C18   C     C_R   0.228358 0.249075 0.783883 -0.215454
C19   C     C_R   0.228416 0.750895 0.783910 -0.215483
C20   C     C_R   0.771461 0.249332 0.216040 -0.215167
C21   C     C_R   0.271568 0.250938 0.216089 -0.215529
C22   C     C_R   0.728460 0.749153 0.783926 -0.215414
C23   C     C_R   0.728495 0.250689 0.783938 -0.215135
C24   C     C_R   0.271574 0.749104 0.216085 -0.215488
C25   C     C_R   0.772901 0.743425 0.162577 -0.147258
C26   C     C_R   0.227030 0.256514 0.837391 -0.147272
C27   C     C_R   0.227080 0.743460 0.837414 -0.147262
C28   C     C_R   0.772815 0.256711 0.162520 -0.147207
C29   C     C_R   0.272911 0.243490 0.162590 -0.147192
C30   C     C_R   0.727110 0.756576 0.837429 -0.147251
C31   C     C_R   0.727140 0.243307 0.837455 -0.147254
C32   C     C_R   0.272913 0.756540 0.162582 -0.147259
C33   C     C_R   0.750128 0.764402 0.112788 0.167241
C34   C     C_R   0.249876 0.235563 0.887227 0.167194
C35   C     C_R   0.249875 0.764425 0.887225 0.167205
C36   C     C_R   0.750146 0.235680 0.112826 0.167295
C37   C     C_R   0.250120 0.264447 0.112766 0.167141
C38   C     C_R   0.749873 0.735596 0.887214 0.167234
C39   C     C_R   0.749856 0.264324 0.887175 0.167332
C40   C     C_R   0.250124 0.735574 0.112774 0.167200
C41   C     C_R   0.725461 0.792700 0.116954 -0.247535
C42   C     C_R   0.274600 0.207275 0.883106 -0.247584
C43   C     C_R   0.274556 0.792722 0.883082 -0.247583
C44   C     C_R   0.725580 0.207372 0.117100 -0.247415
C45   C     C_R   0.225439 0.292749 0.116890 -0.247597
C46   C     C_R   0.774531 0.707296 0.883045 -0.247529
C47   C     C_R   0.774473 0.292621 0.882927 -0.247414
C48   C     C_R   0.225449 0.707275 0.116918 -0.247577
C49   C     C_R   0.724123 0.800011 0.170475 -0.201119
C50   C     C_R   0.275922 0.199948 0.829583 -0.201134
C51   C     C_R   0.275884 0.800046 0.829562 -0.201098
C52   C     C_R   0.724240 0.200101 0.170637 -0.201120
C53   C     C_R   0.224105 0.300086 0.170405 -0.201075
C54   C     C_R   0.775870 0.699984 0.829526 -0.201113
C55   C     C_R   0.775816 0.299894 0.829393 -0.201181
C56   C     C_R   0.224119 0.699950 0.170437 -0.201098
C57   C     C_R   0.747356 0.779164 0.220110 0.706566
C58   C     C_R   0.252614 0.220768 0.779900 0.706628
C59   C     C_R   0.252628 0.779212 0.779904 0.706623
C60   C     C_R   0.747368 0.221003 0.220179 0.706426
C61   C     C_R   0.247356 0.279259 0.220076 0.706607
C62   C     C_R   0.752648 0.720833 0.779894 0.706564
C63   C     C_R   0.752639 0.279006 0.779826 0.706436
C64   C     C_R   0.247368 0.720786 0.220092 0.706619
C65   C     C_R   0.304628 0.256364 0.055535 0.227866
C66   C     C_R   0.695368 0.743654 0.944454 0.227870
C67   C     C_R   0.695360 0.256308 0.944435 0.227884
C68   C     C_R   0.304630 0.743643 0.055539 0.227863
C69   C     C_R   0.804633 0.756346 0.055546 0.227860
C70   C     C_R   0.195370 0.243633 0.944464 0.227827
C71   C     C_R   0.195370 0.756357 0.944461 0.227855
C72   C     C_R   0.804640 0.243694 0.055564 0.227908
C73   C     C_R   0.303960 0.249923 0.000258 -0.166570
C74   C     C_R   0.696039 0.750076 0.999740 -0.166581
C75   C     C_R   0.696039 0.249925 0.999738 -0.166620
C76   C     C_R   0.303960 0.750076 0.000259 -0.166573
C77   C     C_R   0.803961 0.749924 0.000260 -0.166579
C78   C     C_R   0.196040 0.250076 0.999741 -0.166564
C79   C     C_R   0.196040 0.749924 0.999741 -0.166573
C80   C     C_R   0.803961 0.250076 0.000261 -0.166628
C81   C     C_R   0.415807 0.749950 0.831650 0.836363
C82   C     C_R   0.584193 0.250050 0.168348 0.836278
C83   C     C_R   0.584194 0.749951 0.168349 0.836346
C84   C     C_R   0.415807 0.250049 0.831650 0.836354
C85   C     C_R   0.915806 0.249951 0.831652 0.836277
C86   C     C_R   0.084193 0.750050 0.168350 0.836367
C87   C     C_R   0.084193 0.249950 0.168350 0.836369
C88   C     C_R   0.915806 0.750049 0.831651 0.836351
C89   C     C_R   0.249594 0.243563 0.944579 -0.082308
C90   C     C_R   0.750408 0.756417 0.055429 -0.082329
C91   C     C_R   0.750415 0.243624 0.055444 -0.082390
C92   C     C_R   0.249594 0.756428 0.944577 -0.082321
C93   C     C_R   0.749593 0.743583 0.944572 -0.082334
C94   C     C_R   0.250404 0.256437 0.055419 -0.082331
C95   C     C_R   0.250406 0.743572 0.055422 -0.082324
C96   C     C_R   0.749585 0.256378 0.944554 -0.082361
C97   C     C_R   0.553036 0.384879 0.039813 -0.162874
C98   C     C_R   0.446963 0.615121 0.960188 -0.162839
C99   C     C_R   0.446963 0.384879 0.960188 -0.162838
C100  C     C_R   0.553037 0.615121 0.039813 -0.162846
C101  C     C_R   0.053042 0.884879 0.039797 -0.162838
C102  C     C_R   0.946958 0.115121 0.960201 -0.162874
C103  C     C_R   0.946958 0.884879 0.960202 -0.162846
C104  C     C_R   0.053041 0.115121 0.039798 -0.162835
C105  C     C_R   0.500000 0.368397 0.000000 -0.024144
C106  C     C_R   0.500000 0.631602 0.000000 -0.024148
C107  C     C_R   1.000000 0.868398 1.000000 -0.024139
C108  C     C_R   0.000000 0.131602 1.000000 -0.024136
C109  C     C_R   0.897041 0.730090 0.729891 -0.120267
C110  C     C_R   0.102829 0.269836 0.270110 -0.120351
C111  C     C_R   0.102869 0.730141 0.270109 -0.120360
C112  C     C_R   0.896835 0.270029 0.729893 -0.120077
C113  C     C_R   0.397169 0.230163 0.729890 -0.120405
C114  C     C_R   0.602963 0.769912 0.270108 -0.120267
C115  C     C_R   0.603165 0.229971 0.270107 -0.120077
C116  C     C_R   0.397132 0.769858 0.729890 -0.120370
C117  C     C_R   0.864456 0.730464 0.665250 -0.080272
C118  C     C_R   0.135412 0.269462 0.334751 -0.080644
C119  C     C_R   0.135452 0.730515 0.334751 -0.080571
C120  C     C_R   0.864248 0.269657 0.665253 -0.079825
C121  C     C_R   0.364586 0.230536 0.665248 -0.080657
C122  C     C_R   0.635547 0.769539 0.334749 -0.080272
C123  C     C_R   0.635750 0.230343 0.334747 -0.079834
C124  C     C_R   0.364549 0.769485 0.665249 -0.080569
C125  C     C_R   0.815799 0.750876 0.633102 0.124380
C126  C     C_R   0.184204 0.249129 0.366900 0.124361
C127  C     C_R   0.184204 0.750871 0.366900 0.124375
C128  C     C_R   0.815804 0.249119 0.633104 0.124443
C129  C     C_R   0.315793 0.250870 0.633100 0.124362
C130  C     C_R   0.684203 0.749124 0.366898 0.124386
C131  C     C_R   0.684190 0.250884 0.366896 0.124448
C132  C     C_R   0.315796 0.749129 0.633100 0.124377
C133  C     C_R   0.800106 0.771237 0.666411 0.320578
C134  C     C_R   0.200032 0.228845 0.333595 0.320799
C135  C     C_R   0.199992 0.771177 0.333594 0.320791
C136  C     C_R   0.800325 0.228636 0.666415 0.320354
C137  C     C_R   0.299966 0.271154 0.666406 0.320850
C138  C     C_R   0.699893 0.728763 0.333589 0.320579
C139  C     C_R   0.699666 0.271369 0.333585 0.320365
C140  C     C_R   0.300008 0.728823 0.666406 0.320790
C141  C     C_R   0.833049 0.770858 0.731120 -0.183906
C142  C     C_R   0.167081 0.229217 0.268885 -0.183920
C143  C     C_R   0.167042 0.770804 0.268885 -0.183862
C144  C     C_R   0.833259 0.229021 0.731124 -0.183929
C145  C     C_R   0.332917 0.270782 0.731115 -0.183838
C146  C     C_R   0.666949 0.729141 0.268880 -0.183915
C147  C     C_R   0.666733 0.270983 0.268876 -0.183953
C148  C     C_R   0.332957 0.729196 0.731115 -0.183864
C149  C     C_R   0.881571 0.750273 0.763377 -0.050529
C150  C     C_R   0.118428 0.249728 0.236625 -0.050576
C151  C     C_R   0.118429 0.750272 0.236624 -0.050576
C152  C     C_R   0.881574 0.249726 0.763379 -0.050467
C153  C     C_R   0.381570 0.250272 0.763375 -0.050617
C154  C     C_R   0.618429 0.749728 0.236623 -0.050536
C155  C     C_R   0.618424 0.250275 0.236621 -0.050459
C156  C     C_R   0.381571 0.749728 0.763376 -0.050580
C157  C     C_R   0.721432 0.741566 0.532411 -0.244992
C158  C     C_R   0.278476 0.258599 0.467586 -0.245153
C159  C     C_R   0.278498 0.741440 0.467586 -0.245141
C160  C     C_R   0.721310 0.258221 0.532410 -0.244788
C161  C     C_R   0.221521 0.241400 0.532414 -0.245144
C162  C     C_R   0.778570 0.758435 0.467588 -0.244988
C163  C     C_R   0.778684 0.241783 0.467590 -0.244782
C164  C     C_R   0.221502 0.758560 0.532414 -0.245135
C165  C     C_R   0.500000 0.665781 0.000000 0.824745
C166  C     C_R   0.500000 0.334219 0.000000 0.824727
C167  C     C_R   0.000000 0.165781 1.000000 0.824724
C168  C     C_R   1.000000 0.834219 0.000000 0.824743
C169  C     C_R   0.689251 0.741114 0.467733 0.685796
C170  C     C_R   0.310655 0.259048 0.532265 0.685967
C171  C     C_R   0.310678 0.740991 0.532265 0.685954
C172  C     C_R   0.689126 0.258675 0.467732 0.685592
C173  C     C_R   0.189342 0.240951 0.467735 0.685971
C174  C     C_R   0.810750 0.758886 0.532267 0.685796
C175  C     C_R   0.810868 0.241328 0.532268 0.685588
C176  C     C_R   0.189322 0.759009 0.467734 0.685961
C177  C     C_R   0.717847 0.749415 0.435046 -0.144406
C178  C     C_R   0.282150 0.250580 0.564953 -0.144439
C179  C     C_R   0.282152 0.749419 0.564953 -0.144426
C180  C     C_R   0.717838 0.250591 0.435045 -0.144410
C181  C     C_R   0.217847 0.249419 0.435047 -0.144430
C182  C     C_R   0.782154 0.750586 0.564954 -0.144403
C183  C     C_R   0.782156 0.249412 0.564955 -0.144405
C184  C     C_R   0.217848 0.750581 0.435047 -0.144427
C185  C     C_R   0.552985 0.417235 0.039780 -0.077637
C186  C     C_R   0.447015 0.582765 0.960221 -0.077642
C187  C     C_R   0.447015 0.417235 0.960221 -0.077645
C188  C     C_R   0.552985 0.582765 0.039780 -0.077640
C189  C     C_R   0.052990 0.917236 0.039763 -0.077650
C190  C     C_R   0.947010 0.082764 0.960235 -0.077646
C191  C     C_R   0.947009 0.917236 0.960235 -0.077648
C192  C     C_R   0.052990 0.082764 0.039764 -0.077652
C193  C     C_R   0.500000 0.433453 0.000001 0.205703
C194  C     C_R   0.500000 0.566547 0.000001 0.205700
C195  C     C_R   1.000000 0.933453 0.999999 0.205726
C196  C     C_R   1.000000 0.066547 0.999999 0.205728
C197  C     C_R   0.481918 0.483719 0.036407 0.228516
C198  C     C_R   0.518082 0.516281 0.963595 0.228518
C199  C     C_R   0.518082 0.483719 0.963595 0.228515
C200  C     C_R   0.481918 0.516281 0.036407 0.228515
C201  C     C_R   0.982173 0.983719 0.036617 0.228517
C202  C     C_R   0.017826 0.016281 0.963380 0.228515
C203  C     C_R   0.017826 0.983719 0.963380 0.228512
C204  C     C_R   0.982173 0.016281 0.036617 0.228512
C205  C     C_R   0.500001 0.834044 0.000001 0.942852
C206  C     C_R   0.500001 0.165956 0.000001 0.942885
C207  C     C_R   0.999999 0.334044 1.000000 0.942871
C208  C     C_R   0.999999 0.665956 0.999999 0.942846
C209  C     C_R   0.466396 0.115499 0.943829 0.154564
C210  C     C_R   0.533626 0.884495 0.056191 0.154603
C211  C     C_R   0.533637 0.115506 0.056191 0.154645
C212  C     C_R   0.466399 0.884501 0.943827 0.154587
C213  C     C_R   0.966384 0.615504 0.943810 0.154608
C214  C     C_R   0.033601 0.384500 0.056175 0.154567
C215  C     C_R   0.033597 0.615500 0.056176 0.154593
C216  C     C_R   0.966376 0.384495 0.943810 0.154650
C217  C     C_R   0.466584 0.083077 0.944111 0.581712
C218  C     C_R   0.533454 0.916918 0.055922 0.581701
C219  C     C_R   0.533465 0.083083 0.055922 0.581712
C220  C     C_R   0.466586 0.916923 0.944109 0.581698
C221  C     C_R   0.966559 0.583081 0.944081 0.581712
C222  C     C_R   0.033414 0.416923 0.055895 0.581715
C223  C     C_R   0.033411 0.583077 0.055896 0.581709
C224  C     C_R   0.966552 0.416918 0.944081 0.581727
C225  C     C_R   0.500028 0.066733 0.000020 -0.313860
C226  C     C_R   0.500024 0.933268 0.000018 -0.313845
C227  C     C_R   0.999982 0.566732 0.999986 -0.313843
C228  C     C_R   0.999980 0.433267 0.999985 -0.313856
C229  C     C_R   0.500011 0.131931 0.000007 -0.343022
C230  C     C_R   0.500008 0.868069 0.000006 -0.343042
C231  C     C_R   0.999994 0.631931 0.999995 -0.343049
C232  C     C_R   0.999993 0.368069 0.999995 -0.343031
C233  C     C_R   0.484563 0.016176 0.038166 -0.085308
C234  C     C_R   0.515507 0.983825 0.961887 -0.085285
C235  C     C_R   0.515508 0.016175 0.961887 -0.085286
C236  C     C_R   0.484561 0.983825 0.038165 -0.085297
C237  C     C_R   0.984487 0.516175 0.038108 -0.085265
C238  C     C_R   0.015463 0.483824 0.961854 -0.085285
C239  C     C_R   0.015464 0.516175 0.961854 -0.085275
C240  C     C_R   0.984487 0.483824 0.038107 -0.085263
H1    H     H_    0.594539 0.372800 0.070969 0.174726
H2    H     H_    0.405461 0.627200 0.929032 0.174748
H3    H     H_    0.405461 0.372800 0.929032 0.174752
H4    H     H_    0.594539 0.627200 0.070969 0.174743
H5    H     H_    0.094548 0.872801 0.070941 0.174742
H6    H     H_    0.905452 0.127199 0.929057 0.174721
H7    H     H_    0.905451 0.872801 0.929058 0.174737
H8    H     H_    0.094548 0.127199 0.070942 0.174746
H9    H     H_    0.707297 0.809021 0.078762 0.175085
H10   H     H_    0.292819 0.190974 0.921332 0.175066
H11   H     H_    0.292735 0.809034 0.921290 0.175092
H12   H     H_    0.707493 0.191010 0.078979 0.175100
H13   H     H_    0.207264 0.309055 0.078672 0.175115
H14   H     H_    0.792687 0.690974 0.921235 0.175099
H15   H     H_    0.792597 0.308972 0.921067 0.175068
H16   H     H_    0.207275 0.690963 0.078711 0.175102
H17   H     H_    0.705181 0.821875 0.173480 0.208313
H18   H     H_    0.294908 0.178092 0.826612 0.208336
H19   H     H_    0.294835 0.821910 0.826574 0.208323
H20   H     H_    0.705376 0.178228 0.173726 0.208246
H21   H     H_    0.205154 0.321953 0.173378 0.208353
H22   H     H_    0.794805 0.678118 0.826519 0.208309
H23   H     H_    0.794720 0.321757 0.826326 0.208234
H24   H     H_    0.205172 0.678085 0.173425 0.208320
H25   H     H_    0.934260 0.714002 0.753585 0.191202
H26   H     H_    0.065503 0.285862 0.246414 0.191243
H27   H     H_    0.065575 0.714097 0.246414 0.191224
H28   H     H_    0.933884 0.286215 0.753587 0.191155
H29   H     H_    0.434496 0.214137 0.753585 0.191243
H30   H     H_    0.565746 0.786001 0.246414 0.191200
H31   H     H_    0.566120 0.213782 0.246413 0.191157
H32   H     H_    0.434427 0.785902 0.753586 0.191223
H33   H     H_    0.876919 0.714654 0.640140 0.181188
H34   H     H_    0.122843 0.285210 0.359861 0.181147
H35   H     H_    0.122916 0.714749 0.359861 0.181149
H36   H     H_    0.876541 0.285565 0.640143 0.181191
H37   H     H_    0.377154 0.214788 0.640138 0.181149
H38   H     H_    0.623088 0.785349 0.359860 0.181186
H39   H     H_    0.623460 0.214435 0.359857 0.181190
H40   H     H_    0.377086 0.785250 0.640139 0.181152
H41   H     H_    0.820593 0.786748 0.756090 0.180260
H42   H     H_    0.179642 0.213386 0.243917 0.180173
H43   H     H_    0.179572 0.786653 0.243916 0.180189
H44   H     H_    0.820969 0.213037 0.756096 0.180382
H45   H     H_    0.320356 0.286614 0.756084 0.180175
H46   H     H_    0.679403 0.713249 0.243910 0.180262
H47   H     H_    0.679020 0.286969 0.243904 0.180365
H48   H     H_    0.320427 0.713348 0.756084 0.180188
H49   H     H_    0.699160 0.734804 0.557257 0.233858
H50   H     H_    0.300673 0.265487 0.442737 0.233886
H51   H     H_    0.300712 0.734582 0.442739 0.233883
H52   H     H_    0.698944 0.264817 0.557253 0.233817
H53   H     H_    0.199324 0.234512 0.557262 0.233902
H54   H     H_    0.800841 0.765196 0.442743 0.233860
H55   H     H_    0.801050 0.235187 0.442747 0.233823
H56   H     H_    0.199288 0.765418 0.557261 0.233887
H57   H     H_    0.594132 0.429669 0.070679 0.161073
H58   H     H_    0.405868 0.570331 0.929323 0.161074
H59   H     H_    0.405868 0.429669 0.929323 0.161075
H60   H     H_    0.594132 0.570331 0.070678 0.161075
H61   H     H_    0.094141 0.929670 0.070648 0.161045
H62   H     H_    0.905859 0.070331 0.929348 0.161044
H63   H     H_    0.905858 0.929669 0.929350 0.161046
H64   H     H_    0.094141 0.070330 0.070650 0.161047
H65   H     H_    0.471924 0.028457 0.067433 0.182673
H66   H     H_    0.528145 0.971544 0.932619 0.182682
H67   H     H_    0.528146 0.028456 0.932620 0.182674
H68   H     H_    0.471921 0.971545 0.067431 0.182685
H69   H     H_    0.971836 0.528456 0.067365 0.182683
H70   H     H_    0.028114 0.471544 0.932597 0.182674
H71   H     H_    0.028116 0.528455 0.932598 0.182684
H72   H     H_    0.971836 0.471544 0.067364 0.182677
H73   H     H_    0.789245 0.734633 0.254388 0.192234
H74   H     H_    0.210606 0.265268 0.745538 0.192393
H75   H     H_    0.210705 0.734691 0.745585 0.192324
H76   H     H_    0.789066 0.265589 0.254272 0.192039
H77   H     H_    0.289274 0.234739 0.254424 0.192358
H78   H     H_    0.710777 0.765369 0.745622 0.192228
H79   H     H_    0.710852 0.234442 0.745686 0.192064
H80   H     H_    0.289279 0.765309 0.254408 0.192318
H81   H     H_    0.791473 0.721372 0.159795 0.180881
H82   H     H_    0.208411 0.278558 0.840136 0.180957
H83   H     H_    0.208496 0.721408 0.840178 0.180914
H84   H     H_    0.791305 0.278773 0.159652 0.180785
H85   H     H_    0.291494 0.221434 0.159841 0.180927
H86   H     H_    0.708547 0.778631 0.840213 0.180871
H87   H     H_    0.708610 0.221253 0.840301 0.180811
H88   H     H_    0.291492 0.778594 0.159818 0.180906
O1    O     O_3   0.500000 0.749970 0.000000 -0.508709
O2    O     O_3   0.500000 0.250030 0.000000 -0.508705
O3    O     O_3   0.000000 0.249970 0.000000 -0.508707
O4    O     O_3   0.000000 0.750030 0.000000 -0.508710
O5    O     O_R   0.402360 0.768140 0.036330 -0.611831
O6    O     O_R   0.597640 0.231860 0.963670 -0.611762
O7    O     O_R   0.597640 0.768140 0.963670 -0.611825
O8    O     O_R   0.402360 0.231860 0.036330 -0.611825
O9    O     O_R   0.902360 0.268140 0.036330 -0.611763
O10   O     O_R   0.097640 0.731860 0.963670 -0.611826
O11   O     O_R   0.097640 0.268140 0.963670 -0.611823
O12   O     O_R   0.902360 0.731860 0.036330 -0.611820
O13   O     O_R   0.400350 0.731780 0.861400 -0.653573
O14   O     O_R   0.599650 0.268220 0.138600 -0.653613
O15   O     O_R   0.599650 0.731780 0.138600 -0.653584
O16   O     O_R   0.400350 0.268220 0.861400 -0.653570
O17   O     O_R   0.900350 0.231780 0.861400 -0.653602
O18   O     O_R   0.099650 0.768220 0.138600 -0.653569
O19   O     O_R   0.099650 0.231780 0.138600 -0.653572
O20   O     O_R   0.900350 0.768220 0.861400 -0.653582
O21   O     O_R   0.451490 0.680670 0.963650 -0.638038
O22   O     O_R   0.548510 0.319330 0.036350 -0.638084
O23   O     O_R   0.548510 0.680670 0.036350 -0.638051
O24   O     O_R   0.451490 0.319330 0.963650 -0.638027
O25   O     O_R   0.951490 0.180670 0.963650 -0.638081
O26   O     O_R   0.048510 0.819330 0.036350 -0.638035
O27   O     O_R   0.048510 0.180670 0.036350 -0.638026
O28   O     O_R   0.951490 0.819330 0.963650 -0.638050
O29   O     O_R   0.487790 0.819270 0.036340 -0.615672
O30   O     O_R   0.512210 0.180730 0.963660 -0.615639
O31   O     O_R   0.512210 0.819270 0.963660 -0.615660
O32   O     O_R   0.487790 0.180730 0.036340 -0.615701
O33   O     O_R   0.987790 0.319270 0.036340 -0.615634
O34   O     O_R   0.012210 0.680730 0.963660 -0.615669
O35   O     O_R   0.012210 0.319270 0.963660 -0.615699
O36   O     O_R   0.987790 0.680730 0.036340 -0.615656
O37   O     O_R   0.461070 0.768120 0.861410 -0.613622
O38   O     O_R   0.538930 0.231880 0.138590 -0.613619
O39   O     O_R   0.538930 0.768120 0.138590 -0.613621
O40   O     O_R   0.461070 0.231880 0.861410 -0.613609
O41   O     O_R   0.961070 0.268120 0.861410 -0.613624
O42   O     O_R   0.038930 0.731880 0.138590 -0.613621
O43   O     O_R   0.038930 0.268120 0.138590 -0.613604
O44   O     O_R   0.961070 0.731880 0.861410 -0.613620
O45   O     O_R   0.366040 0.731790 0.963660 -0.640277
O46   O     O_R   0.633960 0.268210 0.036340 -0.640334
O47   O     O_R   0.633960 0.731790 0.036340 -0.640286
O48   O     O_R   0.366040 0.268210 0.963660 -0.640263
O49   O     O_R   0.866040 0.231790 0.963660 -0.640329
O50   O     O_R   0.133960 0.768210 0.036340 -0.640286
O51   O     O_R   0.133960 0.231790 0.036340 -0.640279
O52   O     O_R   0.866040 0.768210 0.963660 -0.640296
Zn1   Zn    Zn3+2 0.517420 0.775920 0.948090 1.042817
Zn2   Zn    Zn3+2 0.482580 0.224080 0.051910 1.042811
Zn3   Zn    Zn3+2 0.482580 0.775920 0.051910 1.042813
Zn4   Zn    Zn3+2 0.517420 0.224080 0.948090 1.042855
Zn5   Zn    Zn3+2 0.017420 0.275920 0.948090 1.042810
Zn6   Zn    Zn3+2 0.982580 0.724080 0.051910 1.042824
Zn7   Zn    Zn3+2 0.982580 0.275920 0.051910 1.042862
Zn8   Zn    Zn3+2 0.017420 0.724080 0.948090 1.042820
Zn9   Zn    Zn3+2 0.430670 0.724000 0.948080 1.003082
Zn10  Zn    Zn3+2 0.569330 0.276000 0.051920 1.002984
Zn11  Zn    Zn3+2 0.569330 0.724000 0.051920 1.003062
Zn12  Zn    Zn3+2 0.430670 0.276000 0.948080 1.003087
Zn13  Zn    Zn3+2 0.930670 0.224000 0.948080 1.002989
Zn14  Zn    Zn3+2 0.069330 0.776000 0.051920 1.003081
Zn15  Zn    Zn3+2 0.069330 0.224000 0.051920 1.003084
Zn16  Zn    Zn3+2 0.930670 0.776000 0.948080 1.003059
Br1   Br    Br    0.379078 0.267541 0.130176 -0.447587
Br2   Br    Br    0.620913 0.732502 0.869796 -0.447834
Br3   Br    Br    0.620895 0.267412 0.869744 -0.447870
Br4   Br    Br    0.379082 0.732476 0.130186 -0.447755
Br5   Br    Br    0.879087 0.767500 0.130203 -0.447839
Br6   Br    Br    0.120921 0.232451 0.869828 -0.447617
Br7   Br    Br    0.120918 0.767525 0.869815 -0.447761
Br8   Br    Br    0.879105 0.232596 0.130260 -0.447839
Br9   Br    Br    0.735809 0.800793 0.625867 -0.422809
Br10  Br    Br    0.264545 0.199408 0.374149 -0.422763
Br11  Br    Br    0.264443 0.800647 0.374148 -0.422778
Br12  Br    Br    0.736357 0.198899 0.625880 -0.422753
Br13  Br    Br    0.235452 0.300592 0.625852 -0.422776
Br14  Br    Br    0.764186 0.699204 0.374133 -0.422832
Br15  Br    Br    0.763629 0.301109 0.374121 -0.422766
Br16  Br    Br    0.235555 0.699353 0.625853 -0.422806
F1    F     F_    0.630579 0.732166 0.437028 -0.610701
F2    F     F_    0.369234 0.268154 0.562969 -0.610642
F3    F     F_    0.369277 0.731923 0.562970 -0.610655
F4    F     F_    0.630331 0.267416 0.437028 -0.610752
F5    F     F_    0.130763 0.231845 0.437031 -0.610632
F6    F     F_    0.869422 0.767835 0.562971 -0.610697
F7    F     F_    0.869663 0.232587 0.562971 -0.610750
F8    F     F_    0.130723 0.768077 0.437030 -0.610647
Br17  Br    Br    0.416932 0.136406 0.865960 -0.369007
Br18  Br    Br    0.583077 0.863580 0.134054 -0.369126
Br19  Br    Br    0.583105 0.136422 0.134049 -0.369331
Br20  Br    Br    0.416941 0.863594 0.865957 -0.369008
Br21  Br    Br    0.916939 0.636417 0.865944 -0.369091
Br22  Br    Br    0.083057 0.363592 0.134045 -0.368958
Br23  Br    Br    0.083045 0.636407 0.134048 -0.368984
Br24  Br    Br    0.916919 0.363581 0.865948 -0.369309
F9    F     F_    0.432779 0.067455 0.889985 -0.584015
F10   F     F_    0.567262 0.932534 0.110056 -0.584031
F11   F     F_    0.567280 0.067467 0.110055 -0.584032
F12   F     F_    0.432786 0.932545 0.889981 -0.584021
F13   F     F_    0.932760 0.567464 0.889947 -0.584022
F14   F     F_    0.067212 0.432544 0.110024 -0.584010
F15   F     F_    0.067204 0.567456 0.110026 -0.584015
F16   F     F_    0.932748 0.432535 0.889948 -0.584021
Br25  Br    Br    0.457721 0.461223 0.086536 -0.351370
Br26  Br    Br    0.542279 0.538776 0.913465 -0.351378
Br27  Br    Br    0.542278 0.461223 0.913465 -0.351400
Br28  Br    Br    0.457722 0.538776 0.086537 -0.351367
Br29  Br    Br    0.958300 0.961222 0.087012 -0.351289
Br30  Br    Br    0.041698 0.038777 0.912985 -0.351270
Br31  Br    Br    0.041698 0.961222 0.912985 -0.351275
Br32  Br    Br    0.958301 0.038778 0.087012 -0.351316
F17   F     F_    0.746544 0.786455 0.272193 -0.646899
F18   F     F_    0.253408 0.213460 0.727814 -0.646762
F19   F     F_    0.253429 0.786515 0.727822 -0.646809
F20   F     F_    0.746558 0.213752 0.272280 -0.647159
F21   F     F_    0.246546 0.286574 0.272151 -0.646733
F22   F     F_    0.753461 0.713542 0.727812 -0.646901
F23   F     F_    0.753451 0.286259 0.727728 -0.647162
F24   F     F_    0.246565 0.713483 0.272173 -0.646814

loop_
_geom_bond_atom_site_label_1
_geom_bond_atom_site_label_2
_ccdc_geom_bond_type
C101  C107  A    
C57   F17   S    
C13   C200  A    
C65   Br1   S    
C34   C42   A    
C164  H56   S    
C26   C34   A    
O6    Zn4   S    
C110  C118  A    
C99   C187  A    
C115  H31   S    
C240  H72   S    
C83   C154  S    
O43   Zn7   S    
C97   C185  A    
C10   C235  A    
C170  F2    S    
C81   C156  S    
O41   Zn5   S    
C170  C178  A    
C175  C183  A    
C100  C188  A    
C121  H37   S    
C101  C189  A    
C123  H39   S    
C104  C192  A    
C160  H52   S    
C30   C38   A    
C176  C184  A    
C169  C177  A    
C3    C74   S    
C162  C177  A    
C214  C222  A    
C235  H67   S    
C8    O12   A    
C211  Br19  S    
C18   C58   A    
O2    Zn4   S    
C198  Br26  S    
C11   C228  S    
O32   Zn2   S    
C102  H6    S    
C9    C226  S    
C147  C155  A    
C112  H28   S    
C97   C105  A    
C104  C108  A    
C143  C151  A    
C214  C232  A    
C187  C193  A    
C64   F24   S    
C41   C49   A    
C168  O26   A    
C172  F4    S    
C68   C95   A    
C115  C123  A    
C202  C203  A    
C208  O34   A    
C117  H33   S    
O3    Zn13  S    
C121  C129  A    
C112  C120  A    
C72   C91   A    
C12   C227  S    
C212  C220  A    
C27   C35   A    
C21   C29   A    
C81   O13   A    
C17   H73   S    
O48   Zn12  S    
C23   C31   A    
C83   O15   A    
C216  C224  A    
C130  C177  S    
C157  H49   S    
C101  H5    S    
C146  C154  A    
C160  C172  A    
C32   H88   S    
O50   Zn14  S    
C164  C179  A    
C15   C196  S    
C36   C91   S    
O1    Zn9   S    
C13   C194  S    
C36   C44   A    
C192  H64   S    
C157  C182  A    
C158  H50   S    
C40   C95   S    
C206  O32   A    
C130  C138  A    
C39   C47   A    
C174  F6    S    
C83   O39   A    
C40   C48   A    
C209  Br17  S    
C10   C233  A    
C186  H58   S    
C125  C182  S    
C143  H43   S    
C233  H65   S    
C110  C150  A    
O4    Zn14  S    
C20   H76   S    
C14   C199  A    
C221  C227  A    
C21   H77   S    
C98   C106  A    
C17   C25   A    
C74   C90   A    
C23   H79   S    
C111  H27   S    
C16   C195  S    
O1    Zn3   S    
C142  H42   S    
C166  O22   A    
O2    Zn2   S    
C78   C94   A    
C30   H86   S    
C116  C156  A    
C25   C33   A    
C165  O21   A    
C43   H11   S    
C25   H81   S    
C126  C134  A    
C98   C186  A    
C148  H48   S    
C189  H61   S    
C103  C107  A    
C133  C141  A    
C82   O14   A    
C218  C226  A    
C2    C75   S    
O13   Zn9   S    
C209  C217  A    
C133  Br9   S    
C168  O28   A    
C5    O9    A    
C88   C149  S    
C208  O36   A    
C69   C77   A    
O35   Zn5   S    
C163  C175  A    
C174  C182  A    
C71   C79   A    
C124  H40   S    
O33   Zn7   S    
O34   Zn8   S    
O26   Zn14  S    
C146  H46   S    
C81   O37   A    
C63   F23   S    
C166  O24   A    
C52   H20   S    
C199  Br27  S    
C49   C57   A    
C105  C166  S    
C124  C132  A    
C111  C119  A    
O12   Zn6   S    
C52   C60   A    
C102  C190  A    
C49   H17   S    
C71   C92   A    
O1    Zn11  S    
O2    Zn12  S    
C56   C64   A    
C66   Br2   S    
C206  O30   A    
C35   C43   A    
C29   H85   S    
C100  H4    S    
C75   C91   A    
C86   O42   A    
C147  H47   S    
C44   C52   A    
C135  C143  A    
C67   Br3   S    
C224  F16   S    
C206  C229  S    
C127  C184  S    
O42   Zn6   S    
C171  C179  A    
C128  C183  S    
C135  Br11  S    
C122  H38   S    
C223  F15   S    
C129  C137  A    
O3    Zn7   S    
C120  H36   S    
C51   C59   A    
C159  H51   S    
O4    Zn16  S    
C14   C197  A    
C98   H2    S    
C165  O23   A    
C109  H25   S    
C210  Br18  S    
C215  C223  A    
C158  C170  A    
C50   H18   S    
C19   C59   A    
C11   C240  A    
C119  H35   S    
C6    O10   A    
C187  H59   S    
C69   Br5   S    
C59   F19   S    
C3    O7    A    
O23   Zn11  S    
C220  C226  A    
C28   C36   A    
C4    C73   S    
C84   O40   A    
C42   C50   A    
C66   C93   A    
C82   C155  S    
C82   O38   A    
O37   Zn1   S    
C76   C92   A    
O39   Zn3   S    
C8    C77   S    
C70   C89   A    
C67   C75   A    
C134  Br10  S    
C5    O49   A    
C118  H34   S    
C204  Br32  S    
C22   C30   A    
C1    C76   S    
O36   Zn6   S    
C186  C194  A    
C224  C228  A    
C202  Br30  S    
C163  H55   S    
C131  C180  S    
C100  C106  A    
C68   C76   A    
C211  C219  A    
C167  O27   A    
C138  Br14  S    
C34   C89   S    
C207  O35   A    
C144  C152  A    
O8    Zn2   S    
C138  C146  A    
O2    Zn10  S    
C38   C93   S    
O22   Zn10  S    
C114  C154  A    
C158  C181  A    
C191  C195  A    
C38   C46   A    
C185  H57   S    
C131  C139  A    
C173  C181  A    
C188  H60   S    
C103  C191  A    
C222  F14   S    
C237  C240  A    
C173  F5    S    
C126  C181  S    
C72   Br8   S    
C117  C125  A    
C234  H66   S    
O3    Zn5   S    
C217  C225  A    
C119  C127  A    
C88   O44   A    
C2    O6    A    
C22   H78   S    
C18   C26   A    
C71   Br7   S    
O45   Zn9   S    
C109  C117  A    
C11   C238  A    
C159  C171  A    
C140  Br16  S    
C192  C196  A    
C137  C145  A    
C127  C135  A    
O11   Zn5   S    
C128  C136  A    
C207  C232  S    
O9    Zn7   S    
C6    O50   A    
O51   Zn15  S    
O49   Zn13  S    
C239  H71   S    
C213  C221  A    
O14   Zn10  S    
C213  Br21  S    
C84   O16   A    
C104  H8    S    
C87   C150  S    
C10   C225  S    
C112  C152  A    
C212  Br20  S    
C159  C184  A    
C20   C60   A    
C145  H45   S    
C160  C183  A    
C21   C61   A    
C35   C92   S    
C172  C180  A    
C23   C63   A    
O7    Zn1   S    
C219  F11   S    
C24   C64   A    
O27   Zn15  S    
C114  H30   S    
O25   Zn13  S    
O18   Zn14  S    
C18   H74   S    
C167  O25   A    
C141  C149  A    
C50   C58   A    
C106  C165  S    
C88   O20   A    
C207  O33   A    
C238  C239  A    
C113  C153  A    
C4    O48   A    
C54   C62   A    
C129  C178  S    
C111  C151  A    
C197  C200  A    
C47   H15   S    
C87   O19   A    
C134  C142  A    
C161  C173  A    
C84   C153  S    
C189  C195  A    
O44   Zn8   S    
C222  C228  A    
C46   C54   A    
C210  C230  A    
C141  H41   S    
O46   Zn10  S    
C162  C174  A    
C113  H29   S    
C12   C237  A    
C28   H84   S    
C14   C193  S    
C55   H23   S    
C234  C235  A    
C16   C201  A    
C110  H26   S    
C236  H68   S    
C237  H69   S    
C51   H19   S    
C107  C168  S    
C211  C229  A    
C123  C131  A    
C9    C234  A    
C161  H53   S    
C197  Br25  S    
C58   F18   S    
C120  C128  A    
C70   Br6   S    
C132  C140  A    
C20   C28   A    
O30   Zn4   S    
C87   O43   A    
C217  F9    S    
C33   C41   A    
C142  C150  A    
C85   C152  S    
C73   C89   A    
C136  C144  A    
C86   C151  S    
C43   C51   A    
C6    C79   S    
O1    Zn1   S    
C77   C93   A    
C136  Br12  S    
C164  C176  A    
C171  F3    S    
C99   H3    S    
C103  H7    S    
C208  C231  S    
C97   H1    S    
C26   H82   S    
C42   H10   S    
C72   C80   A    
C29   C37   A    
C148  C156  A    
C19   H75   S    
C161  C178  A    
C116  H32   S    
C203  Br31  S    
C46   H14   S    
C17   C57   A    
C66   C74   A    
C157  C169  A    
C70   C78   A    
C201  Br29  S    
C139  Br15  S    
C60   F20   S    
C140  C148  A    
C24   C32   A    
C15   C204  A    
C53   H21   S    
O24   Zn12  S    
C1    O45   A    
C79   C95   A    
C139  C147  A    
C3    O47   A    
C215  C231  A    
C56   H24   S    
O21   Zn9   S    
O40   Zn4   S    
C62   F22   S    
O28   Zn16  S    
C190  H62   S    
C61   F21   S    
C65   C73   A    
C221  F13   S    
C216  C232  A    
O4    Zn6   S    
C44   H12   S    
C12   C239  A    
C116  C124  A    
C7    O51   A    
C144  H44   S    
C102  C108  A    
C198  C199  A    
C48   H16   S    
C16   C203  A    
C19   C27   A    
C205  O29   A    
O5    Zn3   S    
C190  C196  A    
C7    O11   A    
C145  C153  A    
C85   O41   A    
C188  C194  A    
C9    C236  A    
C205  C230  S    
C53   C61   A    
C233  C236  A    
O47   Zn11  S    
C68   Br4   S    
C99   C105  A    
C27   H83   S    
C13   C198  A    
C54   H22   S    
C169  F1    S    
O15   Zn11  S    
O16   Zn12  S    
C214  Br22  S    
C55   C63   A    
C200  Br28  S    
C109  C149  A    
C176  F8    S    
C22   C62   A    
C212  C230  A    
C218  F10   S    
C2    O46   A    
C223  C227  A    
C113  C121  A    
C209  C229  A    
C219  C225  A    
C5    C80   S    
O38   Zn2   S    
C7    C78   S    
O19   Zn15  S    
C65   C94   A    
C108  C167  S    
C4    O8    A    
O17   Zn13  S    
C86   O18   A    
C67   C96   A    
C201  C204  A    
C80   C96   A    
O10   Zn8   S    
C69   C90   A    
C15   C202  A    
C47   C55   A    
C1    O5    A    
C125  C133  A    
C48   C56   A    
C115  C155  A    
O52   Zn16  S    
C185  C193  A    
C213  C231  A    
C175  F7    S    
C191  H63   S    
C216  Br24  S    
C210  C218  A    
C31   H87   S    
C215  Br23  S    
C24   H80   S    
O3    Zn15  S    
C33   C90   S    
C220  F12   S    
O4    Zn8   S    
O29   Zn3   S    
C31   C39   A    
C37   C94   S    
C32   C40   A    
O31   Zn1   S    
C39   C96   S    
C205  O31   A    
C132  C179  S    
C45   C53   A    
C114  C122  A    
C238  H70   S    
C41   H9    S    
C163  C180  A    
C85   O17   A    
C8    O52   A    
C118  C126  A    
C162  H54   S    
C37   C45   A    
C122  C130  A    
C137  Br13  S    
C45   H13   S    
O20   Zn16  S    
