data_mof_unit_23720.cif
_audit_creation_date              2012-12-11T16:45:22-0500
_audit_creation_method            fapswitch 2.2
_symmetry_space_group_name_H-M    P1
_symmetry_Int_Tables_number       1
_space_group_crystal_system       triclinic
_cell_length_a                    19.91058
_cell_length_b                    17.122946
_cell_length_c                    15.390954
_cell_angle_alpha                 89.820522
_cell_angle_beta                  52.535122
_cell_angle_gamma                 89.787029
_cell_volume                      4164.81274206

loop_
_atom_site_label
_atom_site_type_symbol
_atom_type_description
_atom_site_fract_x
_atom_site_fract_y
_atom_site_fract_z
_atom_type_partial_charge
C1    C     C_R   0.846550 0.679214 0.031664 -0.076601
C2    C     C_R   0.141021 0.686863 0.986065 -0.069949
C3    C     C_R   0.370511 0.192593 0.997247 -0.105682
C4    C     C_R   0.657149 0.175862 0.958414 -0.070625
C5    C     C_R   0.812076 0.356427 0.322872 0.078474
C6    C     C_R   0.111348 0.315707 0.696278 0.080858
C7    C     C_R   0.388001 0.815218 0.303225 0.082543
C8    C     C_R   0.608560 0.815507 0.699244 0.078565
C9    C     C_R   0.851088 0.310634 0.928541 0.035216
C10   C     C_R   0.212183 0.348410 0.971987 0.047376
C11   C     C_R   0.338651 0.815783 0.947088 0.044607
C12   C     C_R   0.651964 0.810656 0.065684 0.032866
C13   C     C_R   0.824548 0.654036 0.326631 0.080994
C14   C     C_R   0.188858 0.640828 0.674259 0.085647
C15   C     C_R   0.309535 0.139797 0.324937 0.074730
C16   C     C_R   0.613893 0.183204 0.693500 0.075908
C17   C     C_R   0.713788 0.643819 0.527514 0.178302
C18   C     C_R   0.293267 0.636880 0.471199 0.179049
C19   C     C_R   0.206430 0.137295 0.528158 0.168573
C20   C     C_R   0.648069 0.213376 0.513205 0.159682
C21   C     C_R   0.745332 0.679270 0.427323 0.009295
C22   C     C_R   0.267425 0.666833 0.571951 0.015976
C23   C     C_R   0.230956 0.166239 0.427361 0.025994
C24   C     C_R   0.631180 0.239355 0.610989 0.027958
C25   C     C_R   0.185763 0.230255 0.428731 -0.195593
C26   C     C_R   0.645453 0.318531 0.618775 -0.126903
C27   C     C_R   0.699088 0.741313 0.427161 -0.137506
C28   C     C_R   0.311940 0.730930 0.570594 -0.147854
C29   C     C_R   0.134955 0.275434 0.523735 -0.153507
C30   C     C_R   0.696348 0.362961 0.523219 -0.186452
C31   C     C_R   0.637600 0.778882 0.524832 -0.158635
C32   C     C_R   0.364349 0.774838 0.475098 -0.164210
C33   C     C_R   0.129311 0.256071 0.616996 0.035833
C34   C     C_R   0.732913 0.327471 0.421077 0.028425
C35   C     C_R   0.626173 0.756281 0.620803 0.029065
C36   C     C_R   0.370743 0.755189 0.381689 0.031078
C37   C     C_R   0.654518 0.682013 0.623964 0.194737
C38   C     C_R   0.344417 0.680616 0.377043 0.177399
C39   C     C_R   0.155933 0.181521 0.621835 0.170984
C40   C     C_R   0.698548 0.257003 0.419076 0.168754
C41   C     C_3   0.693741 0.652676 0.675915 -0.526743
C42   C     C_3   0.299202 0.653565 0.332702 -0.525993
C43   C     C_3   0.201979 0.154823 0.665393 -0.526086
C44   C     C_3   0.739870 0.185762 0.349287 -0.522426
C45   C     C_R   0.851216 0.328466 0.218343 -0.141175
C46   C     C_R   0.099924 0.301856 0.792694 -0.141758
C47   C     C_R   0.398635 0.801972 0.207367 -0.139396
C48   C     C_R   0.598136 0.801667 0.794755 -0.137604
C49   C     C_3   0.758071 0.610904 0.570539 -0.532520
C50   C     C_3   0.243213 0.605915 0.435545 -0.528381
C51   C     C_3   0.257469 0.106763 0.562935 -0.519968
C52   C     C_3   0.684617 0.138009 0.452140 -0.512379
C53   C     C_2   0.775969 0.190167 0.971315 -0.344698
C54   C     C_2   0.292155 0.230231 0.923762 -0.354654
C55   C     C_2   0.243048 0.711905 0.020951 -0.373739
C56   C     C_2   0.730014 0.692498 0.016276 -0.350320
C57   C     C_2   0.294651 0.758085 0.934334 0.466664
C58   C     C_2   0.687031 0.749163 0.091042 0.456724
C59   C     C_2   0.816194 0.250060 0.900658 0.449426
C60   C     C_2   0.288474 0.308066 0.939431 0.453831
C61   C     C_R   0.867981 0.387892 0.894435 -0.080514
C62   C     C_R   0.170903 0.410055 0.046033 -0.071575
C63   C     C_R   0.360633 0.890467 0.903896 -0.097913
C64   C     C_R   0.633377 0.887115 0.103448 -0.087803
C65   C     C_R   0.872094 0.591409 0.316868 -0.143375
C66   C     C_R   0.140034 0.579327 0.684502 -0.142688
C67   C     C_R   0.359180 0.078772 0.315176 -0.143527
C68   C     C_R   0.593855 0.106145 0.695971 -0.140988
C69   C     C_R   0.878273 0.298725 0.990640 -0.189940
C70   C     C_R   0.160385 0.322409 0.947463 -0.171581
C71   C     C_R   0.370253 0.801618 0.003027 -0.171360
C72   C     C_R   0.625010 0.799484 0.003582 -0.170374
C73   C     C_R   0.860862 0.681427 0.221970 -0.105471
C74   C     C_R   0.147221 0.673994 0.777666 -0.102773
C75   C     C_R   0.351290 0.172815 0.221284 -0.124037
C76   C     C_R   0.603948 0.197598 0.789413 -0.060800
C77   C     C_R   0.863397 0.414220 0.317249 -0.113303
C78   C     C_R   0.093784 0.393923 0.695823 -0.130677
C79   C     C_R   0.406119 0.893243 0.303911 -0.136817
C80   C     C_R   0.593639 0.894242 0.696283 -0.113739
C81   C     C_R   0.834515 0.583269 0.942748 -0.169416
C82   C     C_R   0.152198 0.593840 0.079414 -0.145282
C83   C     C_R   0.361506 0.100978 0.901709 -0.166356
C84   C     C_R   0.667912 0.082329 0.052316 -0.173503
C85   C     C_R   0.796243 0.649518 0.005990 0.226199
C86   C     C_R   0.184130 0.663701 0.024713 0.232060
C87   C     C_R   0.341694 0.177642 0.937558 0.208196
C88   C     C_R   0.708014 0.147123 0.984314 0.213667
H1    H     H_    0.843449 0.736803 0.061914 0.125220
H2    H     H_    0.139716 0.744308 0.957844 0.112765
H3    H     H_    0.370466 0.247234 0.031599 0.154969
H4    H     H_    0.663078 0.229670 0.917709 0.150015
H5    H     H_    0.723754 0.698881 0.692376 0.199832
H6    H     H_    0.263806 0.700849 0.326574 0.200560
H7    H     H_    0.237439 0.202290 0.670496 0.204839
H8    H     H_    0.724408 0.177607 0.291585 0.191617
H9    H     H_    0.651289 0.612220 0.745292 0.206697
H10   H     H_    0.340208 0.617029 0.258120 0.202255
H11   H     H_    0.161500 0.118564 0.740447 0.193386
H12   H     H_    0.808114 0.180467 0.312338 0.203104
H13   H     H_    0.822816 0.634787 0.529088 0.198464
H14   H     H_    0.176467 0.626664 0.487063 0.198941
H15   H     H_    0.324132 0.127471 0.510414 0.202564
H16   H     H_    0.637334 0.102437 0.453594 0.191404
H17   H     H_    0.828464 0.284686 0.192227 0.111560
H18   H     H_    0.092457 0.245557 0.829367 0.098768
H19   H     H_    0.404797 0.746122 0.170808 0.102548
H20   H     H_    0.589192 0.745892 0.833288 0.104812
H21   H     H_    0.864769 0.414218 0.833081 0.130677
H22   H     H_    0.192768 0.441073 0.085357 0.126234
H23   H     H_    0.353369 0.916621 0.845974 0.123995
H24   H     H_    0.636690 0.912072 0.165217 0.128494
H25   H     H_    0.868506 0.560950 0.380133 0.099253
H26   H     H_    0.153940 0.538264 0.622807 0.111221
H27   H     H_    0.345266 0.037591 0.377006 0.110113
H28   H     H_    0.580315 0.077974 0.645570 0.102431
H29   H     H_    0.888413 0.243142 0.014614 0.097804
H30   H     H_    0.171829 0.275993 0.892680 0.103739
H31   H     H_    0.374430 0.746557 0.034225 0.107428
H32   H     H_    0.617201 0.744774 0.975741 0.099529
H33   H     H_    0.844434 0.733748 0.199988 0.110534
H34   H     H_    0.166294 0.724776 0.798553 0.124735
H35   H     H_    0.330873 0.222155 0.199123 0.096806
H36   H     H_    0.602628 0.254006 0.821690 0.103743
H37   H     H_    0.855636 0.441061 0.385778 0.089254
H38   H     H_    0.083503 0.421719 0.641674 0.088225
H39   H     H_    0.416666 0.920377 0.357937 0.090552
H40   H     H_    0.585158 0.923120 0.641048 0.087355
H41   H     H_    0.816027 0.549960 0.900857 0.110241
H42   H     H_    0.163561 0.566443 0.132715 0.100361
H43   H     H_    0.353953 0.072751 0.845357 0.103863
H44   H     H_    0.687514 0.049172 0.093344 0.107521
H45   H     H_    0.197506 0.251381 0.354303 0.132598
H46   H     H_    0.627282 0.343319 0.694873 0.146655
H47   H     H_    0.716809 0.767316 0.352095 0.188983
H48   H     H_    0.298021 0.753789 0.645017 0.195782
N1    N     N_R   0.908660 0.628630 0.995840 -0.058748
N2    N     N_R   0.091340 0.628630 0.004160 -0.055166
N3    N     N_R   0.408660 0.128630 0.995840 -0.056090
N4    N     N_R   0.591340 0.128630 0.004160 -0.061854
N5    N     N_R   0.922310 0.368460 0.151950 -0.042065
N6    N     N_R   0.077690 0.368460 0.848050 -0.033951
N7    N     N_R   0.422310 0.868460 0.151950 -0.038742
N8    N     N_R   0.577690 0.868460 0.848050 -0.039334
N9    N     N_R   0.903470 0.421430 0.936420 -0.043230
N10   N     N_R   0.096530 0.421430 0.063580 -0.049923
N11   N     N_R   0.403470 0.921430 0.936420 -0.045306
N12   N     N_R   0.596530 0.921430 0.063580 -0.043705
N13   N     N_R   0.927500 0.575670 0.211370 -0.040813
N14   N     N_R   0.072500 0.575670 0.788630 -0.043455
N15   N     N_R   0.427500 0.075670 0.211370 -0.042123
N16   N     N_R   0.572500 0.075670 0.788630 -0.040668
N17   N     N_R   0.908660 0.365680 0.995820 -0.031771
N18   N     N_R   0.091340 0.365680 0.004180 -0.038480
N19   N     N_R   0.408660 0.865680 0.995820 -0.036665
N20   N     N_R   0.591340 0.865680 0.004180 -0.033678
N21   N     N_R   0.922310 0.631420 0.151980 -0.046591
N22   N     N_R   0.077690 0.631420 0.848020 -0.048415
N23   N     N_R   0.422310 0.131420 0.151980 -0.043877
N24   N     N_R   0.577690 0.131420 0.848020 -0.046605
N25   N     N_R   0.927500 0.426330 0.211360 -0.042542
N26   N     N_R   0.072500 0.426330 0.788640 -0.037440
N27   N     N_R   0.427500 0.926330 0.211360 -0.040687
N28   N     N_R   0.572500 0.926330 0.788640 -0.040570
N29   N     N_R   0.903470 0.570760 0.936440 -0.048979
N30   N     N_R   0.096530 0.570760 0.063560 -0.048306
N31   N     N_R   0.403470 0.070760 0.936440 -0.046065
N32   N     N_R   0.596530 0.070760 0.063560 -0.047875
Ni1   Ni    Ni4+2 0.000000 0.630300 0.000000 0.212253
Ni2   Ni    Ni4+2 0.500000 0.130300 0.000000 0.224860
Ni3   Ni    Ni4+2 1.000000 0.369700 0.000000 0.219958
Ni4   Ni    Ni4+2 0.500000 0.869700 0.000000 0.215474
Ni5   Ni    Ni4+2 0.988090 0.497570 0.863760 0.219414
Ni6   Ni    Ni4+2 0.011910 0.497570 0.136240 0.219393
Ni7   Ni    Ni4+2 0.488090 0.997570 0.863760 0.213984
Ni8   Ni    Ni4+2 0.511910 0.997570 0.136240 0.213732
H49   H     H_    0.109663 0.329799 0.518780 0.130249
H50   H     H_    0.715219 0.420683 0.528966 0.128072
H51   H     H_    0.610594 0.832289 0.520568 0.137627
H52   H     H_    0.389282 0.829131 0.480209 0.137346
H53   H     H_    0.752713 0.546287 0.578941 0.197447
H54   H     H_    0.251842 0.541944 0.420091 0.200384
H55   H     H_    0.249201 0.042861 0.579187 0.194693
H56   H     H_    0.721804 0.105800 0.472863 0.207609
H57   H     H_    0.779861 0.181685 0.038035 0.110079
H58   H     H_    0.245476 0.200381 0.921183 0.114818
H59   H     H_    0.237442 0.715481 0.095670 0.120544
H60   H     H_    0.729652 0.687217 0.946305 0.114912
Cl1   Cl    Cl    0.316887 0.748031 0.805106 -0.731621
Cl2   Cl    Cl    0.672995 0.752980 0.215623 -0.737914
Cl3   Cl    Cl    0.825868 0.260327 0.779092 -0.703476
Cl4   Cl    Cl    0.369760 0.363476 0.924247 -0.699052

loop_
_geom_bond_atom_site_label_1
_geom_bond_atom_site_label_2
_ccdc_geom_bond_type
N4    N32   A    
C83   C87   A    
N16   N24   A    
N5    N25   A    
C72   N20   A    
N23   Ni2   S    
C29   C33   A    
C7    C36   S    
C15   C75   A    
C42   H6    S    
C61   H21   S    
N1    N29   A    
C53   C59   D    
C77   H37   S    
C46   N6    A    
N26   Ni5   S    
C13   C65   A    
C83   H43   S    
C33   C39   A    
N3    Ni2   S    
C37   C41   S    
C75   H35   S    
C14   C74   A    
N31   Ni7   S    
C35   C37   A    
C24   C26   A    
N7    Ni4   S    
C66   N14   A    
C51   H55   S    
C42   H10   S    
C49   H13   S    
C54   C87   S    
C20   C40   A    
N11   Ni7   S    
C64   H24   S    
C51   H15   S    
C47   N7    A    
N5    Ni3   S    
C48   N8    A    
N28   Ni7   S    
C3    H3    S    
N13   Ni6   S    
N7    N27   A    
C2    H2    S    
C53   H57   S    
C80   N28   A    
C41   H9    S    
C67   H27   S    
C9    C61   A    
N21   Ni1   S    
C4    C88   A    
N16   Ni7   S    
C59   Cl3   S    
N19   Ni4   S    
C41   C49   S    
C41   H5    S    
C56   H60   S    
C56   C58   D    
C68   N16   A    
C62   H22   S    
C58   Cl2   S    
C43   H7    S    
N24   Ni2   S    
C16   C68   A    
C55   H59   S    
C82   H42   S    
C66   H26   S    
N1    Ni1   S    
C6    C46   A    
C81   C85   A    
C12   C58   S    
C44   C52   S    
C15   C23   S    
C21   C27   A    
C15   C67   A    
C16   C24   S    
C16   C76   A    
C64   N12   A    
N2    Ni1   S    
C45   N5    A    
C72   H32   S    
C10   C62   A    
N27   Ni8   S    
C63   N11   A    
C61   N9    A    
C45   H17   S    
C25   C29   A    
C25   H45   S    
N30   Ni6   S    
C76   N24   A    
C30   C34   A    
C3    C87   A    
C2    N2    A    
C84   C88   A    
C28   C32   A    
C14   C66   A    
N9    Ni5   S    
C17   C49   S    
C74   N22   A    
C39   C43   S    
C80   H40   S    
C28   H48   S    
C82   C86   A    
C27   C31   A    
N20   Ni4   S    
C69   N17   A    
C31   H51   S    
C9    C59   S    
C8    C35   S    
C70   N18   A    
C19   C23   A    
C8    C48   A    
C57   Cl1   S    
C26   H46   S    
C4    N4    A    
C44   H8    S    
C81   H41   S    
N10   N18   A    
C60   Cl4   S    
C71   N19   A    
C5    C34   S    
N17   Ni3   S    
C30   H50   S    
C13   C21   S    
C5    C45   A    
N12   Ni8   S    
N3    N31   A    
C50   H54   S    
C19   C39   A    
C42   C50   S    
C49   H53   S    
C10   C70   A    
C74   H34   S    
C68   H28   S    
C50   H14   S    
C47   H19   S    
C55   C57   D    
C54   H58   S    
C9    C69   A    
C34   C40   A    
C79   N27   A    
C1    C85   A    
C3    N3    A    
C17   C37   A    
C5    C77   A    
C78   H38   S    
C32   C36   A    
C1    N1    A    
C18   C50   S    
C7    C79   A    
C82   N30   A    
C75   N23   A    
N32   Ni8   S    
C79   H39   S    
C10   C60   S    
C52   H16   S    
C1    H1    S    
N15   Ni8   S    
N14   N22   A    
C18   C22   A    
C65   H25   S    
C52   H56   S    
C13   C73   A    
N6    N26   A    
N22   Ni1   S    
C78   N26   A    
N4    Ni2   S    
C73   N21   A    
N11   N19   A    
C7    C47   A    
N8    Ni4   S    
C73   H33   S    
C6    C33   S    
C71   H31   S    
C54   C60   D    
C27   H47   S    
C14   C22   S    
C55   C86   S    
C36   C38   A    
C18   C38   A    
N9    N17   A    
C20   C52   S    
C43   H11   S    
N25   Ni6   S    
C44   H12   S    
C43   C51   S    
C56   C85   S    
C48   H20   S    
C83   N31   A    
C70   H30   S    
C67   N15   A    
C12   C64   A    
N10   Ni6   S    
C31   C35   A    
C69   H29   S    
C77   N25   A    
C84   H44   S    
N18   Ni3   S    
C2    C86   A    
C53   C88   S    
C11   C71   A    
C23   C25   A    
C63   H23   S    
C12   C72   A    
C17   C21   A    
C6    C78   A    
N2    N30   A    
C46   H18   S    
C76   H36   S    
C38   C42   S    
C19   C51   S    
C40   C44   S    
N14   Ni5   S    
C84   N32   A    
C62   N10   A    
C8    C80   A    
C65   N13   A    
C81   N29   A    
C32   H52   S    
C22   C28   A    
N12   N20   A    
N13   N21   A    
C11   C57   S    
C11   C63   A    
N29   Ni5   S    
C20   C24   A    
N8    N28   A    
C29   H49   S    
N15   N23   A    
N6    Ni3   S    
C4    H4    S    
C26   C30   A    
