data_mof_unit_8904.cif
_audit_creation_date              2012-12-10T17:17:52-0500
_audit_creation_method            fapswitch 2.2
_symmetry_space_group_name_H-M    P1
_symmetry_Int_Tables_number       1
_space_group_crystal_system       triclinic
_cell_length_a                    14.629762
_cell_length_b                    15.846514
_cell_length_c                    9.625322
_cell_angle_alpha                 91.561018
_cell_angle_beta                  89.116172
_cell_angle_gamma                 90.201777
_cell_volume                      2230.3411544

loop_
_atom_site_label
_atom_site_type_symbol
_atom_type_description
_atom_site_fract_x
_atom_site_fract_y
_atom_site_fract_z
_atom_type_partial_charge
C1    C     C_R   0.378736 0.883636 0.499197 0.860680
C2    C     C_R   0.381079 0.119358 0.503867 0.857201
C3    C     C_R   0.878733 0.383638 0.499197 0.860613
C4    C     C_R   0.881054 0.619336 0.503865 0.857349
C5    C     C_R   0.312729 0.242695 0.403206 -0.239193
C6    C     C_R   0.333241 0.738923 0.451666 -0.233995
C7    C     C_R   0.812766 0.742723 0.403285 -0.239240
C8    C     C_R   0.833319 0.238869 0.451995 -0.233929
C9    C     C_R   0.745841 0.803449 0.395539 -0.221363
C10   C     C_R   0.770258 0.173814 0.452905 -0.174342
C11   C     C_R   0.245782 0.303399 0.395456 -0.221389
C12   C     C_R   0.270177 0.673872 0.452584 -0.174261
C13   C     C_R   0.673697 0.805137 0.491818 -0.089637
C14   C     C_R   0.681896 0.188484 0.503767 -0.046905
C15   C     C_R   0.173694 0.305130 0.491835 -0.089762
C16   C     C_R   0.181881 0.688497 0.503772 -0.046969
C17   C     C_R   0.664222 0.018743 0.147318 -0.138975
C18   C     C_R   0.164223 0.518731 0.147321 -0.139005
C19   C     C_R   0.740513 0.053761 0.086175 -0.305938
C20   C     C_R   0.240525 0.553725 0.086177 -0.305947
C21   C     C_R   0.742418 0.063216 0.945144 -0.263296
C22   C     C_R   0.242434 0.563181 0.945149 -0.263268
C23   C     C_R   0.672917 0.026846 0.863591 0.540838
C24   C     C_R   0.172923 0.526833 0.863589 0.540853
C25   C     C_R   0.583175 0.012127 0.925545 0.076218
C26   C     C_R   0.083177 0.512127 0.925545 0.076210
C27   C     C_R   0.581475 0.010183 0.075192 0.152163
C28   C     C_R   0.081476 0.510183 0.075193 0.152184
C29   C     C_R   0.422497 0.988311 0.074935 -0.062811
C30   C     C_R   0.922501 0.488291 0.074934 -0.062913
C31   C     C_R   0.618619 0.118573 0.500838 0.798347
C32   C     C_R   0.614215 0.878003 0.497387 0.795265
C33   C     C_R   0.118602 0.618587 0.500840 0.798397
C34   C     C_R   0.114204 0.377994 0.497390 0.795309
C35   C     C_R   0.422781 0.986885 0.927404 0.011277
C36   C     C_R   0.922788 0.486856 0.927404 0.011085
C37   C     C_R   0.241890 0.150563 0.749580 0.549116
C38   C     C_R   0.182934 0.921352 0.563056 0.481327
C39   C     C_R   0.741647 0.650343 0.749347 0.548994
C40   C     C_R   0.682838 0.421399 0.562364 0.481230
C41   C     C_R   0.159655 0.139693 0.823384 -0.223122
C42   C     C_R   0.095877 0.934173 0.622717 -0.209478
C43   C     C_R   0.659357 0.639446 0.822998 -0.223062
C44   C     C_R   0.595684 0.434271 0.621668 -0.209291
C45   C     C_R   0.579974 0.677940 0.780436 -0.246999
C46   C     C_R   0.537967 0.366220 0.645202 -0.236062
C47   C     C_R   0.080220 0.178110 0.780848 -0.247023
C48   C     C_R   0.038184 0.866101 0.646235 -0.235964
C49   C     C_R   0.583753 0.732365 0.669909 -0.165231
C50   C     C_R   0.565604 0.284900 0.606630 -0.193638
C51   C     C_R   0.083894 0.232442 0.670191 -0.165295
C52   C     C_R   0.065738 0.784823 0.607291 -0.193737
C53   C     C_R   0.665844 0.743260 0.593109 0.020889
C54   C     C_R   0.654324 0.269687 0.551589 0.030083
C55   C     C_R   0.165932 0.243318 0.593252 0.020819
C56   C     C_R   0.154381 0.769654 0.551930 0.029993
C57   C     C_R   0.242321 0.192298 0.619299 0.017054
C58   C     C_R   0.216232 0.837934 0.539041 -0.007452
C59   C     C_R   0.742191 0.692187 0.619166 0.017146
C60   C     C_R   0.716184 0.337960 0.538687 -0.007597
C61   C     C_R   0.313104 0.187130 0.513888 -0.110625
C62   C     C_R   0.307507 0.820153 0.495814 -0.089626
C63   C     C_R   0.813054 0.687086 0.513871 -0.110433
C64   C     C_R   0.807519 0.320142 0.495810 -0.089740
Cu1   Cu    Cu3+1 0.499990 1.000000 0.640660 1.009940
Cu2   Cu    Cu3+1 0.999990 0.500000 0.640660 1.009850
Cu3   Cu    Cu3+1 0.500010 0.000000 0.359340 0.943190
Cu4   Cu    Cu3+1 0.000010 0.500000 0.359340 0.943121
H1    H     H_    0.366283 0.240763 0.324097 0.163110
H2    H     H_    0.402720 0.725875 0.416771 0.133836
H3    H     H_    0.866375 0.740835 0.324259 0.163024
H4    H     H_    0.902842 0.225796 0.417351 0.133700
H5    H     H_    0.359307 0.975704 0.873703 0.163116
H6    H     H_    0.859320 0.475640 0.873706 0.163293
H7    H     H_    0.158790 0.105133 0.918931 0.147827
H8    H     H_    0.071373 0.997647 0.644255 0.158674
H9    H     H_    0.658410 0.604807 0.918466 0.147826
H10   H     H_    0.571131 0.497766 0.642899 0.158802
H11   H     H_    0.521762 0.764950 0.643547 0.149030
H12   H     H_    0.516731 0.234487 0.620087 0.147643
H13   H     H_    0.021866 0.264972 0.643845 0.149086
H14   H     H_    0.016863 0.734409 0.620725 0.147809
H15   H     H_    0.751294 0.850121 0.315567 0.149251
H16   H     H_    0.790936 0.111235 0.416883 0.125911
H17   H     H_    0.251171 0.350019 0.315396 0.149333
H18   H     H_    0.290806 0.611326 0.416323 0.125897
H19   H     H_    0.358653 0.979146 0.130779 0.131808
H20   H     H_    0.858661 0.479108 0.130775 0.131637
N1    N     N_R   0.501200 0.000000 0.147910 -0.190494
N2    N     N_R   0.001200 0.500000 0.147910 -0.190472
N3    N     N_R   0.501270 0.000000 0.852040 -0.187908
N4    N     N_R   0.001270 0.500000 0.852040 -0.187951
O1    O     O_R   0.409820 0.909830 0.618810 -0.592076
O2    O     O_R   0.409820 0.090170 0.618810 -0.520049
O3    O     O_R   0.909820 0.409830 0.618810 -0.592081
O4    O     O_R   0.909820 0.590170 0.618810 -0.520229
O5    O     O_R   0.409840 0.909830 0.381240 -0.577725
O6    O     O_R   0.409840 0.090170 0.381240 -0.587255
O7    O     O_R   0.909840 0.409830 0.381240 -0.577780
O8    O     O_R   0.909840 0.590170 0.381240 -0.587216
O9    O     O_R   0.590170 0.090170 0.618760 -0.538240
O10   O     O_R   0.590170 0.909830 0.618760 -0.523422
O11   O     O_R   0.090170 0.590170 0.618760 -0.538270
O12   O     O_R   0.090170 0.409830 0.618760 -0.523362
O13   O     O_R   0.590190 0.090180 0.381190 -0.602680
O14   O     O_R   0.590190 0.909820 0.381190 -0.615621
O15   O     O_R   0.090190 0.590180 0.381190 -0.602674
O16   O     O_R   0.090190 0.409820 0.381190 -0.615613
H21   H     H_    0.804635 0.086753 0.897429 0.158986
H22   H     H_    0.304652 0.586725 0.897449 0.158945
O17   O     O_3   0.697730 0.002278 0.729788 -0.537559
C65   C     C_3   0.770859 0.943632 0.729695 -0.343110
H23   H     H_    0.784742 0.921462 0.621474 0.180576
H24   H     H_    0.753211 0.887728 0.792508 0.163953
H25   H     H_    0.835825 0.972738 0.765136 0.139991
O18   O     O_3   0.197717 0.502289 0.729767 -0.537497
C66   C     C_3   0.270920 0.443722 0.729589 -0.343036
H26   H     H_    0.284685 0.421478 0.621366 0.180558
H27   H     H_    0.253431 0.387844 0.792588 0.163864
H28   H     H_    0.335903 0.472948 0.764760 0.140007
O19   O     O_3   0.320486 0.132026 0.819420 -0.578873
C67   C     C_3   0.357895 0.207684 0.874907 -0.338358
H29   H     H_    0.309230 0.239645 0.949054 0.153280
H30   H     H_    0.378719 0.251285 0.791441 0.146952
H31   H     H_    0.420171 0.192132 0.933217 0.197643
O20   O     O_3   0.230386 0.990292 0.514791 -0.606631
C68   C     C_3   0.195073 0.009433 0.383352 -0.347964
H32   H     H_    0.123124 0.031774 0.392693 0.163153
H33   H     H_    0.200095 0.954391 0.309041 0.157529
H34   H     H_    0.235538 0.061238 0.337907 0.199605
O21   O     O_3   0.820182 0.631730 0.819278 -0.578962
C69   C     C_3   0.857574 0.707342 0.874980 -0.338362
H35   H     H_    0.808862 0.739271 0.949100 0.153295
H36   H     H_    0.878484 0.750998 0.791633 0.146941
H37   H     H_    0.919795 0.691728 0.933378 0.197626
O22   O     O_3   0.730340 0.490317 0.514136 -0.606725
C70   C     C_3   0.695577 0.509044 0.382185 -0.347608
H38   H     H_    0.623307 0.530575 0.390403 0.162735
H39   H     H_    0.701767 0.454034 0.308042 0.157786
H40   H     H_    0.735627 0.561295 0.337302 0.199617
H41   H     H_    0.516741 0.669867 0.838535 0.159088
H42   H     H_    0.469991 0.376850 0.687819 0.143044
H43   H     H_    0.017028 0.170054 0.839059 0.159101
H44   H     H_    0.970282 0.876692 0.689132 0.143042
H45   H     H_    0.672734 0.000625 0.251845 0.202130
H46   H     H_    0.172730 0.500619 0.251850 0.202153
H47   H     H_    0.800445 0.068573 0.146944 0.167198
H48   H     H_    0.300461 0.568524 0.146945 0.167162

loop_
_geom_bond_atom_site_label_1
_geom_bond_atom_site_label_2
_ccdc_geom_bond_type
C58   C62   A    
Cu2   Cu4   S    
O20   C68   S    
C40   C60   A    
C13   C32   S    
O17   C65   S    
C33   O15   A    
Cu1   O9    S    
C14   C31   S    
C30   N2    A    
C1    C62   S    
C68   H33   S    
C53   C59   A    
C46   H42   S    
C54   C60   A    
C3    C64   S    
C29   H19   S    
C40   O22   S    
C4    C63   S    
C50   C54   A    
C31   O9    A    
C19   C21   A    
C24   C26   A    
C5    C11   A    
C66   H27   S    
C6    C12   A    
C26   N4    A    
C47   H43   S    
Cu3   N1    S    
O18   C66   S    
C48   H44   S    
C6    H2    S    
C10   H16   S    
C9    C13   A    
C5    H1    S    
Cu3   O6    S    
C4    O4    A    
C11   C15   A    
C47   C51   A    
C12   C16   A    
C69   H35   S    
C22   H22   S    
Cu4   N2    S    
C40   C44   A    
C20   H48   S    
Cu4   O15   S    
C26   C28   A    
C51   H13   S    
C15   C34   S    
C18   C20   A    
C2    C61   S    
C36   N4    A    
Cu1   O1    S    
C32   O14   A    
C45   H41   S    
C31   O13   A    
Cu1   O10   S    
C29   N1    A    
C65   H23   S    
C38   O20   S    
C44   C46   A    
C13   C53   A    
C39   C43   A    
C70   H40   S    
C25   N3    A    
C8    H4    S    
C52   C56   A    
C17   C27   A    
Cu2   O12   S    
C2    O2    A    
C18   C28   A    
C10   C14   A    
C66   H28   S    
C1    O5    A    
Cu3   O13   S    
Cu2   N4    S    
Cu1   Cu3   S    
C1    O1    A    
C34   O12   A    
C49   H11   S    
C15   C55   A    
C17   H45   S    
C16   C56   A    
C16   C33   S    
C41   H7    S    
C70   H39   S    
C45   C49   A    
C39   C59   A    
C41   C47   A    
C5    C61   A    
C42   C48   A    
C52   H14   S    
C43   C45   A    
C7    C63   A    
O19   C67   S    
C36   H6    S    
C8    C64   A    
C37   O19   S    
C65   H24   S    
Cu1   N3    S    
C8    C10   A    
Cu1   O2    S    
C14   C54   A    
C9    H15   S    
C24   O18   S    
C55   C57   A    
C22   C24   A    
C43   H9    S    
C30   H20   S    
O21   C69   S    
Cu2   O4    S    
C7    C9    A    
C46   C50   A    
C35   H5    S    
C33   O11   A    
C59   C63   A    
Cu2   O11   S    
C20   C22   A    
O22   C70   S    
C18   H46   S    
C50   H12   S    
C21   H21   S    
Cu3   O14   S    
C57   C61   A    
C32   O10   A    
C30   C36   A    
C25   C27   A    
C23   O17   S    
C70   H38   S    
C29   C35   A    
C42   H8    S    
C4    O8    A    
C12   H18   S    
C60   C64   A    
C34   O16   A    
C6    C62   A    
C67   H31   S    
C21   C23   A    
Cu4   O7    S    
C66   H26   S    
C7    H3    S    
C39   O21   S    
C11   H17   S    
C69   H37   S    
C49   C53   A    
C44   H10   S    
C17   C19   A    
C3    O3    A    
C56   C58   A    
C27   N1    A    
C51   C55   A    
C23   C25   A    
C37   C41   A    
C19   H47   S    
C68   H34   S    
Cu3   O5    S    
C38   C42   A    
C3    O7    A    
C48   C52   A    
C2    O6    A    
C69   H36   S    
C28   N2    A    
Cu4   O16   S    
C67   H29   S    
C67   H30   S    
C38   C58   A    
C65   H25   S    
C37   C57   A    
C68   H32   S    
Cu4   O8    S    
Cu2   O3    S    
C35   N3    A    
