data_mof_unit_18440.cif
_audit_creation_date              2012-12-10T19:45:46-0500
_audit_creation_method            fapswitch 2.2
_symmetry_space_group_name_H-M    P1
_symmetry_Int_Tables_number       1
_space_group_crystal_system       triclinic
_cell_length_a                    10.810437
_cell_length_b                    14.659024
_cell_length_c                    14.663635
_cell_angle_alpha                 65.195759
_cell_angle_beta                  103.779389
_cell_angle_gamma                 102.528193
_cell_volume                      2030.550756

loop_
_atom_site_label
_atom_site_type_symbol
_atom_type_description
_atom_site_fract_x
_atom_site_fract_y
_atom_site_fract_z
_atom_type_partial_charge
C1    C     C_R   0.482827 0.119639 0.312230 0.844884
C2    C     C_R   0.613576 0.780985 0.972812 -0.188556
C3    C     C_R   0.399444 0.153242 0.129544 -0.260012
C4    C     C_R   0.599225 0.846665 0.870756 -0.246827
C5    C     C_R   0.533967 0.288918 0.175612 0.323487
C6    C     C_R   0.461220 0.711963 0.825008 0.230339
C7    C     C_R   0.489997 0.360326 0.077936 -0.011584
C8    C     C_R   0.503667 0.640568 0.923206 0.005578
C9    C     C_R   0.425760 0.323060 0.001588 0.109194
C10   C     C_R   0.567891 0.677740 0.999532 0.123200
C11   C     C_R   0.508552 0.466853 0.052585 0.093553
C12   C     C_R   0.516687 0.880328 0.687820 0.840372
C13   C     C_R   0.483024 0.534015 0.948935 0.078421
C14   C     C_R   0.444935 0.492844 0.873816 -0.111635
C15   C     C_R   0.545011 0.508112 0.127771 -0.110737
C16   C     C_R   0.262750 0.000464 0.500949 0.828412
C17   C     C_R   0.737212 0.999714 0.498826 0.826097
C18   C     C_R   0.408848 0.389452 0.899702 -0.179835
C19   C     C_R   0.582251 0.611555 0.101666 -0.195415
C20   C     C_R   0.698715 0.276392 0.680515 -0.278656
C21   C     C_R   0.299734 0.723292 0.320005 -0.275964
C22   C     C_R   0.671892 0.198102 0.645964 0.130565
C23   C     C_R   0.870402 0.998210 0.497998 -0.051642
C24   C     C_R   0.324901 0.800551 0.355988 0.152333
C25   C     C_R   0.523389 0.288019 0.505234 0.108211
C26   C     C_R   0.482215 0.714667 0.490826 0.008034
C27   C     C_R   0.549649 0.372013 0.534389 -0.023242
C28   C     C_R   0.455369 0.630564 0.461929 -0.009385
C29   C     C_R   0.636395 0.362791 0.626039 0.148875
C30   C     C_R   0.365950 0.638725 0.371851 0.156738
C31   C     C_R   0.490590 0.462620 0.478173 0.066924
C32   C     C_R   0.515390 0.540461 0.517525 0.069814
C33   C     C_R   0.596953 0.524683 0.612169 -0.155519
C34   C     C_R   0.129534 0.002407 0.501340 -0.047135
C35   C     C_R   0.408112 0.478235 0.383884 -0.153174
C36   C     C_R   0.657943 0.438446 0.664130 -0.124314
C37   C     C_R   0.345172 0.563620 0.333094 -0.136108
C38   C     C_R   0.352981 0.079128 0.771395 -0.120336
C39   C     C_R   0.645427 0.930243 0.224705 -0.115934
C40   C     C_R   0.263414 0.035514 0.710288 -0.157630
C41   C     C_R   0.735732 0.970951 0.287889 -0.156596
C42   C     C_R   0.186535 0.095597 0.622692 -0.019585
C43   C     C_R   0.812973 0.908671 0.373540 -0.019421
C44   C     C_R   0.198700 0.201374 0.598194 0.446271
C45   C     C_R   0.906623 0.955343 0.439512 0.064611
C46   C     C_R   0.800393 0.803729 0.393824 0.438524
C47   C     C_R   0.288429 0.243743 0.661268 -0.210801
C48   C     C_R   0.709920 0.764362 0.328654 -0.208226
C49   C     C_R   0.365459 0.183047 0.746920 -0.216824
C50   C     C_R   0.632513 0.827134 0.245087 -0.214092
C51   C     C_R   0.963574 0.040878 0.558321 -0.123995
C52   C     C_R   0.036357 0.959986 0.440785 -0.123396
C53   C     C_R   0.093234 0.046032 0.559130 0.065779
C54   C     C_R   0.473453 0.187593 0.204262 -0.150220
C55   C     C_R   0.524724 0.812522 0.795948 -0.129237
C56   C     C_R   0.382655 0.219491 0.027831 -0.187279
Cu1   Cu    Cu3+1 0.466270 0.918260 0.475690 0.991915
Cu2   Cu    Cu3+1 0.533730 0.081740 0.524310 1.013700
H1    H     H_    0.435003 0.216730 0.794407 0.148056
H2    H     H_    0.064780 0.931530 0.392540 0.160219
H3    H     H_    0.644265 0.924598 0.850557 0.160432
H4    H     H_    0.356410 0.074844 0.149538 0.164821
H5    H     H_    0.330965 0.190651 0.970292 0.149076
H6    H     H_    0.665503 0.809865 0.030262 0.146700
H7    H     H_    0.443017 0.539864 0.794550 0.148555
H8    H     H_    0.546372 0.460978 0.207306 0.179957
H9    H     H_    0.721601 0.430390 0.735672 0.155294
H10   H     H_    0.279876 0.571090 0.262366 0.151764
H11   H     H_    0.557553 0.719055 0.552396 0.131070
H12   H     H_    0.562338 0.795682 0.196040 0.146949
H13   H     H_    0.451964 0.285443 0.440949 0.131357
H14   H     H_    0.615603 0.577808 0.648545 0.136074
H15   H     H_    0.388906 0.425119 0.347481 0.142448
H16   H     H_    0.254389 0.954731 0.731048 0.185787
H17   H     H_    0.744890 0.051191 0.270437 0.182544
H18   H     H_    0.048974 0.300650 0.331287 0.392585
H19   H     H_    0.955111 0.697496 0.658877 0.415877
H20   H     H_    0.299873 0.324204 0.643977 0.184293
H21   H     H_    0.698116 0.684587 0.342756 0.181233
H22   H     H_    0.370437 0.361211 0.839682 0.145936
H23   H     H_    0.275419 0.866699 0.315246 0.109644
H24   H     H_    0.620319 0.639954 0.161594 0.144816
H25   H     H_    0.379078 0.666654 0.652794 0.318731
H26   H     H_    0.859316 0.424294 0.208180 0.383545
H27   H     H_    0.718061 0.130465 0.688917 0.111629
H28   H     H_    0.766096 0.268694 0.750313 0.145323
H29   H     H_    0.230066 0.730136 0.251492 0.141590
H30   H     H_    0.412633 0.032161 0.837981 0.141123
H31   H     H_    0.585474 0.978831 0.159731 0.141216
H32   H     H_    0.935258 0.069938 0.606137 0.160828
N1    N     N_R   0.584450 0.204570 0.560790 -0.174040
N2    N     N_R   0.415550 0.795430 0.439210 -0.175164
O1    O     O_R   0.455540 0.022090 0.338120 -0.612837
O2    O     O_2   0.157560 0.391674 0.469508 -0.284716
O3    O     O_3   0.110222 0.258831 0.387104 -0.554395
O4    O     O_2   0.839411 0.611526 0.516905 -0.274605
O5    O     O_2   0.029100 0.738002 0.481974 -0.248787
O6    O     O_3   0.892741 0.739934 0.605044 -0.545434
O7    O     O_2   0.221893 0.611031 0.839230 -0.250675
O8    O     O_2   0.240110 0.786471 0.717442 -0.300832
O9    O     O_3   0.291143 0.651190 0.668072 -0.450661
O10   O     O_2   0.680766 0.337711 0.331172 -0.280460
O11   O     O_2   0.759097 0.222630 0.283346 -0.312211
O12   O     O_R   0.544460 0.977910 0.661880 -0.610142
O13   O     O_3   0.777566 0.412531 0.164276 -0.528394
O14   O     O_R   0.512510 0.160150 0.379180 -0.536425
O15   O     O_R   0.487490 0.839850 0.620820 -0.580255
O16   O     O_R   0.291160 0.930970 0.479480 -0.548021
O17   O     O_R   0.708840 0.069030 0.520520 -0.544884
O18   O     O_R   0.348130 0.069020 0.520540 -0.590364
O19   O     O_R   0.651870 0.930980 0.479460 -0.585202
O20   O     O_2   0.969172 0.263924 0.505388 -0.248859
S1    S     S_3+6 0.105936 0.282584 0.488912 -0.001261
S2    S     S_3+6 0.893283 0.719693 0.500426 0.013917
S3    S     S_3+6 0.299918 0.690264 0.762397 0.029247
S4    S     S_3+6 0.690452 0.314134 0.242961 0.003470

loop_
_geom_bond_atom_site_label_1
_geom_bond_atom_site_label_2
_ccdc_geom_bond_type
C21   H29   S    
C8    C13   A    
C23   C45   A    
Cu1   N2    S    
C27   C29   A    
Cu2   O17   S    
C14   C18   A    
O13   S4    S    
C6    C55   A    
C1    C54   S    
C36   H9    S    
C16   O18   A    
C47   C49   A    
C38   C49   A    
C7    C11   A    
C29   C36   A    
C17   C23   S    
C48   H21   S    
C35   C37   A    
C12   O12   A    
H18   O3    S    
O7    S3    D    
C3    C54   A    
C51   H32   S    
O6    S2    S    
C26   N2    A    
C37   H10   S    
C24   N2    A    
C33   C36   A    
C22   H27   S    
C52   H2    S    
C33   H14   S    
C16   C34   S    
C15   C19   A    
C11   C15   A    
C20   H28   S    
C22   N1    A    
C25   H13   S    
C19   H24   S    
Cu2   N1    S    
C44   C47   A    
C1    O14   A    
C40   C42   A    
Cu1   O1    S    
C13   C14   A    
C41   C43   A    
O4    S2    D    
O8    S3    D    
C42   C44   A    
C5    S4    S    
C17   O19   A    
O20   S1    D    
O2    S1    D    
C2    H6    S    
C20   C29   A    
C46   C48   A    
C25   N1    A    
C46   S2    S    
C27   C31   A    
C5    C54   A    
C28   C32   A    
C39   C41   A    
C5    C7    A    
C6    C8    A    
C45   C52   A    
C15   H8    S    
C4    H3    S    
C30   C37   A    
C38   H30   S    
Cu2   O14   S    
C2    C4    A    
C24   H23   S    
C41   H17   S    
C3    C56   A    
C23   C51   A    
C31   C32   A    
C10   C19   A    
Cu1   O16   S    
H26   O13   S    
C56   H5    S    
H19   O6    S    
C9    C56   A    
C43   C45   S    
C1    O1    A    
Cu1   O15   S    
C20   C22   A    
C44   S1    S    
C4    C55   A    
O9    S3    S    
C31   C35   A    
Cu2   O12   S    
C2    C10   A    
C3    H4    S    
C7    C9    A    
C35   H15   S    
H25   O9    S    
Cu2   O18   S    
C26   C28   A    
C8    C10   A    
C17   O17   A    
C12   O15   A    
C25   C27   A    
C21   C30   A    
C34   C52   A    
C49   H1    S    
C32   C33   A    
C28   C30   A    
O11   S4    D    
C50   H12   S    
C42   C53   S    
C38   C40   A    
C11   C13   A    
Cu1   Cu2   S    
Cu1   O19   S    
O3    S1    S    
C48   C50   A    
C14   H7    S    
C40   H16   S    
C43   C46   A    
C6    S3    S    
C12   C55   S    
O10   S4    D    
C16   O16   A    
C9    C18   A    
C39   C50   A    
C34   C53   A    
C18   H22   S    
C21   C24   A    
C26   H11   S    
C47   H20   S    
C51   C53   A    
O5    S2    D    
C39   H31   S    
