data_mof_unit_51471.cif
_audit_creation_date              2012-12-10T18:27:43-0500
_audit_creation_method            fapswitch 2.2
_symmetry_space_group_name_H-M    P1
_symmetry_Int_Tables_number       1
_space_group_crystal_system       triclinic
_cell_length_a                    19.463559
_cell_length_b                    19.073331
_cell_length_c                    19.424631
_cell_angle_alpha                 110.838718
_cell_angle_beta                  111.629477
_cell_angle_gamma                 103.905139
_cell_volume                      5663.38865709

loop_
_atom_site_label
_atom_site_type_symbol
_atom_type_description
_atom_site_fract_x
_atom_site_fract_y
_atom_site_fract_z
_atom_type_partial_charge
C1    C     C_R   0.891382 0.392119 0.999545 0.775522
C2    C     C_R   0.927800 0.827878 0.031916 0.226239
C3    C     C_R   0.749657 0.575727 0.753487 0.683770
C4    C     C_R   0.681945 0.500319 0.691005 -0.278633
C5    C     C_R   0.673468 0.431434 0.704653 -0.021674
C6    C     C_R   0.742725 0.431450 0.762060 0.677293
C7    C     C_R   0.813876 0.505362 0.819882 -0.241807
C8    C     C_R   0.812761 0.580573 0.822572 -0.063161
C9    C     C_R   0.561890 0.371159 0.732191 0.297593
C10   C     C_R   0.492288 0.300877 0.705944 0.247853
C11   C     C_R   0.450073 0.235328 0.622197 -0.376604
C12   C     C_R   0.882832 0.503082 0.882474 0.865026
C13   C     C_R   0.477780 0.235597 0.565563 0.218125
C14   C     C_R   0.550284 0.300344 0.592775 0.583171
C15   C     C_R   0.592861 0.367837 0.675405 -0.147165
C16   C     C_1   0.828776 0.331381 0.997903 -0.065036
C17   C     C_1   0.776594 0.280260 0.996631 0.158910
C18   C     C_1   0.716326 0.220492 0.996462 0.156035
C19   C     C_1   0.666019 0.169717 0.997553 0.005019
C20   C     C_R   0.993668 0.531068 0.266868 -0.317819
C21   C     C_R   0.072599 0.552526 0.278469 0.343255
C22   C     C_R   0.097730 0.488095 0.252626 -0.180447
C23   C     C_R   0.107987 0.607744 0.999612 0.776653
C24   C     C_R   0.042787 0.405095 0.215944 0.507433
C25   C     C_R   0.964396 0.385383 0.204752 0.509815
C26   C     C_R   0.939521 0.448547 0.229680 0.179032
C27   C     C_R   0.242281 0.503362 0.322992 0.431361
C28   C     C_R   0.314060 0.505053 0.317644 -0.252381
C29   C     C_R   0.318661 0.503446 0.246103 0.056856
C30   C     C_R   0.253826 0.501035 0.181337 0.643767
C31   C     C_R   0.184101 0.499642 0.186003 -0.245224
C32   C     C_R   0.178004 0.502440 0.257012 -0.083309
C33   C     C_R   0.440609 0.561462 0.234695 0.510846
C34   C     C_R   0.118464 0.499553 0.118203 0.866068
C35   C     C_R   0.491888 0.548519 0.200836 0.093318
C36   C     C_R   0.487578 0.468622 0.162748 0.497937
C37   C     C_R   0.435211 0.403032 0.161566 0.493788
C38   C     C_R   0.384596 0.415940 0.195579 0.372599
C39   C     C_R   0.385872 0.494848 0.230709 -0.221551
C40   C     C_1   0.169479 0.667316 0.998835 -0.038766
C41   C     C_1   0.221182 0.716785 0.997930 0.212776
C42   C     C_1   0.281919 0.776584 0.998538 0.201457
C43   C     C_1   0.333198 0.828658 0.999819 -0.074026
C44   C     C_R   0.503353 0.381377 0.384038 0.828707
C45   C     C_R   0.902535 0.758093 0.042456 0.308148
C46   C     C_R   0.617956 0.499417 0.620003 0.912365
C47   C     C_R   0.498446 0.619712 0.617266 0.921618
C48   C     C_R   0.381228 0.502561 0.382745 0.906439
C49   C     C_R   0.499856 0.882502 0.880063 0.873979
C50   C     C_R   0.607092 0.108700 0.999640 0.878770
C51   C     C_R   0.503460 0.120528 0.120540 0.831213
C52   C     C_R   0.392783 0.891178 0.000081 0.754459
C53   C     C_R   0.785936 0.513543 0.491401 0.188029
C54   C     C_R   0.706753 0.462396 0.417366 0.276567
C55   C     C_R   0.660690 0.383570 0.404234 -0.132729
C56   C     C_R   0.862331 0.679170 0.972290 -0.243640
C57   C     C_R   0.693068 0.358035 0.463117 -0.266755
C58   C     C_R   0.772043 0.405824 0.532193 0.273960
C59   C     C_R   0.818685 0.482632 0.545526 0.537375
C60   C     C_R   0.582861 0.256163 0.259463 0.327206
C61   C     C_R   0.506750 0.189956 0.189031 -0.139230
C62   C     C_R   0.433351 0.186118 0.188412 0.127093
C63   C     C_R   0.433977 0.249739 0.252225 -0.022826
C64   C     C_R   0.507148 0.316407 0.319521 -0.095038
C65   C     C_R   0.582499 0.320074 0.324959 0.054626
C66   C     C_R   0.305811 0.111221 0.051977 -0.281182
C67   C     C_R   0.867505 0.664548 0.899215 -0.090879
C68   C     C_R   0.230909 0.043983 0.990364 0.226491
C69   C     C_R   0.202649 0.979451 0.005300 0.523419
C70   C     C_R   0.248709 0.980761 0.081556 0.191659
C71   C     C_R   0.328570 0.046010 0.141417 0.211175
C72   C     C_R   0.355213 0.112290 0.126179 -0.151429
C73   C     C_R   0.627289 0.806997 0.567500 0.032250
C74   C     C_R   0.617462 0.807077 0.636721 0.275113
C75   C     C_R   0.537490 0.784066 0.626822 -0.197577
C76   C     C_R   0.472366 0.774549 0.554822 0.190493
C77   C     C_R   0.485428 0.781591 0.490973 0.507740
C78   C     C_R   0.910527 0.732449 0.894700 0.272117
C79   C     C_R   0.561081 0.796093 0.496430 0.464400
C80   C     C_R   0.520910 0.834052 0.755317 0.485581
C81   C     C_R   0.503751 0.818320 0.814485 -0.223068
C82   C     C_R   0.491328 0.741227 0.811957 -0.007801
C83   C     C_R   0.485450 0.676252 0.744575 0.690270
C84   C     C_R   0.499937 0.689136 0.683827 -0.245760
C85   C     C_R   0.521231 0.769428 0.690773 0.030090
C86   C     C_R   0.562414 0.754803 0.957074 0.272707
C87   C     C_R   0.558192 0.756207 0.028973 0.137252
C88   C     C_R   0.481948 0.719303 0.020295 -0.300361
C89   C     C_R   0.932551 0.815222 0.956446 0.226160
C90   C     C_R   0.410001 0.684966 0.943864 0.533242
C91   C     C_R   0.411713 0.692878 0.875451 0.284046
C92   C     C_R   0.488297 0.728500 0.882074 -0.183462
Cu1   Cu    Cu3+1 0.999510 0.561800 0.061330 1.150323
Cu2   Cu    Cu3+1 0.000490 0.438200 0.938670 1.185415
Cu3   Cu    Cu3+1 0.555790 0.555750 0.499960 1.101980
Cu4   Cu    Cu3+1 0.444210 0.444200 0.499990 1.178880
Cu5   Cu    Cu3+1 0.438200 0.001560 0.939770 1.165725
Cu6   Cu    Cu3+1 0.561800 0.998350 0.060150 1.218776
H1    H     H_    0.395573 0.182944 0.601128 0.266772
H2    H     H_    0.973606 0.579149 0.286642 0.244557
H3    H     H_    0.658397 0.297128 0.451197 0.267876
H4    H     H_    0.827875 0.627936 0.975735 0.244181
H5    H     H_    0.376734 0.246175 0.250251 0.202487
H6    H     H_    0.327057 0.162502 0.041725 0.267502
H7    H     H_    0.477774 0.717175 0.073602 0.270692
O1    O     O_R   0.918180 0.470790 0.051800 -0.582892
O2    O     O_R   0.453580 0.362680 0.410500 -0.552161
O3    O     O_R   0.637300 0.547080 0.590140 -0.534955
O4    O     O_R   0.543070 0.452880 0.590170 -0.590081
O5    O     O_R   0.546420 0.637270 0.589450 -0.609145
O6    O     O_R   0.452190 0.543070 0.589480 -0.508847
O7    O     O_R   0.456930 0.547080 0.409790 -0.618721
O8    O     O_R   0.362710 0.452870 0.409810 -0.509533
O9    O     O_R   0.446190 0.911170 0.857320 -0.504825
O10   O     O_R   0.550560 0.908460 0.958980 -0.581769
O11   O     O_R   0.529210 0.082710 0.949130 -0.582496
O12   O     O_R   0.919010 0.366410 0.948200 -0.541776
O13   O     O_R   0.633590 0.080000 0.050790 -0.504375
O14   O     O_R   0.449440 0.091450 0.040930 -0.581842
O15   O     O_R   0.553810 0.088740 0.142590 -0.515519
O16   O     O_R   0.366410 0.919910 0.949130 -0.565356
O17   O     O_R   0.470790 0.917200 0.050790 -0.568006
O18   O     O_R   0.909400 0.552190 0.961620 -0.591912
O19   O     O_R   0.910240 0.447810 0.858030 -0.505768
O20   O     O_R   0.080990 0.633590 0.051800 -0.537765
O21   O     O_R   0.081820 0.529210 0.948200 -0.559465
O22   O     O_R   0.089760 0.552190 0.141970 -0.563627
O23   O     O_R   0.090600 0.447810 0.038380 -0.525743
O24   O     O_R   0.547810 0.456880 0.410470 -0.571179
S1    S     S_3+6 0.948219 0.927389 0.110997 0.187818
O25   O     O_2   0.038719 0.974880 0.171513 -0.174699
O26   O     O_2   0.918875 0.977633 0.072873 -0.164215
O27   O     O_3   0.901056 0.917384 0.166349 -0.382351
H8    H     H_    0.922607 0.974325 0.213264 0.402316
S2    S     S_3+6 0.423945 0.152603 0.461145 0.161650
O28   O     O_2   0.346396 0.090932 0.443614 -0.204514
O29   O     O_2   0.403346 0.186370 0.400936 -0.171065
O30   O     O_3   0.484333 0.105696 0.446963 -0.393321
H9    H     H_    0.495840 0.085683 0.488716 0.370587
F1    F     F_    0.579506 0.297951 0.538751 -0.622527
S3    S     S_3+6 0.841634 0.427575 0.217047 0.093517
O31   O     O_2   0.797972 0.338946 0.192609 -0.149882
O32   O     O_2   0.850769 0.483731 0.300076 -0.216774
O33   O     O_3   0.786968 0.446484 0.141464 -0.486517
H10   H     H_    0.815959 0.506834 0.164229 0.372649
S4    S     S_3+6 0.133941 0.660289 0.324810 0.154431
O34   O     O_2   0.078763 0.700720 0.300126 -0.209211
O35   O     O_2   0.176347 0.698342 0.419865 -0.159032
O36   O     O_3   0.202821 0.681631 0.293677 -0.422520
H11   H     H_    0.245639 0.665924 0.320705 0.388342
F2    F     F_    0.065254 0.342751 0.189915 -0.551575
F3    F     F_    0.913169 0.304618 0.169067 -0.546396
S5    S     S_3+6 0.229994 0.497893 0.408632 0.095425
O37   O     O_2   0.167041 0.526203 0.419106 -0.254444
O38   O     O_2   0.203954 0.409477 0.390425 -0.187493
O39   O     O_3   0.318199 0.558074 0.501290 -0.526903
H12   H     H_    0.304314 0.556376 0.545032 0.388464
F4    F     F_    0.258364 0.498971 0.112402 -0.611521
S6    S     S_3+6 0.923651 0.763313 0.141699 0.116786
O40   O     O_2   0.853887 0.766368 0.156896 -0.144380
O41   O     O_2   0.933476 0.686947 0.139868 -0.274363
O42   O     O_3   0.010566 0.847186 0.221671 -0.451377
H13   H     H_    0.017540 0.844459 0.273670 0.409272
F5    F     F_    0.439841 0.637010 0.266916 -0.518111
S7    S     S_3+6 0.556545 0.629169 0.198567 0.188207
O43   O     O_2   0.524991 0.608686 0.107440 -0.231029
O44   O     O_2   0.558635 0.711453 0.248233 -0.098771
O45   O     O_3   0.651772 0.635234 0.238505 -0.414938
H14   H     H_    0.672123 0.656246 0.300042 0.388222
F6    F     F_    0.533292 0.453972 0.125498 -0.497109
F7    F     F_    0.431232 0.325952 0.124234 -0.582596
F8    F     F_    0.330337 0.350531 0.189046 -0.616353
F9    F     F_    0.898036 0.525104 0.608415 -0.525984
S8    S     S_3+6 0.848783 0.613896 0.516525 0.200413
O46   O     O_2   0.891554 0.604969 0.465601 -0.155870
O47   O     O_2   0.798134 0.659643 0.496495 -0.187234
O48   O     O_3   0.920510 0.670215 0.620120 -0.360257
H15   H     H_    0.950889 0.724912 0.628197 0.406989
S9    S     S_3+6 0.668750 0.491466 0.337740 0.060690
O49   O     O_2   0.607699 0.415861 0.252807 -0.266137
O50   O     O_2   0.628238 0.546347 0.361711 -0.325887
O51   O     O_3   0.743612 0.543304 0.327073 -0.409464
H16   H     H_    0.717567 0.529980 0.266808 0.422046
S10   S     S_3+6 0.814557 0.363701 0.595473 0.131309
O52   O     O_2   0.749016 0.308157 0.600024 -0.179271
O53   O     O_2   0.850801 0.312744 0.554805 -0.182841
O54   O     O_3   0.887676 0.439001 0.694616 -0.486175
H17   H     H_    0.940260 0.444510 0.696291 0.400405
S11   S     S_3+6 0.677601 0.256031 0.267346 0.102045
O55   O     O_2   0.693170 0.193999 0.294189 -0.182477
O56   O     O_2   0.670747 0.230459 0.181784 -0.265420
O57   O     O_3   0.759567 0.347459 0.337047 -0.463431
H18   H     H_    0.752857 0.381678 0.309242 0.409599
S12   S     S_3+6 0.170913 0.041477 0.895050 0.157647
O58   O     O_2   0.148800 0.961465 0.820697 -0.135873
O59   O     O_2   0.093569 0.045452 0.891531 -0.189939
O60   O     O_3   0.221961 0.121411 0.888492 -0.453316
H19   H     H_    0.218240 0.169998 0.925755 0.377026
F10   F     F_    0.129470 0.915380 0.944733 -0.517268
S13   S     S_3+6 0.200681 0.906600 0.104417 0.111310
O61   O     O_2   0.122095 0.837607 0.027322 -0.260161
O62   O     O_2   0.255913 0.869563 0.137802 -0.245447
O63   O     O_3   0.179990 0.956032 0.179616 -0.399138
H20   H     H_    0.158888 0.914125 0.194356 0.409110
S14   S     S_3+6 0.396260 0.040554 0.229453 0.128513
O64   O     O_2   0.353370 0.020116 0.274692 -0.068471
O65   O     O_2   0.419781 0.971975 0.194994 -0.273768
O66   O     O_3   0.482173 0.128713 0.301426 -0.500792
H21   H     H_    0.526342 0.111091 0.320293 0.404540
F11   F     F_    0.569786 0.801496 0.432071 -0.481832
S15   S     S_3+6 0.719975 0.818995 0.565326 0.209853
O67   O     O_2   0.773976 0.909967 0.608487 -0.113615
O68   O     O_2   0.764428 0.780265 0.609962 -0.164796
O69   O     O_3   0.701296 0.774589 0.464553 -0.380800
H22   H     H_    0.665959 0.715140 0.439462 0.358973
S16   S     S_3+6 0.704080 0.837761 0.735090 0.170582
O70   O     O_2   0.724114 0.765096 0.726907 -0.152921
O71   O     O_2   0.776229 0.908084 0.754546 -0.131201
O72   O     O_3   0.687840 0.869548 0.817740 -0.478363
H23   H     H_    0.733546 0.871846 0.864599 0.428738
S17   S     S_3+6 0.934696 0.709683 0.811473 0.159907
O73   O     O_2   0.878540 0.721695 0.743642 -0.095624
O74   O     O_2   0.021630 0.764737 0.844310 -0.140108
O75   O     O_3   0.923649 0.611462 0.767753 -0.459198
H24   H     H_    0.967908 0.609862 0.812680 0.338688
S18   S     S_3+6 0.373411 0.756113 0.541093 0.141727
O76   O     O_2   0.356018 0.828138 0.538886 -0.119507
O77   O     O_2   0.315303 0.679956 0.456566 -0.260536
O78   O     O_3   0.357884 0.740611 0.615095 -0.516209
H25   H     H_    0.298198 0.721025 0.592553 0.420975
F12   F     F_    0.423688 0.773188 0.421608 -0.511798
S19   S     S_3+6 0.548283 0.936472 0.767707 0.075312
O79   O     O_2   0.614658 0.996845 0.858034 -0.316948
O80   O     O_2   0.579317 0.948317 0.710558 -0.252229
O81   O     O_3   0.466324 0.957756 0.747564 -0.454690
H26   H     H_    0.488051 0.017996 0.767063 0.379922
F13   F     F_    0.472916 0.602226 0.743001 -0.579782
S20   S     S_3+6 0.658653 0.785382 0.960286 0.099241
O82   O     O_2   0.649417 0.743466 0.873653 -0.274413
O83   O     O_2   0.696363 0.877598 0.995160 -0.176495
O84   O     O_3   0.723243 0.761086 0.022548 -0.420002
H27   H     H_    0.701964 0.699960 0.989697 0.359029
S21   S     S_3+6 0.645020 0.806038 0.132388 0.182908
O85   O     O_2   0.707268 0.882606 0.147984 -0.140835
O86   O     O_2   0.619367 0.831085 0.198118 -0.164922
O87   O     O_3   0.688047 0.741250 0.143754 -0.358867
H28   H     H_    0.649414 0.686223 0.092754 0.354679
F14   F     F_    0.338490 0.645627 0.938166 -0.589186
S22   S     S_3+6 0.318081 0.657710 0.782167 0.092292
O88   O     O_2   0.246497 0.636247 0.795954 -0.179100
O89   O     O_2   0.320547 0.724130 0.757463 -0.294011
O90   O     O_3   0.305632 0.572828 0.702563 -0.444774
H29   H     H_    0.254887 0.558695 0.652012 0.388640
S23   S     S_3+6 0.957758 0.900822 0.937274 0.213602
O91   O     O_2   0.972063 0.882884 0.863393 -0.084978
O92   O     O_2   0.887940 0.925113 0.918758 -0.203859
O93   O     O_3   0.042327 0.981657 0.024801 -0.424879
H30   H     H_    0.046614 0.029266 0.014310 0.398293
F15   F     F_    0.747457 0.646432 0.754228 -0.580029
F16   F     F_    0.737217 0.362052 0.769015 -0.615410
S24   S     S_3+6 0.610097 0.462404 0.833835 0.066362
O94   O     O_2   0.678191 0.456117 0.897017 -0.272768
O95   O     O_2   0.644974 0.538775 0.829218 -0.311431
O96   O     O_3   0.544250 0.474461 0.868691 -0.384265
H31   H     H_    0.577391 0.525629 0.924943 0.381987
S25   S     S_3+6 0.457358 0.288109 0.775095 0.153241
O97   O     O_2   0.403623 0.332307 0.780540 -0.117364
O98   O     O_2   0.407974 0.197634 0.741042 -0.240845
O99   O     O_3   0.536194 0.326458 0.873069 -0.390588
H32   H     H_    0.568386 0.294393 0.864711 0.349162

loop_
_geom_bond_atom_site_label_1
_geom_bond_atom_site_label_2
_ccdc_geom_bond_type
C27   S5    S    
S2    O30   S    
S12   O59   D    
O63   H20   S    
C83   F13   S    
S7    O43   D    
C2    C89   A    
C41   C42   S    
C66   C68   A    
Cu3   Cu4   S    
C45   S6    S    
S16   O72   S    
C87   C88   A    
O75   H24   S    
O99   H32   S    
C80   C85   A    
Cu5   Cu6   S    
C53   C59   A    
S15   O69   S    
S2    O28   D    
C4    C46   S    
C53   C54   A    
C44   C64   S    
S6    O42   S    
S20   O84   S    
S22   O88   D    
S23   O91   D    
C22   C32   S    
C25   F3    S    
C58   S10   S    
C28   C29   A    
C37   C38   A    
S16   O71   D    
O84   H27   S    
S17   O75   S    
Cu3   O7    S    
S3    O32   D    
C5    C6    A    
C33   C35   A    
Cu2   O12   S    
C3    F15   S    
C43   C52   S    
C44   O2    A    
S12   O60   S    
C16   C17   T    
S21   O85   D    
C82   C92   S    
C54   S9    S    
C11   H1    S    
O93   H30   S    
C73   C74   A    
C49   C81   S    
S11   O56   D    
S18   O78   S    
S8    O46   D    
Cu5   O16   S    
C14   C15   A    
C2    S1    S    
O51   H16   S    
O45   H14   S    
C52   O17   A    
C75   C85   S    
C66   C72   A    
C83   C84   A    
C45   C56   A    
C34   O22   A    
S21   O86   D    
C51   C61   S    
C17   C18   S    
C36   C37   A    
C51   O14   A    
O81   H26   S    
S6    O41   D    
Cu6   O13   S    
C70   C71   A    
S5    O38   D    
C26   S3    S    
C9    C10   A    
O87   H28   S    
C61   C62   A    
C1    O1    A    
C23   O20   A    
S9    O51   S    
C74   S16   S    
Cu2   O21   S    
C49   O9    A    
S7    O44   D    
S2    O29   D    
C13   C14   A    
S9    O50   D    
C13   S2    S    
C28   C48   S    
C69   C70   A    
C67   C78   A    
C80   S19   S    
C55   C65   S    
O78   H25   S    
C53   S8    S    
C60   S11   S    
S4    O35   D    
C76   C77   A    
S14   O65   D    
C78   C89   A    
C7    C12   S    
Cu4   O6    S    
S20   O83   D    
C77   F12   S    
S22   O89   D    
C74   C75   A    
C76   S18   S    
C66   H6    S    
C7    C8    A    
C33   F5    S    
C77   C79   A    
C24   C25   A    
C63   H5    S    
C3    C8    A    
C10   C11   A    
S3    O33   S    
O66   H21   S    
S25   O97   D    
S24   O95   D    
O69   H22   S    
S13   O61   D    
C2    C45   A    
S23   O93   S    
C25   C26   A    
S14   O64   D    
S25   O99   S    
S19   O81   S    
C81   C82   A    
C57   C58   A    
C46   O3    A    
C60   C61   A    
Cu5   O11   S    
C35   C36   A    
Cu5   O14   S    
S11   O57   S    
S1    O26   D    
C75   C76   A    
Cu1   O22   S    
S15   O67   D    
S17   O73   D    
C24   F2    S    
Cu1   O1    S    
S4    O36   S    
C33   C39   A    
C52   O16   A    
S23   O92   D    
S6    O40   D    
C12   O19   A    
C30   F4    S    
C30   C31   A    
S21   O87   S    
C9    S24   S    
C29   C39   S    
C62   C63   A    
S19   O80   D    
C51   O15   A    
C73   C79   A    
C31   C34   S    
C62   C72   S    
C1    C16   S    
C1    O12   A    
C47   C84   S    
C84   C85   A    
S5    O39   S    
Cu6   O15   S    
C48   O8    A    
S8    O48   S    
C6    C7    A    
Cu4   O4    S    
S25   O98   D    
Cu3   O3    S    
O48   H15   S    
C23   O21   A    
C5    C15   S    
S13   O62   D    
C40   C41   T    
C49   O10   A    
Cu4   O2    S    
C14   F1    S    
C60   C65   A    
S18   O76   D    
S7    O45   S    
S18   O77   D    
C89   S23   S    
C55   C57   A    
O27   H8    S    
C6    F16   S    
C22   C24   A    
Cu4   O8    S    
C58   C59   A    
S1    O27   S    
C42   C43   T    
O42   H13   S    
C90   C91   A    
C3    C4    A    
C56   C67   A    
C91   C92   A    
C69   F10   S    
S4    O34   D    
C91   S22   S    
S14   O66   S    
S11   O55   D    
Cu6   O17   S    
C54   C55   A    
O39   H12   S    
S22   O90   S    
C70   S13   S    
C10   S25   S    
S15   O68   D    
C27   C32   A    
C86   C87   A    
C73   S15   S    
C31   C32   A    
Cu1   O18   S    
C88   C90   A    
C80   C81   A    
C59   F9    S    
Cu3   O5    S    
C37   F7    S    
S24   O96   S    
C68   S12   S    
C38   F8    S    
Cu5   O9    S    
Cu2   O23   S    
S9    O49   D    
C44   O24   A    
C47   O5    A    
C57   H3    S    
Cu1   Cu2   S    
C79   F11   S    
C36   F6    S    
S10   O54   S    
O33   H10   S    
O57   H18   S    
O72   H23   S    
S1    O25   D    
O96   H31   S    
C56   H4    S    
O54   H17   S    
S17   O74   D    
C86   C92   A    
O36   H11   S    
C64   C65   A    
C88   H7    S    
C11   C13   A    
C19   C50   S    
Cu6   O10   S    
C38   C39   A    
C12   O18   A    
C20   C26   A    
S13   O63   S    
C47   O6    A    
C4    C5    A    
S20   O82   D    
S19   O79   D    
C86   S20   S    
S10   O53   D    
S12   O58   D    
Cu1   O20   S    
C50   O11   A    
C9    C15   A    
O60   H19   S    
C68   C69   A    
S8    O47   D    
S3    O31   D    
O30   H9    S    
C78   S17   S    
C29   C30   A    
C63   C64   A    
S16   O70   D    
C71   S14   S    
C21   S4    S    
C71   C72   A    
C20   C21   A    
C8    C67   S    
C34   O23   A    
C82   C83   A    
C46   O4    A    
C27   C28   A    
Cu3   O24   S    
C18   C19   T    
S24   O94   D    
C48   O7    A    
C35   S7    S    
S10   O52   D    
C90   F14   S    
C50   O13   A    
C21   C22   A    
C87   S21   S    
C23   C40   S    
O90   H29   S    
S5    O37   D    
C20   H2    S    
Cu2   O19   S    
