data_mof_unit_22897.cif
_audit_creation_date              2012-10-26T21:24:50-0400
_audit_creation_method            fapswitch 2.2
_symmetry_space_group_name_H-M    P1
_symmetry_Int_Tables_number       1
_space_group_crystal_system       triclinic
_cell_length_a                    9.577312
_cell_length_b                    10.896739
_cell_length_c                    15.456929
_cell_angle_alpha                 88.841549
_cell_angle_beta                  74.49785
_cell_angle_gamma                 90.771365
_cell_volume                      1553.80792667

loop_
_atom_site_label
_atom_site_type_symbol
_atom_type_description
_atom_site_fract_x
_atom_site_fract_y
_atom_site_fract_z
_atom_type_partial_charge
C1    C     C_R   0.998103 0.263064 0.502238 0.583376
C2    C     C_R   0.223169 0.472027 0.041787 0.051714
C3    C     C_R   0.324256 0.503933 0.090360 -0.013281
C4    C     C_R   0.918377 0.500086 0.672030 0.585981
C5    C     C_R   0.075949 0.453223 0.086942 -0.091142
C6    C     C_R   0.028255 0.463554 0.179873 -0.103482
C7    C     C_R   0.273766 0.509744 0.184311 -0.099032
C8    C     C_R   0.120332 0.065975 0.493757 0.002260
C9    C     C_R   0.993864 0.130949 0.507684 -0.034390
C10   C     C_R   0.862364 0.063172 0.529097 -0.084128
C11   C     C_R   0.863021 0.934029 0.531834 0.418459
C12   C     C_R   0.671533 0.515924 0.905374 0.054828
C13   C     C_R   0.996086 0.870568 0.509982 0.014324
C14   C     C_R   0.122329 0.942153 0.494868 -0.055533
C15   C     C_3   0.284303 0.942116 0.470471 0.134348
C16   C     C_R   0.999319 0.737465 0.503077 0.569608
C17   C     C_3   0.280044 0.083034 0.469869 0.160069
C18   C     C_R   0.606014 0.539282 0.425656 0.183160
C19   C     C_R   0.545613 0.443483 0.567053 0.052802
C20   C     C_R   0.397527 0.441642 0.566832 0.340757
C21   C     C_R   0.459025 0.537162 0.425222 0.058690
C22   C     C_3   0.470695 0.657760 0.378079 -0.174126
C23   C     C_R   0.766971 0.569954 0.950559 -0.010337
C24   C     C_3   0.627641 0.663655 0.380908 0.573606
C25   C     C_R   0.081704 0.497857 0.327788 0.559655
C26   C     C_R   0.873086 0.512159 0.769745 0.044269
C27   C     C_R   0.127109 0.491736 0.229146 0.028284
C28   C     C_R   0.912178 0.595714 0.905008 -0.099378
C29   C     C_R   0.963791 0.570270 0.814357 -0.094303
C30   C     C_R   0.731451 0.477002 0.816851 0.360513
C31   C     C_R   0.520921 0.503103 0.950403 -0.003955
C32   C     C_R   0.472730 0.526178 0.043870 0.008605
C33   C     C_R   0.573245 0.575598 0.086930 -0.088153
C34   C     C_R   0.716649 0.598937 0.040561 -0.102835
C35   C     C_R   0.415832 0.476152 0.904026 -0.023071
C36   C     C_R   0.270285 0.459734 0.948876 0.368654
Cl1   Cl    Cl    0.349884 0.881762 0.560346 -0.468756
Cl2   Cl    Cl    0.349195 0.151417 0.360439 -0.561534
Cl3   Cl    Cl    0.278571 0.354048 0.652600 -0.502892
Cl4   Cl    Cl    0.753710 0.667467 0.272823 -0.620710
Cu1   Cu    Cu3+1 0.140670 0.499980 0.500000 1.081594
Cu2   Cu    Cu3+1 0.859330 0.500020 0.500000 1.118928
F1    F     F_    0.733923 0.872796 0.558361 -0.507772
F2    F     F_    0.653139 0.754924 0.435622 -0.493538
F3    F     F_    0.175502 0.430371 0.900737 -0.616915
F4    F     F_    0.658958 0.396924 0.777513 -0.641328
H1    H     H_    0.789008 0.640074 0.075513 0.172179
H2    H     H_    0.914901 0.446261 0.213262 0.176738
H3    H     H_    0.984686 0.639035 0.938906 0.156697
H4    H     H_    0.073762 0.597457 0.778938 0.195445
H5    H     H_    0.543125 0.603574 0.155593 0.138904
H6    H     H_    0.441637 0.473479 0.831887 0.230019
H7    H     H_    0.997430 0.429502 0.050619 0.183623
H8    H     H_    0.759490 0.109366 0.544466 0.186271
H9    H     H_    0.332353 0.905393 0.402882 0.160861
H10   H     H_    0.318525 0.127628 0.523551 0.206869
H11   H     H_    0.577743 0.398212 0.621372 0.200409
H12   H     H_    0.455296 0.650977 0.309831 0.094331
H13   H     H_    0.347801 0.523909 0.224619 0.129310
H14   H     H_    0.400897 0.723425 0.421202 0.185902
N1    N     N_R   0.648210 0.500930 0.499430 -0.256730
N2    N     N_R   0.352300 0.500890 0.499430 -0.222152
O1    O     O_R   0.118810 0.319640 0.500000 -0.444220
O2    O     O_R   0.881230 0.319680 0.499990 -0.526404
O3    O     O_R   0.055580 0.499970 0.629840 -0.462688
O4    O     O_R   0.818000 0.500010 0.629830 -0.470986
O5    O     O_R   0.118770 0.680320 0.500010 -0.519673
O6    O     O_R   0.881190 0.680360 0.500000 -0.380997
O7    O     O_R   0.182000 0.499990 0.370170 -0.514859
O8    O     O_R   0.944420 0.500030 0.370160 -0.482743

loop_
_geom_bond_atom_site_label_1
_geom_bond_atom_site_label_2
_ccdc_geom_bond_type
C22   H12   S    
C3    C32   A    
C4    C26   S    
C18   N1    A    
C11   F1    S    
C16   O6    A    
C13   C14   A    
C25   C27   S    
C18   C21   A    
Cu1   Cu2   S    
C3    C7    A    
C6    C27   A    
Cu2   N1    S    
C17   Cl2   S    
C23   C34   A    
C32   C33   A    
C25   O8    A    
C33   C34   A    
C1    C9    S    
C36   F3    S    
Cu1   O5    S    
C16   O5    A    
C21   C22   S    
C19   H11   S    
C8    C17   S    
Cu2   O6    S    
C11   C13   A    
C12   C23   A    
C21   N2    A    
C5    C6    A    
C6    H2    S    
Cu1   N2    S    
C19   N1    A    
C18   C24   S    
C15   C17   S    
C1    O1    A    
C22   C24   S    
C5    H7    S    
C28   C29   A    
C24   Cl4   S    
C2    C3    A    
C17   H10   S    
C29   H4    S    
C12   C31   A    
C22   H14   S    
C4    O3    A    
C24   F2    S    
C31   C35   A    
C35   C36   A    
C2    C5    A    
C25   O7    A    
C10   C11   A    
Cu1   O1    S    
C10   H8    S    
C2    C36   A    
C1    O2    A    
Cu2   O2    S    
Cu2   O8    S    
C7    C27   A    
C4    O4    A    
C26   C29   A    
Cu1   O7    S    
C9    C10   A    
C13   C16   S    
C7    H13   S    
C35   H6    S    
Cu2   O4    S    
C20   Cl3   S    
C14   C15   S    
C15   Cl1   S    
Cu1   O3    S    
C34   H1    S    
C8    C14   A    
C12   C30   A    
C23   C28   A    
C30   F4    S    
C31   C32   A    
C20   N2    A    
C33   H5    S    
C19   C20   A    
C8    C9    A    
C26   C30   A    
C28   H3    S    
C15   H9    S    
