data_mof_unit_5270.cif
_audit_creation_date              2013-03-05T15:51:37-0500
_audit_creation_method            fapswitch 2.2
_symmetry_space_group_name_H-M    P1
_symmetry_Int_Tables_number       1
_space_group_crystal_system       triclinic
_cell_length_a                    31.525202
_cell_length_b                    18.352481
_cell_length_c                    25.674065
_cell_angle_alpha                 90.375523
_cell_angle_beta                  144.380891
_cell_angle_gamma                 89.677074
_cell_volume                      8650.77247328

loop_
_atom_site_label
_atom_site_type_symbol
_atom_site_description
_atom_site_fract_x
_atom_site_fract_y
_atom_site_fract_z
_atom_type_partial_charge
Zn1   Zn    Zn3+2 0.000000 0.086750 0.293940 0.960916
Zn2   Zn    Zn3+2 0.000000 0.913250 0.706060 0.961902
Zn3   Zn    Zn3+2 1.000000 0.086750 0.706060 0.955363
Zn4   Zn    Zn3+2 0.000000 0.913250 0.293940 0.958996
Zn5   Zn    Zn3+2 0.500000 0.586750 0.293940 0.961902
Zn6   Zn    Zn3+2 0.500000 0.413250 0.706060 0.960917
Zn7   Zn    Zn3+2 0.500000 0.586750 0.706060 0.958997
Zn8   Zn    Zn3+2 0.500000 0.413250 0.293940 0.955362
Zn9   Zn    Zn3+2 0.913220 0.000000 0.119290 0.957228
Zn10  Zn    Zn3+2 0.086780 0.000000 0.880710 0.958929
Zn11  Zn    Zn3+2 0.413220 0.500000 0.119290 0.958933
Zn12  Zn    Zn3+2 0.586780 0.500000 0.880710 0.957229
Zn13  Zn    Zn3+2 0.086730 0.000000 0.292800 0.954038
Zn14  Zn    Zn3+2 0.913270 0.000000 0.707200 0.956746
Zn15  Zn    Zn3+2 0.586730 0.500000 0.292800 0.956737
Zn16  Zn    Zn3+2 0.413270 0.500000 0.707200 0.954037
O1    O     O_3   0.999990 0.000000 0.249990 -0.487138
O2    O     O_3   0.000010 0.000000 0.750010 -0.490030
O3    O     O_3   0.499990 0.500000 0.249990 -0.490032
O4    O     O_3   0.500010 0.500000 0.750010 -0.487137
O5    O     O_R   0.914560 0.853840 0.195310 -0.632540
O6    O     O_R   0.085440 0.146160 0.804690 -0.638457
O7    O     O_R   0.085440 0.853840 0.804690 -0.637965
O8    O     O_R   0.914560 0.146160 0.195310 -0.636702
O9    O     O_R   0.414560 0.353840 0.195310 -0.638459
O10   O     O_R   0.585440 0.646160 0.804690 -0.632539
O11   O     O_R   0.585440 0.353840 0.804690 -0.636702
O12   O     O_R   0.414560 0.646160 0.195310 -0.637966
O13   O     O_R   0.085440 0.146150 0.366190 -0.636772
O14   O     O_R   0.914560 0.853850 0.633810 -0.633873
O15   O     O_R   0.914560 0.146150 0.633810 -0.633736
O16   O     O_R   0.085440 0.853850 0.366190 -0.631847
O17   O     O_R   0.585440 0.646150 0.366190 -0.633874
O18   O     O_R   0.414560 0.353850 0.633810 -0.636770
O19   O     O_R   0.414560 0.646150 0.633810 -0.631846
O20   O     O_R   0.585440 0.353850 0.366190 -0.633738
O21   O     O_R   0.853820 0.085430 0.073070 -0.632068
O22   O     O_R   0.146180 0.914570 0.926930 -0.632590
O23   O     O_R   0.146180 0.085430 0.926930 -0.637097
O24   O     O_R   0.853820 0.914570 0.073070 -0.645691
O25   O     O_R   0.353820 0.585430 0.073070 -0.632589
O26   O     O_R   0.646180 0.414570 0.926930 -0.632068
O27   O     O_R   0.646180 0.585430 0.926930 -0.645692
O28   O     O_R   0.353820 0.414570 0.073070 -0.637095
O29   O     O_R   0.146150 0.914540 0.365390 -0.647221
O30   O     O_R   0.853850 0.085460 0.634610 -0.638690
O31   O     O_R   0.853850 0.914540 0.634610 -0.633244
O32   O     O_R   0.146150 0.085460 0.365390 -0.633931
O33   O     O_R   0.646150 0.414540 0.365390 -0.638688
O34   O     O_R   0.353850 0.585460 0.634610 -0.647220
O35   O     O_R   0.353850 0.414540 0.634610 -0.633933
O36   O     O_R   0.646150 0.585460 0.365390 -0.633244
O37   O     O_R   0.939240 0.000000 0.071950 -0.642947
O38   O     O_R   0.060760 0.000000 0.928050 -0.642947
O39   O     O_R   0.439240 0.500000 0.071950 -0.642939
O40   O     O_R   0.560760 0.500000 0.928050 -0.642944
O41   O     O_R   0.000020 0.939290 0.367320 -0.649856
O42   O     O_R   0.999980 0.060710 0.632680 -0.646347
O43   O     O_R   0.999980 0.939290 0.632680 -0.639514
O44   O     O_R   0.000020 0.060710 0.367320 -0.640758
O45   O     O_R   0.500020 0.439290 0.367320 -0.646346
O46   O     O_R   0.499980 0.560710 0.632680 -0.649856
O47   O     O_R   0.499980 0.439290 0.632680 -0.640757
O48   O     O_R   0.500020 0.560710 0.367320 -0.639514
O49   O     O_R   0.060680 0.000000 0.193390 -0.648883
O50   O     O_R   0.939320 0.000000 0.806610 -0.642190
O51   O     O_R   0.560680 0.500000 0.193390 -0.642200
O52   O     O_R   0.439320 0.500000 0.806610 -0.648886
C1    C     C_R   0.860600 0.859747 0.109719 0.785244
C2    C     C_R   0.139741 0.139863 0.889910 0.778491
C3    C     C_R   0.139726 0.860032 0.889711 0.784364
C4    C     C_R   0.860243 0.139937 0.110290 0.785979
C5    C     C_R   0.360259 0.360137 0.110090 0.778489
C6    C     C_R   0.639400 0.640253 0.890281 0.785244
C7    C     C_R   0.639757 0.360063 0.889710 0.785980
C8    C     C_R   0.360273 0.639968 0.110289 0.784363
C9    C     C_R   0.139774 0.139984 0.389729 0.787044
C10   C     C_R   0.860191 0.860072 0.610189 0.789726
C11   C     C_R   0.860124 0.139742 0.610161 0.786370
C12   C     C_R   0.139440 0.859730 0.388448 0.787772
C13   C     C_R   0.639809 0.639928 0.389811 0.789729
C14   C     C_R   0.360226 0.360016 0.610271 0.787042
C15   C     C_R   0.360560 0.640269 0.611552 0.787771
C16   C     C_R   0.639876 0.360258 0.389839 0.786378
C17   C     C_R   0.000137 0.996958 0.109105 0.816834
C18   C     C_R   0.999693 0.004694 0.890510 0.820359
C19   C     C_R   0.500307 0.495303 0.109490 0.820356
C20   C     C_R   0.499863 0.503041 0.890895 0.816833
C21   C     C_R   0.000089 0.000109 0.391765 0.759445
C22   C     C_R   0.000041 0.999886 0.608358 0.764844
C23   C     C_R   0.499958 0.500113 0.391642 0.764845
C24   C     C_R   0.499911 0.499891 0.608235 0.759445
C25   C     C_3   0.000131 0.930899 0.482621 -0.123768
C26   C     C_3   0.000229 0.069074 0.517708 -0.119374
C27   C     C_3   0.940324 0.965545 0.457563 -0.181926
C28   C     C_3   0.060034 0.034426 0.542757 -0.185990
C29   C     C_3   0.499771 0.430925 0.482292 -0.119374
C30   C     C_3   0.499869 0.569101 0.517379 -0.123768
C31   C     C_3   0.439966 0.465574 0.457243 -0.185988
C32   C     C_3   0.559676 0.534455 0.542437 -0.181926
C33   C     C_3   0.059968 0.965389 0.577017 -0.186749
C34   C     C_3   0.940390 0.034584 0.423317 -0.181821
C35   C     C_3   0.559610 0.465416 0.576683 -0.181821
C36   C     C_3   0.440032 0.534611 0.422983 -0.186750
H1    H     H_    0.108969 0.936969 0.640972 0.128551
H2    H     H_    0.891395 0.062994 0.359351 0.131570
H3    H     H_    0.608605 0.437006 0.640649 0.131570
H4    H     H_    0.391030 0.563031 0.359028 0.128551
H5    H     H_    0.000096 0.874100 0.467439 0.153399
H6    H     H_    0.000289 0.125880 0.532899 0.153686
H7    H     H_    0.891265 0.937249 0.423598 0.134112
H8    H     H_    0.109086 0.062714 0.576684 0.128627
H9    H     H_    0.499711 0.374120 0.467101 0.153686
H10   H     H_    0.499904 0.625900 0.532561 0.153400
H11   H     H_    0.390913 0.437286 0.423316 0.128628
H12   H     H_    0.608735 0.562751 0.576402 0.134112
C37   C     C_3   0.000151 0.999953 0.551101 0.059096
C38   C     C_3   0.000186 0.000022 0.449213 0.058990
C39   C     C_3   0.499814 0.499977 0.550787 0.058989
C40   C     C_3   0.499849 0.500046 0.448899 0.059095
H13   H     H_    0.138980 0.265699 0.221253 0.138442
H14   H     H_    0.673303 0.921371 0.295440 0.123753
H15   H     H_    0.957816 0.363400 0.785159 0.139339
H16   H     H_    0.178895 0.763874 0.250341 0.147251
H17   H     H_    0.826697 0.578629 0.704560 0.123754
H18   H     H_    0.361010 0.234308 0.778740 0.138436
H19   H     H_    0.321107 0.736127 0.749660 0.147250
H20   H     H_    0.542183 0.136599 0.214841 0.139342
C41   C     C_R   0.230516 0.162506 0.570224 -0.142945
C42   C     C_R   0.870267 0.737377 0.688719 -0.137758
C43   C     C_R   0.717748 0.109934 0.426452 -0.143037
C44   C     C_R   0.217911 0.829494 0.560582 -0.132275
C45   C     C_R   0.629733 0.762623 0.311281 -0.137758
C46   C     C_R   0.269482 0.337495 0.429774 -0.142946
C47   C     C_R   0.282089 0.670507 0.439418 -0.132274
C48   C     C_R   0.782251 0.390066 0.573548 -0.143038
C49   C     C_R   0.273836 0.173040 0.657406 -0.144389
C50   C     C_R   0.875815 0.678060 0.727658 -0.129630
C51   C     C_R   0.649010 0.094847 0.337446 -0.135610
C52   C     C_R   0.250137 0.810808 0.639852 -0.147595
C53   C     C_R   0.624184 0.821940 0.272342 -0.129630
C54   C     C_R   0.226158 0.326964 0.342589 -0.144389
C55   C     C_R   0.249864 0.689193 0.360148 -0.147595
C56   C     C_R   0.850989 0.405152 0.662554 -0.135609
C57   C     C_R   0.677754 0.875437 0.325927 -0.151271
C58   C     C_R   0.172707 0.273474 0.289056 -0.138509
C59   C     C_R   0.203069 0.748339 0.311232 -0.143005
C60   C     C_R   0.904547 0.351644 0.715921 -0.142083
C61   C     C_R   0.327287 0.226531 0.710939 -0.138513
C62   C     C_R   0.822245 0.624563 0.674072 -0.151271
C63   C     C_R   0.595453 0.148355 0.284078 -0.142081
C64   C     C_R   0.296932 0.751662 0.688769 -0.143005
C65   C     C_R   0.737149 0.869998 0.418771 -0.147769
C66   C     C_R   0.162147 0.230343 0.322328 -0.140137
C67   C     C_R   0.186811 0.787403 0.340188 -0.150886
C68   C     C_R   0.889658 0.282785 0.680546 -0.152878
C69   C     C_R   0.337849 0.269660 0.677669 -0.140136
C70   C     C_R   0.762851 0.630002 0.581229 -0.147769
C71   C     C_R   0.610342 0.217214 0.319453 -0.152890
C72   C     C_R   0.313189 0.712597 0.659812 -0.150887
C73   C     C_R   0.744083 0.810241 0.459974 0.076535
C74   C     C_R   0.206202 0.239222 0.411269 0.073429
C75   C     C_R   0.217199 0.768760 0.419243 0.068976
C76   C     C_R   0.820234 0.266018 0.590261 0.077053
C77   C     C_R   0.293796 0.260779 0.588729 0.073430
C78   C     C_R   0.755917 0.689759 0.540026 0.076534
C79   C     C_R   0.679765 0.233981 0.409739 0.077055
C80   C     C_R   0.282801 0.731240 0.580757 0.068975
C81   C     C_R   0.239266 0.206457 0.534174 0.075673
C82   C     C_R   0.810418 0.744168 0.594524 0.072583
C83   C     C_R   0.734185 0.179479 0.464119 0.073153
C84   C     C_R   0.231873 0.788675 0.528353 0.079939
C85   C     C_R   0.689582 0.755832 0.405476 0.072583
C86   C     C_R   0.260732 0.293544 0.465824 0.075674
C87   C     C_R   0.268127 0.711325 0.471647 0.079938
C88   C     C_R   0.765814 0.320520 0.535881 0.073152
C89   C     C_R   0.804107 0.803944 0.554062 -0.149415
C90   C     C_R   0.195852 0.196121 0.445850 -0.156414
C91   C     C_R   0.197443 0.805404 0.446401 -0.163209
C92   C     C_R   0.803958 0.195860 0.554047 -0.154954
C93   C     C_R   0.304148 0.303879 0.554149 -0.156415
C94   C     C_R   0.695893 0.696056 0.445938 -0.149415
C95   C     C_R   0.696041 0.304140 0.445953 -0.154954
C96   C     C_R   0.302556 0.694596 0.553598 -0.163209
H21   H     H_    0.190647 0.119231 0.532018 0.127809
H22   H     H_    0.913279 0.777656 0.733147 0.111083
H23   H     H_    0.757767 0.066682 0.464893 0.123455
H24   H     H_    0.182989 0.876924 0.526047 0.132413
H25   H     H_    0.586720 0.722344 0.266853 0.111083
H26   H     H_    0.309351 0.380770 0.467980 0.127809
H27   H     H_    0.317011 0.623076 0.473953 0.132413
H28   H     H_    0.742233 0.433317 0.535107 0.123455
H29   H     H_    0.266184 0.139188 0.683709 0.126054
H30   H     H_    0.921909 0.673534 0.799720 0.124152
H31   H     H_    0.637342 0.041468 0.309702 0.134078
H32   H     H_    0.238459 0.842134 0.663091 0.129991
H33   H     H_    0.578091 0.826466 0.200280 0.124151
H34   H     H_    0.233809 0.360817 0.316286 0.126055
H35   H     H_    0.261543 0.657867 0.336910 0.129991
H36   H     H_    0.862658 0.458531 0.690298 0.134078
H37   H     H_    0.777410 0.913010 0.457701 0.110731
H38   H     H_    0.118819 0.190525 0.277256 0.127045
H39   H     H_    0.151489 0.833009 0.300786 0.156578
H40   H     H_    0.933041 0.242953 0.724938 0.132065
H41   H     H_    0.381176 0.309479 0.722741 0.127046
H42   H     H_    0.722590 0.586990 0.542299 0.110731
H43   H     H_    0.566959 0.257047 0.275061 0.132067
H44   H     H_    0.348511 0.666992 0.699214 0.156577
H45   H     H_    0.825344 0.761791 0.897341 0.150291
H46   H     H_    0.150857 0.256218 0.073140 0.145107
H47   H     H_    0.132757 0.729574 0.048426 0.138550
H48   H     H_    0.868488 0.271385 0.953335 0.144812
H49   H     H_    0.349140 0.243787 0.926855 0.145119
H50   H     H_    0.674656 0.738207 0.102660 0.150291
H51   H     H_    0.631507 0.228612 0.046658 0.144815
H52   H     H_    0.367245 0.770427 0.951576 0.138550
C97   C     C_R   0.781054 0.829589 0.123731 -0.134704
C98   C     C_R   0.225902 0.165855 0.884359 -0.141399
C99   C     C_R   0.233377 0.839661 0.894555 -0.143162
C100  C     C_R   0.766022 0.159847 0.104638 -0.144681
C101  C     C_R   0.274096 0.334148 0.115637 -0.141394
C102  C     C_R   0.718946 0.670410 0.876270 -0.134703
C103  C     C_R   0.733976 0.340152 0.895361 -0.144680
C104  C     C_R   0.266623 0.660339 0.105446 -0.143161
C105  C     C_R   0.747640 0.811513 0.137177 -0.146669
C106  C     C_R   0.265882 0.179046 0.879208 -0.147248
C107  C     C_R   0.278433 0.830443 0.896324 -0.145950
C108  C     C_R   0.720625 0.168791 0.102379 -0.142789
C109  C     C_R   0.234115 0.320959 0.120786 -0.147258
C110  C     C_R   0.752360 0.688486 0.862824 -0.146670
C111  C     C_R   0.779372 0.331207 0.897618 -0.142787
C112  C     C_R   0.221568 0.669557 0.103676 -0.145952
C113  C     C_R   0.181719 0.266495 0.068850 -0.143322
C114  C     C_R   0.800098 0.746863 0.908655 -0.141283
C115  C     C_R   0.833098 0.277904 0.951428 -0.135324
C116  C     C_R   0.167832 0.722839 0.049884 -0.142259
C117  C     C_R   0.699902 0.753136 0.091346 -0.141284
C118  C     C_R   0.318280 0.233509 0.931147 -0.143329
C119  C     C_R   0.332169 0.777162 0.950118 -0.142259
C120  C     C_R   0.666898 0.222094 0.048568 -0.135318
C121  C     C_R   0.168516 0.225494 0.010831 -0.144513
C122  C     C_R   0.815964 0.785887 0.969752 -0.149520
C123  C     C_R   0.841773 0.233293 0.003353 -0.140467
C124  C     C_R   0.158780 0.767143 0.997456 -0.140664
C125  C     C_R   0.684036 0.714113 0.030248 -0.149518
C126  C     C_R   0.331486 0.274506 0.989171 -0.144518
C127  C     C_R   0.341220 0.732858 0.002544 -0.140663
C128  C     C_R   0.658224 0.266705 0.996644 -0.140467
C129  C     C_R   0.209242 0.236893 0.005334 0.070830
C130  C     C_R   0.783999 0.768122 0.986222 0.069090
C131  C     C_R   0.795755 0.240717 0.001500 0.072829
C132  C     C_R   0.204516 0.759503 0.998894 0.073865
C133  C     C_R   0.716000 0.731878 0.013778 0.069089
C134  C     C_R   0.290759 0.263107 0.994666 0.070833
C135  C     C_R   0.295484 0.740497 0.001107 0.073864
C136  C     C_R   0.704244 0.259282 0.998498 0.072829
C137  C     C_R   0.767507 0.788811 0.063977 0.079830
C138  C     C_R   0.236786 0.208249 0.940970 0.076849
C139  C     C_R   0.240755 0.794672 0.946288 0.075581
C140  C     C_R   0.758948 0.205081 0.053314 0.075651
C141  C     C_R   0.263214 0.291752 0.059029 0.076851
C142  C     C_R   0.732493 0.711189 0.936023 0.079831
C143  C     C_R   0.741052 0.294919 0.946685 0.075651
C144  C     C_R   0.259246 0.705328 0.053712 0.075581
C145  C     C_R   0.196159 0.195757 0.946350 -0.156429
C146  C     C_R   0.802886 0.805112 0.051973 -0.161598
C147  C     C_R   0.804275 0.196213 0.054391 -0.154242
C148  C     C_R   0.195703 0.803764 0.945608 -0.155003
C149  C     C_R   0.697114 0.694887 0.948027 -0.161597
C150  C     C_R   0.303842 0.304243 0.053650 -0.156426
C151  C     C_R   0.304297 0.696236 0.054392 -0.155003
C152  C     C_R   0.695725 0.303787 0.945608 -0.154241
H53   H     H_    0.816606 0.876503 0.159836 0.133090
H54   H     H_    0.186956 0.121741 0.843914 0.131799
H55   H     H_    0.193212 0.882697 0.852661 0.125847
H56   H     H_    0.806199 0.116819 0.146554 0.126091
H57   H     H_    0.313041 0.378263 0.156080 0.131797
H58   H     H_    0.683395 0.623495 0.840165 0.133089
H59   H     H_    0.693799 0.383180 0.853445 0.126090
H60   H     H_    0.306788 0.617303 0.147339 0.125847
H61   H     H_    0.759027 0.842802 0.183498 0.133208
H62   H     H_    0.256401 0.146568 0.835049 0.129353
H63   H     H_    0.271878 0.865124 0.856152 0.125766
H64   H     H_    0.726908 0.133878 0.142181 0.130103
H65   H     H_    0.243594 0.353439 0.164943 0.129353
H66   H     H_    0.740974 0.657196 0.816504 0.133208
H67   H     H_    0.773088 0.366120 0.857815 0.130103
H68   H     H_    0.228123 0.634876 0.143849 0.125767
H69   H     H_    0.125970 0.185128 0.970467 0.137769
H70   H     H_    0.852504 0.830617 0.002461 0.154512
H71   H     H_    0.885210 0.193488 0.045212 0.128072
H72   H     H_    0.115306 0.806900 0.955579 0.125556
H73   H     H_    0.647495 0.669384 0.997538 0.154512
H74   H     H_    0.374035 0.314870 0.029539 0.137766
H75   H     H_    0.384695 0.693101 0.044422 0.125556
H76   H     H_    0.614788 0.306511 0.954785 0.128073
H77   H     H_    0.005606 0.245836 0.068633 0.139898
H78   H     H_    0.999004 0.755425 0.934095 0.134745
H79   H     H_    0.501004 0.744574 0.065914 0.134746
H80   H     H_    0.494350 0.254163 0.931330 0.139901
C153  C     C_R   0.000576 0.856668 0.048021 0.192551
C154  C     C_R   0.986282 0.143582 0.938205 0.190644
C155  C     C_R   0.513730 0.356420 0.061805 0.190604
C156  C     C_R   0.499426 0.643332 0.951982 0.192551
C157  C     C_R   0.000262 0.793952 0.014713 0.280531
C158  C     C_R   0.991279 0.206586 0.975758 0.289853
C159  C     C_R   0.508701 0.293415 0.024225 0.289857
C160  C     C_R   0.499743 0.706048 0.985292 0.280530
C161  C     C_R   0.999410 0.802409 0.960259 -0.219335
C162  C     C_R   0.001882 0.198591 0.039518 -0.233555
C163  C     C_R   0.498087 0.301409 0.960456 -0.233544
C164  C     C_R   0.500596 0.697590 0.039748 -0.219337
C165  C     C_R   0.999177 0.870709 0.938265 -0.199734
C166  C     C_R   0.005156 0.130456 0.064823 -0.208369
C167  C     C_R   0.494825 0.369544 0.935160 -0.208378
C168  C     C_R   0.500829 0.629290 0.061741 -0.199732
C169  C     C_R   0.999289 0.934999 0.969331 0.037500
C170  C     C_R   0.000464 0.065964 0.029680 0.041322
C171  C     C_R   0.499530 0.434036 0.970314 0.041329
C172  C     C_R   0.500715 0.565001 0.030673 0.037509
C173  C     C_R   0.999983 0.929222 0.024673 -0.008240
C174  C     C_R   0.994792 0.071515 0.969510 -0.010905
C175  C     C_R   0.505212 0.428486 0.030493 -0.010907
C176  C     C_R   0.500019 0.570778 0.975329 -0.008239
C177  C     C_R   0.997810 0.004578 0.944030 -0.088009
C178  C     C_R   0.000788 0.996434 0.054092 -0.088571
C179  C     C_R   0.499210 0.503566 0.945906 -0.088574
C180  C     C_R   0.502193 0.495422 0.055974 -0.088018
H81   H     H_    0.998404 0.871755 0.895373 0.134920
H82   H     H_    0.011510 0.129625 0.113042 0.132716
H83   H     H_    0.488465 0.370374 0.886935 0.132718
H84   H     H_    0.501604 0.628244 0.104634 0.134926
C181  C     C_3   0.001998 0.844230 0.107629 -0.947491
H85   H     H_    0.002835 0.786798 0.121006 0.244580
H86   H     H_    0.050923 0.869223 0.173021 0.236031
H87   H     H_    0.953579 0.868484 0.077259 0.234054
C182  C     C_3   0.967231 0.155145 0.862153 -0.913534
H88   H     H_    0.012179 0.137010 0.881338 0.210000
H89   H     H_    0.915375 0.127120 0.801128 0.265995
H90   H     H_    0.957504 0.212358 0.841583 0.233816
C183  C     C_3   0.532832 0.344861 0.137899 -0.913478
H91   H     H_    0.584681 0.372910 0.198897 0.266012
H92   H     H_    0.487894 0.362971 0.118743 0.209976
H93   H     H_    0.542604 0.287652 0.158503 0.233840
C184  C     C_3   0.498000 0.655770 0.892370 -0.947490
H94   H     H_    0.497160 0.713202 0.878990 0.244579
H95   H     H_    0.546418 0.631517 0.922736 0.234053
H96   H     H_    0.449073 0.630777 0.826978 0.236033
C185  C     C_3   0.001061 0.716802 0.035930 -0.955296
H97   H     H_    0.000497 0.675606 0.003458 0.231513
H98   H     H_    0.051220 0.707355 0.109128 0.246804
H99   H     H_    0.952130 0.706966 0.011426 0.249061
C186  C     C_3   0.984185 0.283524 0.948422 -0.969007
H100  H     H_    0.993492 0.325034 0.988701 0.234333
H101  H     H_    0.024976 0.293456 0.958110 0.240850
H102  H     H_    0.928397 0.292429 0.877319 0.253330
C187  C     C_3   0.515773 0.216478 0.051544 -0.969077
H103  H     H_    0.506387 0.174969 0.011200 0.234347
H104  H     H_    0.571577 0.207539 0.122620 0.253322
H105  H     H_    0.475025 0.206581 0.041932 0.240871
C188  C     C_3   0.498945 0.783198 0.964077 -0.955295
H106  H     H_    0.499513 0.824394 0.996553 0.231514
H107  H     H_    0.547873 0.793032 0.988575 0.249061
H108  H     H_    0.448783 0.792647 0.890879 0.246802

loop_
_geom_bond_atom_site_label_1
_geom_bond_atom_site_label_2
_geom_bond_distance
_ccdc_geom_bond_type
C166  C170  1.416971 A    
C187  H103  1.111163 S    
C41   H21   1.081338 S    
C105  C117  1.385584 A    
C54   C58   1.388440 A    
C44   H24   1.080827 S    
C182  H88   1.106071 S    
C45   H25   1.082500 S    
C181  H85   1.104236 S    
C14   C93   1.456906 S    
C43   C83   1.417501 A    
O26   C7    1.276722 A    
C158  C162  1.387759 A    
C48   H28   1.081848 S    
C24   C39   1.472455 S    
O30   C11   1.279775 A    
C26   C37   1.536855 S    
C30   H10   1.110183 S    
C174  C177  1.426701 A    
C97   C137  1.421020 A    
Zn12  O26   1.936871 S    
C59   C67   1.391994 A    
C52   C64   1.385446 A    
C27   C34   1.547903 S    
C53   C57   1.390073 A    
C53   H33   1.082199 S    
O11   C7    1.277464 A    
C20   C179  1.429123 S    
C155  C175  1.458280 A    
C186  H101  1.109405 S    
C51   H31   1.082261 S    
O34   C15   1.273115 A    
C65   H37   1.082364 S    
C123  H71   1.081744 S    
H16   C59   1.082798 S    
C171  C175  1.407669 A    
C22   C37   1.472828 S    
C69   H41   1.081294 S    
C104  C144  1.417722 A    
Zn1   O44   1.946168 S    
C25   C33   1.547009 S    
C161  C165  1.375689 A    
Zn2   O43   1.946168 S    
C79   C83   1.413424 A    
C125  C133  1.413805 A    
C126  H74   1.078466 S    
Zn5   O48   1.946168 S    
C65   C73   1.416363 A    
Zn6   O47   1.946168 S    
C106  H62   1.082691 S    
Zn7   O46   1.940096 S    
O16   C12   1.286800 A    
C154  C182  1.521735 S    
C56   H36   1.082261 S    
C153  C157  1.424648 A    
Zn16  O4    1.949134 S    
Zn12  O4    1.954297 S    
C99   H55   1.081499 S    
C117  C125  1.391897 A    
C184  H96   1.093549 S    
C26   C28   1.546967 S    
C115  C123  1.393330 A    
Zn4   O16   1.937668 S    
C84   C91   1.411078 A    
C85   C94   1.413748 A    
C144  C151  1.415038 A    
C156  C184  1.512980 S    
C73   C89   1.413805 A    
C42   C50   1.393892 A    
C131  C147  1.415033 A    
C182  H90   1.102621 S    
C162  C166  1.377158 A    
C181  H87   1.094498 S    
C46   C86   1.418005 A    
C45   C53   1.393890 A    
C136  C152  1.415032 A    
C71   H43   1.081329 S    
C159  C187  1.513457 S    
C154  C158  1.425429 A    
Zn10  O22   1.936871 S    
C142  C149  1.411496 A    
Zn13  O29   1.942037 S    
Zn10  O2    1.954297 S    
C176  C179  1.431646 A    
H18   C61   1.081872 S    
C71   C79   1.417032 A    
C110  C114  1.385584 A    
O29   C12   1.273114 A    
C72   C80   1.413696 A    
H77   C162  1.083669 S    
C121  H69   1.078452 S    
C41   C49   1.392843 A    
C26   C34   1.546935 S    
O37   C17   1.273082 A    
C44   C84   1.421229 A    
O48   C23   1.279766 A    
C45   C85   1.416619 A    
C98   C106  1.392638 A    
C131  C143  1.413250 A    
O25   C8    1.276717 A    
C43   H23   1.081849 S    
C48   C88   1.417503 A    
C185  H97   1.111195 S    
C163  C167  1.377170 A    
C10   C89   1.456868 S    
C78   C94   1.413806 A    
Zn16  O35   1.939358 S    
C75   C87   1.409444 A    
C27   C37   1.533895 S    
C97   H53   1.080753 S    
Zn7   O10   1.940078 S    
O33   C16   1.279775 A    
C108  C120  1.388901 A    
O40   C20   1.273090 A    
C103  H59   1.081546 S    
C7    C152  1.456525 S    
C104  H60   1.081498 S    
C8    C151  1.456524 S    
C112  C116  1.388733 A    
C170  C178  1.421671 A    
H46   C113  1.082038 S    
C129  C145  1.416480 A    
C130  C142  1.410125 A    
C139  C148  1.415039 A    
Zn5   O17   1.941067 S    
Zn15  O33   1.942037 S    
C25   C27   1.546876 S    
C13   C94   1.456869 S    
C67   H39   1.064434 S    
C183  H92   1.106083 S    
Zn8   O3    1.957270 S    
C123  C131  1.418148 A    
C12   C91   1.458453 S    
H49   C118  1.082042 S    
C69   C77   1.418214 A    
O38   C18   1.274798 A    
C67   C75   1.413696 A    
C31   C39   1.533922 S    
O5    C1    1.287605 A    
C63   C71   1.393110 A    
O32   C9    1.275121 A    
C49   H29   1.082693 S    
C72   H44   1.064431 S    
Zn15  O51   1.944412 S    
Zn11  O28   1.941362 S    
C114  C122  1.391897 A    
C171  C179  1.421669 A    
C78   C82   1.414013 A    
C185  H99   1.109840 S    
C75   C91   1.421791 A    
C182  H89   1.107463 S    
C167  H83   1.081675 S    
C17   C178  1.429128 S    
O8    C4    1.277466 A    
C169  C177  1.419764 A    
C158  C186  1.513463 S    
C66   C74   1.418217 A    
C107  H63   1.082678 S    
O50   C18   1.266417 A    
C35   H3    1.110275 S    
C165  C169  1.418227 A    
Zn1   O1    1.945203 S    
Zn13  O1    1.949133 S    
Zn2   O14   1.941066 S    
C157  C161  1.386050 A    
C136  C140  1.413250 A    
C51   C63   1.389322 A    
O9    C5    1.281642 A    
C109  C113  1.387731 A    
O36   C13   1.274985 A    
C74   C90   1.415451 A    
C43   C51   1.393565 A    
C132  C144  1.413241 A    
C133  C137  1.410127 A    
H79   C164  1.083269 S    
C156  C160  1.424648 A    
O13   C9    1.275829 A    
H15   C60   1.082717 S    
C102  C110  1.391227 A    
Zn1   O8    1.941671 S    
Zn2   O7    1.941669 S    
H13   C58   1.081876 S    
Zn3   O6    1.940078 S    
C111  C115  1.388900 A    
O18   C14   1.275835 A    
O31   C10   1.274986 A    
C157  C185  1.513109 S    
O6    C2    1.281643 A    
C160  C164  1.386051 A    
C97   C105  1.391227 A    
C32   H12   1.110188 S    
C103  C143  1.417615 A    
C186  H100  1.111198 S    
Zn14  O30   1.942035 S    
Zn15  O3    1.949133 S    
C188  H107  1.109842 S    
Zn11  O3    1.954297 S    
C3    C148  1.456525 S    
O41   C21   1.276075 A    
C172  C176  1.407826 A    
C100  C140  1.417615 A    
Zn16  O34   1.942035 S    
C101  C141  1.418772 A    
C5    C150  1.458180 S    
C31   H11   1.110303 S    
C122  H70   1.065321 S    
C100  H56   1.081545 S    
C173  C178  1.431643 A    
C100  C108  1.393214 A    
C119  C127  1.393401 A    
Zn8   O20   1.937668 S    
C165  H81   1.081784 S    
H45   C114  1.082703 S    
C102  C142  1.421019 A    
C132  C148  1.415151 A    
C133  C149  1.421421 A    
C105  H61   1.082688 S    
C184  H95   1.094499 S    
C76   C92   1.414820 A    
C50   H30   1.082199 S    
C31   C36   1.548101 S    
C187  H104  1.110460 S    
C28   C33   1.548101 S    
C77   C81   1.413242 A    
Zn8   O9    1.940081 S    
C111  H67   1.082639 S    
C112  H68   1.082673 S    
C66   H38   1.081292 S    
C103  C111  1.393212 A    
C181  H86   1.093550 S    
C170  C174  1.407680 A    
C82   C89   1.413750 A    
C70   H42   1.082364 S    
O7    C3    1.277482 A    
C130  C146  1.421421 A    
C1    C146  1.459206 S    
O19   C15   1.286805 A    
C135  C151  1.415150 A    
C126  C134  1.417765 A    
O44   C21   1.279740 A    
C168  H84   1.081784 S    
C32   C35   1.547905 S    
Zn6   O18   1.941066 S    
Zn10  O23   1.941360 S    
C98   C138  1.418771 A    
C46   C54   1.392846 A    
C73   C85   1.414013 A    
C107  C119  1.388734 A    
C118  C126  1.392548 A    
C42   H22   1.082498 S    
C121  C129  1.417754 A    
Zn15  O36   1.939358 S    
O15   C11   1.278600 A    
O42   C22   1.276244 A    
C47   H27   1.080828 S    
Zn4   O1    1.957270 S    
C30   C32   1.546875 S    
Zn9   O37   1.941906 S    
O12   C8    1.277480 A    
C36   H4    1.110296 S    
C186  H102  1.110488 S    
Zn11  O39   1.941906 S    
C70   C78   1.416364 A    
C41   C81   1.418005 A    
C62   C70   1.393714 A    
C137  C146  1.411496 A    
Zn5   O3    1.945203 S    
C44   C52   1.391167 A    
Zn6   O4    1.945205 S    
C167  C171  1.416973 A    
C168  C172  1.418224 A    
C33   C37   1.534018 S    
C122  C130  1.413803 A    
C48   C56   1.393565 A    
H80   C163  1.083666 S    
C46   H26   1.081338 S    
C42   C82   1.416619 A    
C26   H6    1.110158 S    
C15   C96   1.458451 S    
C76   C88   1.413423 A    
C159  C163  1.387764 A    
Zn9   O24   1.941362 S    
O28   C5    1.280232 A    
H17   C62   1.082477 S    
Zn3   O42   1.940096 S    
C169  C173  1.407826 A    
C80   C84   1.409445 A    
Zn7   O4    1.957269 S    
O21   C4    1.276723 A    
C101  C109  1.392634 A    
C120  C128  1.393327 A    
C11   C92   1.457053 S    
H51   C120  1.082217 S    
C60   C68   1.393111 A    
C99   C107  1.393072 A    
C61   C69   1.393275 A    
C87   C96   1.411076 A    
C36   C40   1.534018 S    
C127  C135  1.418170 A    
C88   C95   1.414554 A    
C64   C72   1.391993 A    
C106  C118  1.387732 A    
Zn2   O2    1.945205 S    
Zn14  O2    1.949134 S    
C101  H57   1.081007 S    
C56   C60   1.389324 A    
C30   C39   1.536777 S    
Zn13  O49   1.944412 S    
C183  H91   1.107452 S    
C50   C62   1.390075 A    
C55   C59   1.385445 A    
C28   H8    1.110302 S    
C155  C183  1.521716 S    
C28   C38   1.533923 S    
C154  C174  1.458294 A    
Zn12  O27   1.941360 S    
C104  C112  1.393074 A    
H78   C161  1.083270 S    
C134  C138  1.413063 A    
C127  H75   1.081679 S    
H47   C116  1.081955 S    
C128  H76   1.081744 S    
Zn3   O2    1.957269 S    
C175  C180  1.426690 A    
H14   C57   1.082477 S    
C113  C121  1.392546 A    
C124  H72   1.081677 S    
C79   C95   1.414822 A    
C125  H73   1.065323 S    
C80   C96   1.421790 A    
O46   C24   1.276075 A    
O47   C24   1.279740 A    
C34   H2    1.110274 S    
Zn16  O52   1.944415 S    
C102  H58   1.080753 S    
C34   C38   1.533719 S    
Zn8   O45   1.940096 S    
C57   C65   1.393716 A    
C108  H64   1.082638 S    
O27   C6    1.275285 A    
C109  H65   1.082688 S    
C185  H98   1.109970 S    
O39   C19   1.274805 A    
C54   H34   1.082691 S    
C49   C61   1.388439 A    
C86   C93   1.415202 A    
Zn1   O13   1.941067 S    
C29   C31   1.546965 S    
C6    C149  1.459204 S    
C33   H1    1.110296 S    
C135  C139  1.413241 A    
O24   C1    1.275288 A    
H50   C117  1.082704 S    
C155  C159  1.425411 A    
C134  C150  1.416478 A    
C4    C147  1.456528 S    
C188  H108  1.109970 S    
C164  C168  1.375689 A    
O43   C22   1.279766 A    
C47   C87   1.421229 A    
Zn4   O41   1.940096 S    
Zn3   O15   1.937668 S    
C58   C66   1.393274 A    
H19   C64   1.082798 S    
Zn5   O12   1.941671 S    
H20   C63   1.082717 S    
Zn6   O11   1.941669 S    
C110  H66   1.082687 S    
Zn9   O21   1.936870 S    
Zn14  O50   1.944415 S    
C29   C35   1.546935 S    
C156  C176  1.457622 A    
C140  C147  1.415031 A    
C52   H32   1.082720 S    
O35   C14   1.275121 A    
C141  C150  1.415398 A    
Zn12  O40   1.941904 S    
C19   C180  1.422754 S    
C32   C40   1.533896 S    
Zn9   O1    1.954297 S    
C143  C152  1.415029 A    
C160  C188  1.513107 S    
C153  C173  1.457624 A    
O52   C20   1.270183 A    
C83   C92   1.414552 A    
C99   C139  1.417722 A    
C25   C38   1.536777 S    
C18   C177  1.422752 S    
C29   H9    1.110158 S    
C68   H40   1.081326 S    
C81   C90   1.415201 A    
H48   C115  1.082210 S    
C166  H82   1.081678 S    
C2    C145  1.458188 S    
C183  H93   1.102617 S    
O22   C3    1.276714 A    
C124  C132  1.418170 A    
H52   C119  1.081958 S    
Zn7   O19   1.937668 S    
C16   C95   1.457050 S    
C35   C39   1.533719 S    
Zn13  O32   1.939358 S    
C128  C136  1.418145 A    
O49   C17   1.270185 A    
Zn14  O31   1.939358 S    
C74   C86   1.413243 A    
C187  H105  1.109378 S    
C55   H35   1.082720 S    
C188  H106  1.111193 S    
O51   C19   1.266412 A    
C9    C90   1.456902 S    
C77   C93   1.415456 A    
C116  C124  1.393403 A    
C29   C40   1.536855 S    
C27   H7    1.110188 S    
Zn4   O5    1.940081 S    
O20   C16   1.278595 A    
C30   C36   1.547009 S    
C47   C55   1.391169 A    
O10   C6    1.287605 A    
O23   C2    1.280234 A    
Zn11  O25   1.936870 S    
Zn10  O38   1.941904 S    
O14   C10   1.275691 A    
C21   C38   1.472455 S    
C68   C76   1.417031 A    
C98   H54   1.081008 S    
C25   H5    1.110182 S    
C23   C40   1.472828 S    
C172  C180  1.419761 A    
C153  C181  1.512986 S    
C129  C141  1.413058 A    
C184  H94   1.104236 S    
C138  C145  1.415400 A    
O17   C13   1.275686 A    
O45   C23   1.276244 A    
