data_mof_unit_16230.cif
_audit_creation_date              2012-12-10T19:08:08-0500
_audit_creation_method            fapswitch 2.2
_symmetry_space_group_name_H-M    P1
_symmetry_Int_Tables_number       1
_space_group_crystal_system       triclinic
_cell_length_a                    9.065367
_cell_length_b                    10.859321
_cell_length_c                    9.603805
_cell_angle_alpha                 89.833696
_cell_angle_beta                  89.571207
_cell_angle_gamma                 91.074143
_cell_volume                      945.237402271

loop_
_atom_site_label
_atom_site_type_symbol
_atom_type_description
_atom_site_fract_x
_atom_site_fract_y
_atom_site_fract_z
_atom_type_partial_charge
C1    C     C_R   0.494001 0.262396 0.499812 0.785930
C2    C     C_R   0.476006 0.933642 0.374047 -0.221617
C3    C     C_R   0.507966 0.870461 0.497373 -0.173703
C4    C     C_R   0.544772 0.937660 0.616041 0.107309
C5    C     C_3   0.483736 0.927211 0.760447 -0.470230
C6    C     C_3   0.475230 0.066346 0.760088 -0.355750
C7    C     C_R   0.565635 0.594531 0.072269 0.122655
C8    C     C_R   0.423225 0.413965 0.076722 0.003505
C9    C     C_R   0.421229 0.413445 0.929381 0.471622
C10   C     C_R   0.566305 0.594174 0.925676 0.085260
C11   C     C_3   0.723588 0.638298 0.918682 0.177392
C12   C     C_R   0.220873 0.499896 0.500294 0.817118
C13   C     C_3   0.722275 0.640170 0.077556 0.171667
C14   C     C_R   0.501588 0.737303 0.499719 0.805659
C15   C     C_R   0.779114 0.500179 0.499710 0.851751
C16   C     C_1   0.065598 0.500034 0.500439 -0.175304
C17   C     C_1   0.934377 0.500141 0.499591 -0.146722
C18   C     C_R   0.538323 0.064576 0.615819 0.068298
C19   C     C_R   0.492343 0.128395 0.497792 -0.206112
C20   C     C_R   0.461424 0.060988 0.374314 0.397043
Cu1   Cu    Cu3+1 0.499990 0.499980 0.640670 0.982132
Cu2   Cu    Cu3+1 0.500010 0.500020 0.359330 0.988285
H1    H     H_    0.737485 0.730386 0.868736 0.036530
H2    H     H_    0.733292 0.733678 0.124138 0.043529
H3    H     H_    0.449109 0.883769 0.279706 0.181834
H4    H     H_    0.373743 0.880158 0.764700 0.203525
H5    H     H_    0.565709 0.892208 0.835427 0.186288
H6    H     H_    0.359898 0.099288 0.762970 0.225900
H7    H     H_    0.551396 0.111270 0.835490 0.231350
H8    H     H_    0.361715 0.343997 0.133766 0.168088
N1    N     N_R   0.500920 0.500930 0.147930 -0.194659
N2    N     N_R   0.500930 0.500890 0.852020 -0.203809
O1    O     O_R   0.500000 0.319640 0.618810 -0.573836
O2    O     O_R   0.500020 0.319680 0.381230 -0.562685
O3    O     O_R   0.288380 0.499980 0.618770 -0.613918
O4    O     O_R   0.288400 0.500020 0.381190 -0.588108
O5    O     O_R   0.499980 0.680320 0.618770 -0.586169
O6    O     O_R   0.500000 0.680360 0.381190 -0.596428
O7    O     O_R   0.711600 0.499980 0.618810 -0.520792
O8    O     O_R   0.711620 0.500020 0.381230 -0.516109
O9    O     O_3   0.406361 0.114197 0.255804 -0.712184
H9    H     H_    0.330214 0.172941 0.285963 0.318411
O10   O     O_3   0.816693 0.553025 0.134710 -0.627179
H10   H     H_    0.914813 0.594569 0.141048 0.316315
O11   O     O_3   0.339194 0.320371 0.869745 -0.758689
H11   H     H_    0.308030 0.347205 0.777435 0.366635
O12   O     O_3   0.817435 0.548628 0.865006 -0.627538
H12   H     H_    0.916283 0.588903 0.856867 0.317510

loop_
_geom_bond_atom_site_label_1
_geom_bond_atom_site_label_2
_ccdc_geom_bond_type
C7    C10   A    
O10   H10   S    
C9    O11   S    
Cu1   O3    S    
C12   O4    A    
Cu2   O4    S    
O9    H9    S    
C11   O12   S    
O12   H12   S    
Cu1   O7    S    
C7    C13   S    
C8    H8    S    
C19   C20   A    
C2    C3    A    
C14   O6    A    
Cu2   O8    S    
C5    H5    S    
Cu1   Cu2   S    
C14   O5    A    
C11   C13   S    
C15   O7    A    
C16   C17   T    
C3    C14   S    
C6    C18   S    
C11   H1    S    
C1    O2    A    
C20   O9    S    
C2    H3    S    
C5    C6    S    
Cu2   O2    S    
Cu1   N2    S    
C15   O8    A    
C1    C19   S    
C7    N1    A    
Cu2   N1    S    
C1    O1    A    
C5    H4    S    
Cu2   O6    S    
C10   N2    A    
C13   O10   S    
C6    H7    S    
Cu1   O1    S    
Cu1   O5    S    
C18   C19   A    
C10   C11   S    
C15   C17   S    
C8    C9    A    
C12   C16   S    
C9    N2    A    
O11   H11   S    
C8    N1    A    
C2    C20   A    
C4    C18   A    
C6    H6    S    
C3    C4    A    
C13   H2    S    
C4    C5    S    
C12   O3    A    
