data_mof_unit_30993.cif
_audit_creation_date              2012-12-11T15:17:44-0500
_audit_creation_method            fapswitch 2.2
_symmetry_space_group_name_H-M    P1
_symmetry_Int_Tables_number       1
_space_group_crystal_system       triclinic
_cell_length_a                    6.931953
_cell_length_b                    19.716565
_cell_length_c                    22.871169
_cell_angle_alpha                 90.00023
_cell_angle_beta                  89.092809
_cell_angle_gamma                 89.011824
_cell_volume                      3125.04427528

loop_
_atom_site_label
_atom_site_type_symbol
_atom_type_description
_atom_site_fract_x
_atom_site_fract_y
_atom_site_fract_z
_atom_type_partial_charge
O1    O     O_R   0.620180 0.810610 0.187990 -0.543006
O2    O     O_R   0.379820 0.189390 0.812010 -0.548517
O3    O     O_R   0.379820 0.189390 0.687990 -0.537478
O4    O     O_R   0.620180 0.810610 0.312010 -0.537733
O5    O     O_R   0.120180 0.689390 0.312010 -0.537471
O6    O     O_R   0.879820 0.310610 0.687990 -0.544032
O7    O     O_R   0.879820 0.310610 0.812010 -0.530935
O8    O     O_R   0.120180 0.689390 0.187990 -0.524312
O9    O     O_R   0.290420 0.818570 0.311590 -0.550372
O10   O     O_R   0.709580 0.181430 0.688410 -0.521027
O11   O     O_R   0.709580 0.181430 0.811590 -0.531000
O12   O     O_R   0.290420 0.818570 0.188410 -0.518808
O13   O     O_R   0.790420 0.681430 0.188410 -0.531969
O14   O     O_R   0.209580 0.318570 0.811590 -0.522184
O15   O     O_R   0.209580 0.318570 0.688410 -0.537416
O16   O     O_R   0.790420 0.681430 0.311590 -0.523465
C1    C     C_R   0.456422 0.835545 0.331719 0.684367
C2    C     C_R   0.543579 0.163831 0.668685 0.712773
C3    C     C_R   0.541473 0.163758 0.831266 0.719427
C4    C     C_R   0.458358 0.836713 0.169335 0.721831
C5    C     C_R   0.961901 0.663491 0.169445 0.716777
C6    C     C_R   0.038480 0.335662 0.831414 0.718506
C7    C     C_R   0.040687 0.336208 0.668762 0.716611
C8    C     C_R   0.959171 0.663158 0.330367 0.716727
H1    H     H_    0.310111 0.643053 0.516578 0.146903
H2    H     H_    0.628179 0.376093 0.495975 0.152171
H3    H     H_    0.385735 0.376896 0.016352 0.153966
H4    H     H_    0.616314 0.621365 0.985818 0.154758
H5    H     H_    0.842517 0.860207 0.986349 0.144085
H6    H     H_    0.102744 0.117901 0.998166 0.155964
H7    H     H_    0.144878 0.133553 0.494352 0.140058
H8    H     H_    0.862760 0.867795 0.503804 0.134681
H9    H     H_    0.790110 0.338772 0.581655 0.132072
H10   H     H_    0.174708 0.671972 0.424718 0.120779
H11   H     H_    0.756747 0.664351 0.072557 0.117900
H12   H     H_    0.249162 0.335082 0.928117 0.114553
H13   H     H_    0.279415 0.158890 0.916706 0.132744
H14   H     H_    0.691186 0.829006 0.076225 0.123251
H15   H     H_    0.696334 0.831673 0.420742 0.103894
H16   H     H_    0.310865 0.169409 0.577988 0.123536
O17   O     O_3   0.453640 0.707610 0.250000 -0.335949
O18   O     O_3   0.546360 0.292390 0.750000 -0.352833
O19   O     O_3   0.953640 0.792390 0.250000 -0.352104
O20   O     O_3   0.046360 0.207610 0.750000 -0.351775
V1    V     V_3+5 0.178800 0.757860 0.250000 1.589802
V2    V     V_3+5 0.821200 0.242140 0.750000 1.566753
V3    V     V_3+5 0.678800 0.742140 0.250000 1.586033
V4    V     V_3+5 0.321200 0.257860 0.750000 1.547892
C9    C     C_R   0.887428 0.381190 0.578704 -0.171343
C10   C     C_R   0.087428 0.626814 0.425939 -0.170578
C11   C     C_R   0.858603 0.621936 0.072978 -0.152446
C12   C     C_R   0.145380 0.376913 0.928317 -0.132540
C13   C     C_R   0.383459 0.117386 0.920264 -0.176972
C14   C     C_R   0.594183 0.872660 0.073682 -0.163090
C15   C     C_R   0.597027 0.874682 0.424402 -0.153459
C16   C     C_R   0.407951 0.125740 0.574887 -0.154540
C17   C     C_R   0.029326 0.388439 0.621090 -0.166474
C18   C     C_R   0.965916 0.613314 0.379265 -0.149701
C19   C     C_R   0.978351 0.613125 0.121068 -0.136325
C20   C     C_R   0.022999 0.385321 0.880663 -0.131831
C21   C     C_R   0.533548 0.111653 0.879067 -0.163747
C22   C     C_R   0.462463 0.885444 0.119431 -0.161671
C23   C     C_R   0.457920 0.884485 0.381716 -0.131034
C24   C     C_R   0.542578 0.114625 0.618756 -0.152052
C25   C     C_R   0.156749 0.444239 0.616669 -0.035798
C26   C     C_R   0.854299 0.553358 0.380479 -0.049645
C27   C     C_R   0.106689 0.556112 0.122757 -0.140372
C28   C     C_R   0.891448 0.441284 0.880223 -0.040927
C29   C     C_R   0.672534 0.057812 0.885054 -0.049644
C30   C     C_R   0.336224 0.943152 0.115765 -0.069219
C31   C     C_R   0.326781 0.940626 0.387012 -0.170970
C32   C     C_R   0.669764 0.057115 0.614327 -0.078972
C33   C     C_R   0.132437 0.494084 0.571435 -0.017918
C34   C     C_R   0.846303 0.513268 0.432751 -0.016443
C35   C     C_R   0.130314 0.513498 0.072171 -0.043796
C36   C     C_R   0.869312 0.484035 0.930635 -0.026451
C37   C     C_R   0.648524 0.007225 0.929657 -0.022228
C38   C     C_R   0.329922 0.982297 0.063101 -0.013914
C39   C     C_R   0.337569 0.986632 0.435526 -0.009279
C40   C     C_R   0.663380 0.012582 0.564696 -0.036646
C41   C     C_R   0.995610 0.482020 0.526928 0.061138
C42   C     C_R   0.980405 0.526031 0.477798 0.049472
C43   C     C_R   0.998955 0.521793 0.025291 0.058487
C44   C     C_R   0.002373 0.476114 0.977070 0.047790
C45   C     C_R   0.497319 0.016646 0.971895 0.069332
C46   C     C_R   0.477538 0.971626 0.020111 0.052903
C47   C     C_R   0.488381 0.976648 0.476484 0.090528
C48   C     C_R   0.515015 0.023344 0.523085 0.045260
C49   C     C_R   0.872723 0.426100 0.531466 0.117800
C50   C     C_R   0.100202 0.582766 0.473725 0.111678
C51   C     C_R   0.862868 0.575669 0.026592 0.107575
C52   C     C_R   0.139651 0.422615 0.975335 0.115611
C53   C     C_R   0.365473 0.071307 0.966321 0.124974
C54   C     C_R   0.607582 0.916527 0.025744 0.113319
C55   C     C_R   0.614014 0.920042 0.470845 0.132957
C56   C     C_R   0.391066 0.080460 0.528292 0.116267
C57   C     C_R   0.239004 0.555590 0.568310 -0.029019
C58   C     C_R   0.710291 0.460604 0.441907 -0.021336
C59   C     C_R   0.277096 0.461978 0.066763 -0.053926
C60   C     C_R   0.721980 0.535358 0.936298 -0.032981
C61   C     C_R   0.767960 0.947413 0.934343 -0.027287
C62   C     C_R   0.185604 0.033371 0.052303 -0.017021
C63   C     C_R   0.209356 0.043759 0.444129 -0.032099
C64   C     C_R   0.793983 0.956124 0.555546 -0.007529
C65   C     C_R   0.226370 0.597073 0.518781 -0.185695
C66   C     C_R   0.730300 0.416672 0.489786 -0.175579
C67   C     C_R   0.274617 0.416210 0.019797 -0.187618
C68   C     C_R   0.727035 0.581894 0.982438 -0.196378
C69   C     C_R   0.748975 0.904722 0.982883 -0.181636
C70   C     C_R   0.210299 0.078280 0.005505 -0.165780
C71   C     C_R   0.243039 0.090457 0.488585 -0.159883
C72   C     C_R   0.762947 0.910316 0.510192 -0.182565
C73   C     C_2   0.345985 0.584052 0.617925 0.823330
O21   O     O_2   0.509820 0.604708 0.610212 -0.533061
O22   O     O_R   0.255796 0.590240 0.672826 -0.624680
H17   H     H_    0.342742 0.610854 0.703051 0.331592
C74   C     C_2   0.531734 0.454572 0.407348 0.810561
O23   O     O_2   0.469745 0.398554 0.395631 -0.520514
O24   O     O_R   0.429685 0.512920 0.390396 -0.656342
H18   H     H_    0.309766 0.502176 0.367574 0.326925
C75   C     C_2   0.448476 0.458236 0.104763 0.803723
O25   O     O_2   0.509925 0.403129 0.121417 -0.528978
O26   O     O_R   0.545046 0.517392 0.119299 -0.652503
H19   H     H_    0.660405 0.508138 0.145005 0.305754
C76   C     C_2   0.546896 0.538316 0.899937 0.799221
O27   O     O_2   0.459142 0.486538 0.889639 -0.546904
O28   O     O_R   0.476064 0.600949 0.880270 -0.640130
H20   H     H_    0.353809 0.596534 0.856905 0.326539
C77   C     C_2   0.899258 0.921694 0.887504 0.813474
O29   O     O_2   0.066795 0.906860 0.898634 -0.538344
O30   O     O_R   0.828459 0.910720 0.831520 -0.639674
H21   H     H_    0.930250 0.890541 0.804037 0.316490
C78   C     C_2   0.998214 0.038316 0.084765 0.788944
O31   O     O_2   0.921498 0.093809 0.093601 -0.529932
O32   O     O_R   0.906129 0.979637 0.103652 -0.659501
H22   H     H_    0.782155 0.990053 0.126267 0.316082
C79   C     C_2   0.029017 0.055917 0.411789 0.794859
O33   O     O_2   0.904297 0.012954 0.411650 -0.562498
O34   O     O_R   0.997083 0.118417 0.384454 -0.628533
H23   H     H_    0.867214 0.121261 0.364739 0.329545
C80   C     C_2   0.974651 0.944285 0.588095 0.776587
O35   O     O_2   0.010950 0.888065 0.608163 -0.529935
O36   O     O_R   0.107392 0.996211 0.593485 -0.659631
H24   H     H_    0.224932 0.981687 0.616486 0.315270
C81   C     C_2   0.324249 0.446578 0.655698 0.776620
O37   O     O_2   0.299615 0.450085 0.708677 -0.532519
O38   O     O_R   0.510253 0.445618 0.631225 -0.670291
H25   H     H_    0.614572 0.449376 0.661433 0.296806
C82   C     C_2   0.783919 0.524858 0.324524 0.790336
O39   O     O_2   0.681999 0.558623 0.292102 -0.519761
O40   O     O_R   0.833131 0.457917 0.309631 -0.630497
H26   H     H_    0.775807 0.443531 0.271144 0.331378
C83   C     C_2   0.182031 0.533689 0.180487 0.819653
O41   O     O_2   0.286193 0.570421 0.208475 -0.487853
O42   O     O_R   0.136593 0.469985 0.203168 -0.620733
H27   H     H_    0.044800 0.444202 0.177649 0.275123
C84   C     C_2   0.807874 0.461934 0.823729 0.794210
O43   O     O_2   0.859107 0.514655 0.800506 -0.524261
O44   O     O_R   0.667946 0.422342 0.797916 -0.621094
H28   H     H_    0.620351 0.442920 0.760285 0.316850
C85   C     C_2   0.846726 0.057421 0.847189 0.785976
O45   O     O_2   0.830671 0.055414 0.794308 -0.533396
O46   O     O_R   0.029178 0.059039 0.871864 -0.672162
H29   H     H_    0.136173 0.056705 0.841142 0.309838
C86   C     C_2   0.244734 0.971963 0.169484 0.821789
O47   O     O_2   0.137309 0.938137 0.200103 -0.504713
O48   O     O_R   0.270799 0.040664 0.181934 -0.633942
H30   H     H_    0.176160 0.058957 0.212440 0.357492
C87   C     C_2   0.204600 0.957334 0.336638 0.876600
O49   O     O_2   0.251086 0.004065 0.304909 -0.520474
O50   O     O_R   0.034145 0.922793 0.325997 -0.593951
H31   H     H_    0.003693 0.888080 0.357369 0.265093
C88   C     C_2   0.784442 0.037215 0.665378 0.838013
O51   O     O_2   0.922991 0.070654 0.679589 -0.510521
O52   O     O_R   0.742949 0.976305 0.693833 -0.635362
H32   H     H_    0.848210 0.961610 0.721479 0.342856

loop_
_geom_bond_atom_site_label_1
_geom_bond_atom_site_label_2
_ccdc_geom_bond_type
C47   C48   A    
C48   C56   A    
O9    V1    S    
C84   O43   D    
C30   C38   A    
C87   O49   D    
C29   C37   A    
O38   H25   S    
O50   H31   S    
C2    C24   S    
C36   C44   A    
C39   C47   A    
C41   C42   A    
H1    C65   S    
O26   H19   S    
C34   C58   A    
C45   C46   A    
C33   C57   A    
C79   O34   S    
O11   C3    A    
C86   O47   D    
C10   C50   A    
C40   C64   A    
H5    C69   S    
C29   C85   S    
C77   O29   D    
C55   C72   A    
C82   O40   S    
C6    C20   S    
C3    C21   S    
C38   C62   A    
H9    C9    S    
O36   H24   S    
C26   C34   A    
O3    V4    S    
C9    C17   A    
C22   C30   A    
O3    C2    A    
C16   C56   A    
O18   V2    S    
O8    V1    S    
C63   C79   S    
C12   C20   A    
C85   O46   S    
C45   C53   A    
C18   C26   A    
H15   C15   S    
C43   C44   A    
H16   C16   S    
C15   C23   A    
C49   C66   A    
O10   V2    S    
O40   H26   S    
C31   C87   S    
C83   O42   S    
C46   C54   A    
H12   C12   S    
O6    V2    S    
C53   C70   A    
C59   C75   S    
C41   C49   A    
C38   C46   A    
O15   C7    A    
C37   C45   A    
O16   C8    A    
C11   C51   A    
C87   O50   S    
C39   C63   A    
C86   O48   S    
C13   C21   A    
O15   V4    S    
C34   C42   A    
O16   V3    S    
C33   C41   A    
C81   O38   S    
O20   V2    S    
C81   O37   D    
C88   O52   S    
C56   C71   A    
C60   C68   A    
H10   C10   S    
C13   C53   A    
C60   C76   S    
C10   C18   A    
O7    V2    S    
O32   H22   S    
C26   C82   S    
C15   C55   A    
C25   C33   A    
C17   C25   A    
O48   H30   S    
O13   V3    S    
O1    V3    S    
O14   V4    S    
C14   C22   A    
O2    V4    S    
C88   O51   D    
O5    V1    S    
C31   C39   A    
C32   C40   A    
C47   C55   A    
C80   O36   S    
C84   O44   S    
H13   C13   S    
C14   C54   A    
H2    C66   S    
C19   C27   A    
O44   H28   S    
H14   C14   S    
H3    C67   S    
O34   H23   S    
C52   C67   A    
O12   C4    A    
C35   C59   A    
O8    C5    A    
O17   V3    S    
O13   C5    A    
O18   V4    S    
C32   C88   S    
C76   O28   S    
O19   V1    S    
C75   O25   D    
C23   C31   A    
O4    C1    A    
O9    C1    A    
H6    C70   S    
H11   C11   S    
C78   O31   D    
C30   C86   S    
C27   C35   A    
C57   C73   S    
C28   C84   S    
C59   C67   A    
C58   C74   S    
C64   C72   A    
C73   O21   D    
C21   C29   A    
C7    C17   S    
O1    C4    A    
H7    C71   S    
H8    C72   S    
O2    C3    A    
C73   O22   S    
C51   C68   A    
C50   C65   A    
C9    C49   A    
O12   V1    S    
C58   C66   A    
O24   H18   S    
C5    C19   S    
C63   C71   A    
C36   C60   A    
O7    C6    A    
C43   C51   A    
C79   O33   D    
C54   C69   A    
C74   O23   D    
C42   C50   A    
C27   C83   S    
O14   C6    A    
C74   O24   S    
C62   C78   S    
C57   C65   A    
C40   C48   A    
O52   H32   S    
C85   O45   D    
C82   O39   D    
C1    C23   S    
C28   C36   A    
C35   C43   A    
C16   C24   A    
C76   O27   D    
O5    C8    A    
O19   V3    S    
O10   C2    A    
C62   C70   A    
O6    C7    A    
C25   C81   S    
C37   C61   A    
C24   C32   A    
C4    C22   S    
O30   H21   S    
H4    C68   S    
C75   O26   S    
O46   H29   S    
C12   C52   A    
O20   V4    S    
C11   C19   A    
C20   C28   A    
C8    C18   S    
O42   H27   S    
C78   O32   S    
O17   V1    S    
C64   C80   S    
O11   V2    S    
C44   C52   A    
O22   H17   S    
C83   O41   D    
C80   O35   D    
C61   C69   A    
O28   H20   S    
C77   O30   S    
O4    V3    S    
C61   C77   S    
