data_mof_unit_37458.cif
_audit_creation_date              2012-12-10T18:43:09-0500
_audit_creation_method            fapswitch 2.2
_symmetry_space_group_name_H-M    P1
_symmetry_Int_Tables_number       1
_space_group_crystal_system       triclinic
_cell_length_a                    10.77013
_cell_length_b                    9.927648
_cell_length_c                    10.798202
_cell_angle_alpha                 89.999725
_cell_angle_beta                  93.461536
_cell_angle_gamma                 90.000388
_cell_volume                      1152.45955722

loop_
_atom_site_label
_atom_site_type_symbol
_atom_type_description
_atom_site_fract_x
_atom_site_fract_y
_atom_site_fract_z
_atom_type_partial_charge
C1    C     C_R   0.260644 0.499106 0.506874 0.827154
C2    C     C_R   0.936516 0.371091 0.486082 -0.051058
C3    C     C_R   0.872101 0.495193 0.487302 -0.071205
C4    C     C_R   0.127899 0.495192 0.512699 -0.071204
C5    C     C_R   0.936502 0.617015 0.494266 -0.212397
C6    C     C_R   0.063500 0.617014 0.505742 -0.212395
C7    C     C_R   0.550598 0.071642 0.600458 0.348331
C8    C     C_R   0.449402 0.071642 0.399542 0.348329
C9    C     C_R   0.552848 0.927678 0.599107 0.342933
C10   C     C_R   0.447152 0.927677 0.400893 0.342940
C11   C     C_1   0.411227 0.274280 0.884306 0.323068
C12   C     C_R   0.739356 0.499106 0.493127 0.827162
C13   C     C_1   0.588774 0.274281 0.115696 0.323064
C14   C     C_1   0.123008 0.244675 0.551448 0.170358
C15   C     C_1   0.876988 0.244678 0.448543 0.170359
C16   C     C_3   0.707782 0.180405 0.717031 0.179284
C17   C     C_3   0.762634 0.169042 0.850053 -0.877178
C18   C     C_3   0.292213 0.180396 0.282971 0.179267
C19   C     C_3   0.237366 0.169050 0.149947 -0.877207
C20   C     C_3   0.728674 0.838537 0.697296 0.172091
C21   C     C_3   0.772088 0.719600 0.777884 -0.806251
C22   C     C_3   0.271322 0.838534 0.302710 0.172113
C23   C     C_R   0.501645 0.499551 0.262964 0.913526
C24   C     C_3   0.227910 0.719572 0.222149 -0.806228
C25   C     C_R   0.498356 0.499551 0.737035 0.913526
C26   C     C_2   0.482547 0.387913 0.934719 -0.061172
C27   C     C_2   0.517456 0.387913 0.065282 -0.061167
C28   C     C_2   0.511437 0.496997 0.869069 -0.407849
C29   C     C_2   0.488566 0.496998 0.130931 -0.407844
C30   C     C_R   0.063482 0.371090 0.513914 -0.051058
H1    H     H_    0.557143 0.583512 0.913581 0.176892
H2    H     H_    0.287569 0.288127 0.306058 0.188162
H3    H     H_    0.232525 0.125193 0.346358 0.087150
H4    H     H_    0.134530 0.178473 0.148190 0.213638
H5    H     H_    0.273861 0.251517 0.093242 0.246859
H6    H     H_    0.262063 0.071364 0.107940 0.282426
H7    H     H_    0.780020 0.926090 0.735705 0.133079
H8    H     H_    0.757173 0.823380 0.601359 0.120894
H9    H     H_    0.733935 0.623733 0.739877 0.246673
H10   H     H_    0.875174 0.712916 0.780901 0.201304
H11   H     H_    0.742700 0.733371 0.873887 0.248550
H12   H     H_    0.442862 0.583513 0.086417 0.176891
H13   H     H_    0.219976 0.926078 0.264273 0.133086
H14   H     H_    0.242822 0.823401 0.398654 0.120872
H15   H     H_    0.266069 0.623715 0.260173 0.246683
H16   H     H_    0.124826 0.712881 0.219141 0.201299
H17   H     H_    0.257289 0.733323 0.126140 0.248534
H18   H     H_    0.889443 0.712992 0.489456 0.159297
H19   H     H_    0.110561 0.712991 0.510558 0.159303
H20   H     H_    0.712419 0.288143 0.693957 0.188155
H21   H     H_    0.767472 0.125217 0.653634 0.087152
H22   H     H_    0.865473 0.178467 0.851809 0.213634
H23   H     H_    0.726139 0.251500 0.906770 0.246852
H24   H     H_    0.737939 0.071346 0.892052 0.282423
N1    N     N_R   0.500000 0.857200 0.500000 -0.206944
N2    N     N_R   0.500000 0.142810 0.500000 -0.203666
N3    N     N_1   0.353714 0.183861 0.844764 -0.160519
N4    N     N_1   0.646286 0.183862 0.155240 -0.160520
N5    N     N_1   0.169599 0.144053 0.582290 -0.228678
N6    N     N_1   0.830395 0.144057 0.417698 -0.228673
O1    O     O_R   0.316770 0.614620 0.499990 -0.625521
O2    O     O_3   0.417648 0.137198 0.288903 -0.556528
O3    O     O_3   0.598899 0.858107 0.703257 -0.541127
O4    O     O_3   0.401096 0.858106 0.296745 -0.541133
O5    O     O_R   0.683230 0.614620 0.500010 -0.625526
O6    O     O_R   0.316800 0.385290 0.500000 -0.640591
O7    O     O_R   0.683200 0.385290 0.500000 -0.640594
O8    O     O_R   0.500000 0.614630 0.319080 -0.553552
O9    O     O_R   0.500000 0.614630 0.680920 -0.553548
O10   O     O_R   0.500030 0.385300 0.319080 -0.579819
O11   O     O_R   0.499970 0.385300 0.680920 -0.579827
O12   O     O_3   0.582349 0.137197 0.711099 -0.556531
Zn1   Zn    Zn3+2 0.500000 0.653120 0.500000 1.003100
Zn2   Zn    Zn3+2 0.500000 0.346880 0.500000 0.991095

loop_
_geom_bond_atom_site_label_1
_geom_bond_atom_site_label_2
_ccdc_geom_bond_type
C23   O8    A    
O10   Zn2   S    
O11   Zn2   S    
O9    Zn1   S    
C10   N1    A    
C20   H7    S    
C29   H12   S    
C27   C29   D    
C20   H8    S    
C15   N6    T    
C25   O9    A    
N1    Zn1   S    
C22   H13   S    
C21   H9    S    
C16   H21   S    
C2    C30   A    
C1    C4    S    
C24   H16   S    
C16   O12   S    
C8    N2    A    
C20   O3    S    
C9    O3    S    
C1    O6    A    
C4    C30   A    
O1    Zn1   S    
O7    Zn2   S    
C19   H5    S    
C12   O7    A    
C25   C28   S    
C2    C15   S    
C23   O10   A    
C26   C27   S    
C5    C6    A    
C21   H10   S    
C22   H14   S    
C7    N2    A    
C14   C30   S    
C25   O11   A    
C24   H15   S    
C23   C29   S    
C17   H22   S    
C4    C6    A    
C5    H18   S    
C16   H20   S    
C2    C3    A    
C22   C24   S    
C19   H6    S    
C6    H19   S    
C13   N4    T    
C9    N1    A    
C18   H3    S    
C21   H11   S    
C18   H2    S    
C22   O4    S    
O6    Zn2   S    
C17   H23   S    
N2    Zn2   S    
C20   C21   S    
C8    C10   A    
C18   C19   S    
C12   O5    A    
O5    Zn1   S    
C7    O12   S    
C7    C9    A    
C13   C27   S    
C18   O2    S    
C3    C12   S    
C11   C26   S    
C14   N5    T    
O8    Zn1   S    
C11   N3    T    
C24   H17   S    
C26   C28   D    
C17   H24   S    
C28   H1    S    
C10   O4    S    
C8    O2    S    
C16   C17   S    
C3    C5    A    
C19   H4    S    
C1    O1    A    
