data_mof_unit_35628.cif
_audit_creation_date              2012-10-26T17:10:33-0400
_audit_creation_method            fapswitch 2.2
_symmetry_space_group_name_H-M    P1
_symmetry_Int_Tables_number       1
_space_group_crystal_system       triclinic
_cell_length_a                    16.944162
_cell_length_b                    16.943832
_cell_length_c                    16.943778
_cell_angle_alpha                 67.277538
_cell_angle_beta                  67.277694
_cell_angle_gamma                 67.278487
_cell_volume                      3974.85394572

loop_
_atom_site_label
_atom_site_type_symbol
_atom_type_description
_atom_site_fract_x
_atom_site_fract_y
_atom_site_fract_z
_atom_type_partial_charge
C1    C     C_R   0.599459 0.020650 0.596678 0.172700
C2    C     C_R   0.405383 0.975554 0.400512 0.161108
C3    C     C_R   0.020697 0.596663 0.599453 0.172674
C4    C     C_R   0.975519 0.400518 0.405407 0.161124
C5    C     C_R   0.596686 0.599455 0.020643 0.172651
C6    C     C_R   0.400521 0.405413 0.975499 0.161207
C7    C     C_R   0.023257 0.829796 0.567270 0.788482
C8    C     C_R   0.969917 0.170976 0.435666 0.788528
C9    C     C_R   0.829797 0.567267 0.023259 0.788481
C10   C     C_R   0.170975 0.435664 0.969922 0.788523
C11   C     C_R   0.567270 0.023251 0.829797 0.788434
C12   C     C_R   0.435664 0.969921 0.170976 0.788537
C13   C     C_R   0.432516 0.170107 0.977560 0.798787
C14   C     C_R   0.564253 0.828841 0.030104 0.773947
C15   C     C_R   0.977572 0.432511 0.170105 0.798853
C16   C     C_R   0.030121 0.564247 0.828840 0.773962
C17   C     C_R   0.170103 0.977574 0.432510 0.798851
C18   C     C_R   0.828841 0.030104 0.564253 0.773960
C19   C     C_R   0.550607 0.003435 0.548824 -0.151887
C20   C     C_R   0.457601 0.981663 0.452342 -0.171894
C21   C     C_R   0.003437 0.548817 0.550625 -0.151843
C22   C     C_R   0.981615 0.452350 0.457635 -0.171862
C23   C     C_R   0.548836 0.550623 0.003391 -0.151807
C24   C     C_R   0.452340 0.457639 0.981608 -0.171825
C25   C     C_R   0.594805 0.984630 0.465297 0.291602
C26   C     C_R   0.421877 0.974035 0.545064 0.280230
C27   C     C_R   0.984598 0.465305 0.594840 0.291640
C28   C     C_R   0.974008 0.545067 0.421903 0.280217
C29   C     C_R   0.465298 0.594827 0.984613 0.291631
C30   C     C_R   0.545067 0.421937 0.973918 0.280168
C31   C     C_R   0.544238 0.993526 0.410815 0.314180
C32   C     C_R   0.459582 0.003621 0.586521 0.315418
C33   C     C_R   0.410814 0.544261 0.993508 0.314145
C34   C     C_R   0.586546 0.459614 0.003510 0.315212
C35   C     C_R   0.993470 0.410825 0.544279 0.314082
C36   C     C_R   0.003616 0.586512 0.459600 0.315455
C37   C     C_R   0.567864 0.009457 0.689160 -0.184665
C38   C     C_R   0.447654 0.955630 0.318079 -0.178865
C39   C     C_R   0.009489 0.689148 0.567863 -0.184739
C40   C     C_R   0.955602 0.318081 0.447672 -0.178822
C41   C     C_R   0.689161 0.567847 0.009485 -0.184660
C42   C     C_R   0.318072 0.447670 0.955615 -0.178963
C43   C     C_R   0.311992 0.990541 0.432058 -0.163762
C44   C     C_R   0.681373 0.042320 0.552633 -0.203573
C45   C     C_R   0.432093 0.312023 0.990458 -0.163381
C46   C     C_R   0.552642 0.681370 0.042315 -0.203587
C47   C     C_R   0.990519 0.432063 0.312009 -0.163837
C48   C     C_R   0.042400 0.552615 0.681351 -0.203590
C49   C     C_R   0.607472 0.031659 0.733699 -0.138306
C50   C     C_R   0.398751 0.954337 0.268477 -0.160277
C51   C     C_R   0.031682 0.733694 0.607470 -0.138270
C52   C     C_R   0.954324 0.268478 0.398760 -0.160307
C53   C     C_R   0.733698 0.607466 0.031675 -0.138339
C54   C     C_R   0.268474 0.398756 0.954331 -0.160250
C55   C     C_R   0.266107 0.969850 0.392090 -0.154163
C56   C     C_R   0.730914 0.046160 0.600631 -0.178787
C57   C     C_R   0.392105 0.266120 0.969812 -0.154203
C58   C     C_R   0.600634 0.730912 0.046161 -0.178758
C59   C     C_R   0.969840 0.392093 0.266115 -0.154168
C60   C     C_R   0.046209 0.600618 0.730905 -0.178831
C61   C     C_R   0.688071 0.054801 0.687317 -0.020588
C62   C     C_R   0.311759 0.946936 0.311195 -0.036593
C63   C     C_R   0.054828 0.687314 0.688070 -0.020668
C64   C     C_R   0.946928 0.311196 0.311765 -0.036594
C65   C     C_R   0.687319 0.688073 0.054804 -0.020683
C66   C     C_R   0.311196 0.311763 0.946927 -0.036601
Cu1   Cu    Cu3+1 0.995180 0.995180 0.424630 1.016354
Cu2   Cu    Cu3+1 0.004820 0.004820 0.575370 1.023629
Cu3   Cu    Cu3+1 0.995180 0.424630 0.995180 1.016377
Cu4   Cu    Cu3+1 0.004820 0.575370 0.004820 1.023586
Cu5   Cu    Cu3+1 0.424630 0.995180 0.995180 1.016353
Cu6   Cu    Cu3+1 0.575370 0.004820 0.004820 1.023611
H1    H     H_    0.513536 0.980915 0.728418 0.179387
H2    H     H_    0.518574 0.941075 0.290592 0.169403
H3    H     H_    0.980931 0.728404 0.513546 0.179394
H4    H     H_    0.941043 0.290590 0.518594 0.169473
H5    H     H_    0.728427 0.513503 0.980970 0.179556
H6    H     H_    0.290569 0.518589 0.941086 0.169444
H7    H     H_    0.274258 0.016961 0.488638 0.209934
H8    H     H_    0.709957 0.052467 0.481797 0.213088
H9    H     H_    0.488694 0.274301 0.016844 0.209852
H10   H     H_    0.481809 0.709956 0.052458 0.213103
H11   H     H_    0.016938 0.488643 0.274277 0.209950
H12   H     H_    0.052567 0.481776 0.709928 0.213097
O1    O     O_R   0.124540 0.978640 0.385460 -0.531293
O2    O     O_R   0.875460 0.021360 0.614540 -0.537706
O3    O     O_R   0.978640 0.385460 0.124540 -0.531283
O4    O     O_R   0.021360 0.614540 0.875460 -0.537723
O5    O     O_R   0.385460 0.124540 0.978640 -0.531286
O6    O     O_R   0.614540 0.875460 0.021360 -0.537729
O7    O     O_R   0.614540 0.021360 0.875460 -0.531919
O8    O     O_R   0.385460 0.978640 0.124540 -0.536785
O9    O     O_R   0.875460 0.614540 0.021360 -0.531896
O10   O     O_R   0.124540 0.385460 0.978640 -0.536797
O11   O     O_R   0.021360 0.875460 0.614540 -0.531900
O12   O     O_R   0.978640 0.124540 0.385460 -0.536791
O13   O     O_R   0.013780 0.867370 0.487190 -0.609787
O14   O     O_R   0.986220 0.132630 0.512810 -0.599583
O15   O     O_R   0.867370 0.487190 0.013780 -0.609775
O16   O     O_R   0.132630 0.512810 0.986220 -0.599613
O17   O     O_R   0.487190 0.013780 0.867370 -0.609779
O18   O     O_R   0.512810 0.986220 0.132630 -0.599596
O19   O     O_R   0.512810 0.132630 0.986220 -0.593440
O20   O     O_R   0.487190 0.867370 0.013780 -0.601061
O21   O     O_R   0.986220 0.512810 0.132630 -0.593437
O22   O     O_R   0.013780 0.487190 0.867370 -0.601083
O23   O     O_R   0.132630 0.986220 0.512810 -0.593439
O24   O     O_R   0.867370 0.013780 0.487190 -0.601073
O25   O     O_3   0.405942 0.050070 0.649891 -0.599806
C67   C     C_3   0.352379 0.002114 0.726230 0.105863
H13   H     H_    0.363903 0.003317 0.785942 0.146537
H14   H     H_    0.369241 0.930390 0.731642 0.143733
C68   C     C_3   0.254195 0.050026 0.731435 -0.288035
H15   H     H_    0.240215 0.118528 0.734805 0.213678
H16   H     H_    0.239664 0.055261 0.670806 0.254841
C69   C     C_3   0.193094 0.002385 0.813504 -0.930434
H17   H     H_    0.205618 0.933791 0.811780 0.258884
H18   H     H_    0.122536 0.038517 0.814800 0.269664
H19   H     H_    0.203920 0.000079 0.875045 0.267674
O26   O     O_3   0.567952 0.034292 0.319423 -0.598448
C70   C     C_3   0.654132 0.991059 0.274118 0.106840
H20   H     H_    0.649708 0.986075 0.212539 0.141571
H21   H     H_    0.680086 0.921012 0.311266 0.136568
C71   C     C_3   0.717369 0.047850 0.245088 -0.267380
H22   H     H_    0.701038 0.105248 0.188323 0.193688
H23   H     H_    0.707945 0.074895 0.299217 0.255385
C72   C     C_3   0.814362 0.994917 0.216981 -0.924867
H24   H     H_    0.832421 0.939346 0.274682 0.267791
H25   H     H_    0.858093 0.039004 0.193028 0.270214
H26   H     H_    0.825356 0.967704 0.162367 0.255218
O27   O     O_3   0.050080 0.649870 0.405949 -0.599795
C73   C     C_3   0.002130 0.726218 0.352388 0.105861
H27   H     H_    0.003339 0.785925 0.363919 0.146515
H28   H     H_    0.930406 0.731636 0.369248 0.143758
C74   C     C_3   0.050044 0.731429 0.254201 -0.288013
H29   H     H_    0.118537 0.734817 0.240226 0.213660
H30   H     H_    0.055294 0.670793 0.239670 0.254836
C75   C     C_3   0.002398 0.813489 0.193094 -0.930388
H31   H     H_    0.933820 0.811736 0.205598 0.258904
H32   H     H_    0.038547 0.814801 0.122533 0.269652
H33   H     H_    0.000054 0.875037 0.203936 0.267660
O28   O     O_3   0.034224 0.319433 0.567993 -0.598460
C76   C     C_3   0.991007 0.274132 0.654186 0.106976
H34   H     H_    0.985979 0.212567 0.649771 0.141551
H35   H     H_    0.920975 0.311294 0.680168 0.136628
C77   C     C_3   0.047852 0.245069 0.717381 -0.267405
H36   H     H_    0.105219 0.188295 0.701031 0.193688
H37   H     H_    0.074942 0.299176 0.707929 0.255397
C78   C     C_3   0.994964 0.216973 0.814393 -0.924890
H38   H     H_    0.939423 0.274682 0.832468 0.267829
H39   H     H_    0.039087 0.193010 0.858090 0.270211
H40   H     H_    0.967718 0.162370 0.825418 0.255207
O29   O     O_3   0.649937 0.405951 0.049927 -0.599879
C79   C     C_3   0.726235 0.352355 0.001967 0.105697
H41   H     H_    0.785976 0.363845 0.003146 0.146539
H42   H     H_    0.731633 0.369210 0.930246 0.143802
C80   C     C_3   0.731375 0.254188 0.049913 -0.288049
H43   H     H_    0.734717 0.240229 0.118422 0.213723
H44   H     H_    0.670731 0.239698 0.055127 0.254780
C81   C     C_3   0.813428 0.193030 0.002334 -0.930368
H45   H     H_    0.811774 0.205589 0.933707 0.258837
H46   H     H_    0.814628 0.122485 0.038453 0.269647
H47   H     H_    0.874977 0.203769 0.000115 0.267692
O30   O     O_3   0.319429 0.567962 0.034287 -0.598468
C82   C     C_3   0.274119 0.654149 0.991073 0.106867
H48   H     H_    0.212534 0.649729 0.986096 0.141558
H49   H     H_    0.311255 0.680113 0.921024 0.136580
C83   C     C_3   0.245110 0.717368 0.047878 -0.267386
H50   H     H_    0.188342 0.701044 0.105267 0.193677
H51   H     H_    0.299238 0.707918 0.074935 0.255378
C84   C     C_3   0.217029 0.814369 0.994959 -0.924874
H52   H     H_    0.162408 0.825392 0.967739 0.255202
H53   H     H_    0.193097 0.858088 0.039054 0.270207
H54   H     H_    0.274735 0.832418 0.939394 0.267826
O31   O     O_3   0.351404 0.937508 0.595706 -0.624752
C85   C     C_3   0.383279 0.843899 0.610073 0.017699
H55   H     H_    0.447168 0.815683 0.628501 0.121650
H56   H     H_    0.394059 0.826739 0.548912 0.157355
C86   C     C_3   0.314539 0.800131 0.686096 -0.296188
H57   H     H_    0.301463 0.818479 0.747025 0.201949
H58   H     H_    0.251092 0.824563 0.667915 0.235281
C87   C     C_3   0.347462 0.698740 0.706596 -0.992116
H59   H     H_    0.356796 0.677908 0.648222 0.260449
H60   H     H_    0.297805 0.668876 0.764429 0.249147
H61   H     H_    0.411571 0.673203 0.723681 0.246679
O32   O     O_3   0.686604 0.952988 0.438740 -0.626620
C88   C     C_3   0.712694 0.858891 0.472845 0.029226
H62   H     H_    0.753145 0.829770 0.416214 0.147343
H63   H     H_    0.655990 0.828247 0.509475 0.115020
C89   C     C_3   0.771412 0.832038 0.533341 -0.304318
H64   H     H_    0.832732 0.854202 0.494627 0.224734
H65   H     H_    0.735389 0.864384 0.587756 0.231874
C90   C     C_3   0.796749 0.731778 0.574512 -0.979942
H66   H     H_    0.737871 0.706000 0.602007 0.255598
H67   H     H_    0.825899 0.716141 0.628868 0.276184
H68   H     H_    0.845864 0.698329 0.523595 0.238845
O33   O     O_3   0.595688 0.351538 0.937279 -0.624713
C91   C     C_3   0.610136 0.383611 0.843664 0.017416
H69   H     H_    0.629051 0.447229 0.815618 0.121885
H70   H     H_    0.548857 0.394982 0.826380 0.157005
C92   C     C_3   0.685743 0.314674 0.799837 -0.295677
H71   H     H_    0.746710 0.300832 0.818493 0.202405
H72   H     H_    0.666955 0.251592 0.823932 0.234822
C93   C     C_3   0.706562 0.347944 0.698427 -0.992026
H73   H     H_    0.647995 0.358455 0.677267 0.260538
H74   H     H_    0.763869 0.297935 0.668537 0.249215
H75   H     H_    0.724621 0.411508 0.673225 0.246398
O34   O     O_3   0.438736 0.686630 0.952985 -0.626630
C94   C     C_3   0.472809 0.712741 0.858885 0.029275
H76   H     H_    0.416168 0.753266 0.829791 0.147320
H77   H     H_    0.509352 0.656045 0.828221 0.114921
C95   C     C_3   0.533394 0.771372 0.832021 -0.304335
H78   H     H_    0.494754 0.832696 0.854195 0.224741
H79   H     H_    0.587812 0.735278 0.864356 0.231910
C96   C     C_3   0.574551 0.796709 0.731758 -0.979900
H80   H     H_    0.601996 0.737835 0.705979 0.255552
H81   H     H_    0.628938 0.825821 0.716109 0.276193
H82   H     H_    0.523638 0.845861 0.698321 0.238829
O35   O     O_3   0.937504 0.595713 0.351414 -0.624762
C97   C     C_3   0.843897 0.610072 0.383258 0.017801
H83   H     H_    0.815655 0.628428 0.447192 0.121613
H84   H     H_    0.826748 0.548929 0.393948 0.157417
C98   C     C_3   0.800148 0.686162 0.314539 -0.296257
H85   H     H_    0.818443 0.747088 0.301594 0.201837
H86   H     H_    0.824643 0.668083 0.251025 0.235339
C99   C     C_3   0.698760 0.706603 0.347398 -0.991928
H87   H     H_    0.677985 0.648248 0.356555 0.260402
H88   H     H_    0.668907 0.764511 0.297781 0.249108
H89   H     H_    0.673160 0.723546 0.411594 0.246698
O36   O     O_3   0.953045 0.438716 0.686652 -0.626556
C100  C     C_3   0.858951 0.472795 0.712851 0.029109
H90   H     H_    0.829863 0.416155 0.753471 0.147225
H91   H     H_    0.828222 0.509295 0.656199 0.114896
C101  C     C_3   0.832187 0.533437 0.771403 -0.304351
H92   H     H_    0.854380 0.494823 0.832720 0.224866
H93   H     H_    0.864557 0.587824 0.735243 0.231913
C102  C     C_3   0.731944 0.574673 0.796763 -0.979907
H94   H     H_    0.706129 0.602102 0.737915 0.255657
H95   H     H_    0.716385 0.629087 0.825808 0.276192
H96   H     H_    0.698471 0.523811 0.845977 0.238809
C103  C     C_2   0.723463 0.096243 0.724253 0.413682
H97   H     H_    0.709466 0.168069 0.704303 0.024137
O37   O     O_2   0.769958 0.050512 0.774816 -0.486849
C104  C     C_2   0.274012 0.906447 0.275480 0.435727
H98   H     H_    0.292791 0.834564 0.289538 0.016385
O38   O     O_2   0.223991 0.953078 0.228566 -0.479478
C105  C     C_2   0.096225 0.724270 0.723492 0.413642
H99   H     H_    0.168044 0.704294 0.709569 0.024436
O39   O     O_2   0.050461 0.774856 0.769956 -0.486845
C106  C     C_2   0.906446 0.275479 0.274013 0.435732
H100  H     H_    0.834565 0.289533 0.292790 0.016389
O40   O     O_2   0.953081 0.228567 0.223989 -0.479470
C107  C     C_2   0.724265 0.723492 0.096213 0.413636
H101  H     H_    0.704293 0.709554 0.168037 0.024459
O41   O     O_2   0.774846 0.769964 0.050454 -0.486845
C108  C     C_2   0.275469 0.274003 0.906462 0.435768
H102  H     H_    0.289525 0.292763 0.834580 0.016406
O42   O     O_2   0.228552 0.223986 0.953113 -0.479475

loop_
_geom_bond_atom_site_label_1
_geom_bond_atom_site_label_2
_ccdc_geom_bond_type
C25   C31   A    
C76   C77   S    
C39   C51   A    
C84   H52   S    
C26   C32   A    
C89   H64   S    
C6    C45   A    
C9    O9    A    
C74   C75   S    
Cu2   O2    S    
C92   H71   S    
C98   H85   S    
C8    O12   A    
C57   C66   A    
Cu5   O20   S    
Cu4   O4    S    
C97   H84   S    
C93   H74   S    
C98   C99   S    
C78   H38   S    
C74   H29   S    
C21   C36   A    
C104  H98   S    
C22   C35   A    
C84   H53   S    
C45   C57   A    
C59   C64   A    
C80   H43   S    
C29   O34   S    
C20   C26   A    
C60   C63   A    
C17   O1    A    
C23   C29   A    
C15   O3    A    
O30   C82   S    
C68   H15   S    
C17   O23   A    
C77   H37   S    
C41   H5    S    
C107  H101  S    
C88   H63   S    
Cu1   O24   S    
C13   C57   S    
C10   O10   A    
C43   H7    S    
C76   H34   S    
C55   C62   A    
C29   C33   A    
C3    C48   A    
C94   C95   S    
C4    C22   S    
C69   H17   S    
C74   H30   S    
C103  H97   S    
C16   C60   S    
C8    O14   A    
C87   H59   S    
C14   O6    A    
C88   C89   S    
C37   H1    S    
C58   C65   A    
C89   C90   S    
C67   H13   S    
C85   C86   S    
Cu5   O8    S    
C4    C40   A    
C104  O38   D    
C73   H27   S    
C70   C71   S    
C108  O42   D    
C95   C96   S    
C91   H69   S    
Cu2   O23   S    
C47   H11   S    
C13   O19   A    
C53   C65   A    
C8    C52   S    
C79   H42   S    
Cu3   O3    S    
C1    C37   A    
C68   C69   S    
C23   C34   A    
C18   O24   A    
C83   H51   S    
Cu5   O17   S    
C3    C39   A    
C80   H44   S    
C46   H10   S    
C102  H94   S    
C46   C58   A    
C92   H72   S    
O33   C91   S    
C101  H93   S    
C10   C54   S    
C19   C32   A    
C97   H83   S    
Cu4   O16   S    
C48   C60   A    
Cu2   O14   S    
C105  O39   D    
C61   C103  S    
C14   C58   S    
C84   H54   S    
Cu1   O1    S    
Cu2   O11   S    
C49   C61   A    
C32   O25   S    
C30   C34   A    
C2    C20   S    
Cu1   Cu2   S    
C81   H47   S    
C44   H8    S    
Cu4   O9    S    
C51   C63   A    
C79   C80   S    
C100  H91   S    
Cu3   O10   S    
C52   C64   A    
C96   H82   S    
O35   C97   S    
C107  O41   D    
Cu6   O7    S    
C9    O15   A    
C20   C31   A    
O34   C94   S    
C27   C35   A    
C106  H100  S    
C40   C52   A    
C1    C19   S    
C75   H33   S    
O36   C100  S    
C48   H12   S    
C65   C107  S    
C103  O37   D    
C101  C102  S    
C81   H46   S    
C96   H80   S    
C72   H25   S    
C12   O18   A    
C11   C49   S    
C77   C78   S    
C37   C49   A    
C44   C56   A    
C27   O36   S    
C14   O20   A    
O31   C85   S    
Cu5   O5    S    
C93   H75   S    
C2    C43   A    
Cu3   O22   S    
C90   H68   S    
C6    C24   S    
C108  H102  S    
C33   O30   S    
C91   C92   S    
C90   H67   S    
C94   H76   S    
C79   H41   S    
C11   O17   A    
C18   O2    A    
C93   H73   S    
C10   O16   A    
C18   C56   S    
C67   C68   S    
C41   C53   A    
C70   H20   S    
C75   H32   S    
C71   C72   S    
C1    C44   A    
C78   H40   S    
C73   H28   S    
C85   H55   S    
C66   C108  S    
C42   H6    S    
C28   O35   S    
C39   H3    S    
C102  H95   S    
Cu1   O12   S    
C50   C62   A    
C92   C93   S    
C64   C106  S    
C36   O27   S    
C24   C30   A    
C9    C53   S    
C101  H92   S    
C72   H24   S    
Cu3   O15   S    
C63   C105  S    
O26   C70   S    
C71   H23   S    
C77   H36   S    
C38   H2    S    
C34   O29   S    
C43   C55   A    
C76   H35   S    
C5    C41   A    
C83   H50   S    
C89   H65   S    
C7    O13   A    
C87   H60   S    
C13   O5    A    
C56   C61   A    
C15   C59   S    
C12   O8    A    
C45   H9    S    
C99   H87   S    
C95   H79   S    
C91   H70   S    
Cu4   O21   S    
C12   C50   S    
C105  H99   S    
C98   H86   S    
C62   C104  S    
C82   C83   S    
C38   C50   A    
Cu6   O19   S    
C16   O22   A    
C80   C81   S    
C99   H89   S    
C7    O11   A    
C5    C46   A    
C5    C23   S    
C99   H88   S    
C24   C33   A    
C69   H19   S    
C2    C38   A    
C86   C87   S    
C78   H39   S    
O29   C79   S    
C72   H26   S    
C7    C51   S    
Cu5   Cu6   S    
O25   C67   S    
C81   H45   S    
C15   O21   A    
C68   H16   S    
Cu6   O18   S    
C26   O31   S    
C73   C74   S    
C17   C55   S    
C85   H56   S    
C94   H77   S    
C69   H18   S    
C40   H4    S    
C100  C101  S    
C21   C27   A    
Cu3   Cu4   S    
C19   C25   A    
C67   H14   S    
C31   O26   S    
C70   H21   S    
C96   H81   S    
C3    C21   S    
C25   O32   S    
Cu1   O13   S    
C35   O28   S    
C47   C59   A    
C86   H57   S    
C11   O7    A    
C82   H48   S    
C88   H62   S    
C30   O33   S    
C95   H78   S    
C28   C36   A    
C82   H49   S    
C90   H66   S    
C6    C42   A    
C102  H96   S    
C100  H90   S    
C16   O4    A    
O28   C76   S    
C22   C28   A    
C83   C84   S    
Cu6   O6    S    
O32   C88   S    
C54   C66   A    
C106  O40   D    
C87   H61   S    
C97   C98   S    
C42   C54   A    
C75   H31   S    
O27   C73   S    
C71   H22   S    
C86   H58   S    
C4    C47   A    
