data_mof_unit_47530.cif
_audit_creation_date              2012-12-11T17:22:49-0500
_audit_creation_method            fapswitch 2.2
_symmetry_space_group_name_H-M    P1
_symmetry_Int_Tables_number       1
_space_group_crystal_system       triclinic
_cell_length_a                    8.34765
_cell_length_b                    16.640489
_cell_length_c                    27.163431
_cell_angle_alpha                 97.586721
_cell_angle_beta                  92.097092
_cell_angle_gamma                 86.448885
_cell_volume                      3731.49259003

loop_
_atom_site_label
_atom_site_type_symbol
_atom_type_description
_atom_site_fract_x
_atom_site_fract_y
_atom_site_fract_z
_atom_type_partial_charge
Ba1   Ba    Ba6+2 0.851940 0.461560 0.523510 1.792844
Ba2   Ba    Ba6+2 0.337880 0.538370 0.476480 1.779033
C1    C     C_3   0.558376 0.191668 0.672120 0.212880
C2    C     C_3   0.600625 0.261109 0.643872 0.724362
C3    C     C_3   0.579966 0.665863 0.630826 0.657230
C4    C     C_3   0.670081 0.689444 0.680590 0.177653
C5    C     C_3   0.002179 0.764844 0.347254 0.314948
C6    C     C_3   0.042521 0.775437 0.294036 0.673317
C7    C     C_3   0.534206 0.752277 0.358920 0.429219
C8    C     C_3   0.489925 0.832409 0.338817 0.239003
C9    C     C_R   0.000381 0.429219 0.176369 0.693598
C10   C     C_R   0.907355 0.568176 0.175760 0.591431
C11   C     C_2   0.766701 0.548873 0.272518 -0.055993
C12   C     C_3   0.097286 0.277860 0.656633 0.401663
C13   C     C_3   0.751600 0.576421 0.327256 -0.090872
C14   C     C_1   0.983994 0.482861 0.341350 0.041701
C15   C     C_2   0.022597 0.477853 0.292870 0.361542
C16   C     C_2   0.904506 0.509653 0.255207 0.202659
C17   C     C_R   0.000505 0.489345 0.098862 -0.087635
C18   C     C_R   0.039600 0.423459 0.125422 -0.133842
C19   C     C_R   0.110321 0.351866 0.099918 -0.012311
C20   C     C_R   0.929783 0.561362 0.124034 -0.017128
C21   C     C_2   0.850788 0.522834 0.358737 -0.240911
C22   C     C_2   0.348366 0.478375 0.642793 0.126840
C23   C     C_3   0.053711 0.250715 0.705833 0.709244
C24   C     C_R   0.168371 0.415577 0.972973 0.013305
C25   C     C_R   0.991901 0.537804 0.967341 0.020632
C26   C     C_R   0.098459 0.475337 0.944779 0.067628
C27   C     C_R   0.291763 0.362289 0.950875 -0.113813
C28   C     C_R   0.332809 0.362804 0.901365 -0.049048
C29   C     C_R   0.253307 0.417037 0.871761 -0.040259
C30   C     C_R   0.135284 0.472874 0.893594 -0.085690
C31   C     C_R   0.049301 0.524253 0.863807 -0.054004
C32   C     C_R   0.079816 0.517733 0.812565 0.651792
C33   C     C_R   0.291461 0.417489 0.821146 0.654902
C34   C     C_3   0.210275 0.289061 0.409676 0.657303
C35   C     C_2   0.430337 0.464240 0.729317 -0.201338
C36   C     C_3   0.487382 0.481822 0.679489 -0.004058
C37   C     C_1   0.212135 0.518587 0.657477 -0.007193
C38   C     C_2   0.176809 0.532108 0.706066 0.308944
C39   C     C_2   0.274674 0.484944 0.742661 0.215382
C40   C     C_R   0.116664 0.413641 0.022670 -0.058290
C41   C     C_R   0.031063 0.483331 0.047011 0.022566
C42   C     C_R   0.973668 0.546906 0.019709 0.035260
C43   C     C_R   0.144980 0.345320 0.049343 0.369671
C44   C     C_R   0.883437 0.625768 0.097070 -0.035165
C45   C     C_3   0.275016 0.205283 0.385814 -0.353200
C46   C     C_R   0.906779 0.588842 0.936563 -0.099475
C47   C     C_R   0.931792 0.580557 0.885618 -0.043856
C48   C     C_R   0.901914 0.618189 0.045888 -0.099944
C49   C     C_R   0.390659 0.265633 0.519524 -0.396210
C50   C     C_R   0.529366 0.240673 0.494052 0.048490
C51   C     C_R   0.575894 0.157457 0.484331 0.286459
C52   C     C_R   0.484903 0.099385 0.503594 0.091657
C53   C     C_R   0.339453 0.126453 0.528201 0.273336
C54   C     C_R   0.293555 0.209773 0.535382 0.001635
C55   C     C_R   0.620162 0.856217 0.511870 0.240969
C56   C     C_3   0.064442 0.715006 0.585631 0.614295
C57   C     C_R   0.660550 0.771742 0.503473 -0.027379
C58   C     C_R   0.716068 0.910609 0.491812 0.285104
C59   C     C_R   0.793051 0.742908 0.474924 -0.296917
C60   C     C_R   0.899785 0.796191 0.460378 -0.118344
C61   C     C_R   0.859596 0.881214 0.467926 0.244269
C62   C     C_3   0.113033 0.803184 0.599737 0.198918
C63   C     C_3   0.651195 0.344393 0.369375 0.638528
C64   C     C_3   0.567535 0.329380 0.317769 0.688391
H1    H     H_    0.175445 0.169628 0.367918 0.122358
H2    H     H_    0.140507 0.685801 0.555482 0.106827
H3    H     H_    0.611223 0.406240 0.386863 -0.010063
H4    H     H_    0.669745 0.156782 0.682767 0.047387
H5    H     H_    0.487537 0.285977 0.626969 -0.140809
H6    H     H_    0.483724 0.149200 0.647481 0.072537
H7    H     H_    0.796871 0.700490 0.673809 0.015515
H8    H     H_    0.025588 0.334851 0.652075 -0.021094
H9    H     H_    0.829793 0.682304 0.115404 0.142805
H10   H     H_    0.815296 0.633748 0.950775 0.079268
H11   H     H_    0.861812 0.620485 0.863533 0.132419
N1    N     N_R   0.938689 0.501970 0.201799 -0.421766
N2    N     N_R   0.215514 0.473717 0.792532 -0.410054
N3    N     N_2   0.529270 0.014376 0.496287 -0.197220
N4    N     N_2   0.676878 0.996274 0.498315 -0.129654
O1    O     O_2   0.915540 0.542930 0.617950 -0.501038
O2    O     O_3   0.613098 0.283869 0.397585 -0.702301
O3    O     O_3   0.061016 0.216536 0.618004 -0.557047
O4    O     O_2   0.274150 0.457040 0.382020 -0.501130
O5    O     O_3   0.042160 0.457070 0.442220 -0.452696
O6    O     O_3   0.525310 0.603770 0.411640 -0.496184
O7    O     O_3   0.125862 0.327379 0.373116 -0.619211
O8    O     O_3   0.637620 0.597020 0.524620 -0.452902
O9    O     O_3   0.118810 0.645070 0.435950 -0.473440
O10   O     O_2   0.234962 0.787567 0.469712 -0.486327
O11   O     O_3   0.142041 0.770802 0.377430 -0.611533
O12   O     O_3   0.147530 0.542870 0.557780 -0.451975
O13   O     O_3   0.552080 0.402920 0.475380 -0.496262
O14   O     O_2   0.387280 0.697260 0.523450 -0.453451
O15   O     O_3   0.568925 0.732005 0.603286 -0.606896
O16   O     O_2   0.425605 0.532111 0.323855 -0.407387
O17   O     O_3   0.453913 0.688722 0.330879 -0.540804
O18   O     O_2   0.018417 0.368872 0.197603 -0.535821
O19   O     O_2   0.387776 0.365268 0.802365 -0.557009
O20   O     O_2   0.860540 0.633777 0.197643 -0.537317
O21   O     O_2   0.980570 0.548964 0.785939 -0.561807
O22   O     O_3   0.664390 0.396160 0.588360 -0.395758
O23   O     O_2   0.820625 0.449963 0.673127 -0.504708
O24   O     O_3   0.076161 0.673221 0.627164 -0.637225
O25   O     O_3   0.673487 0.320365 0.677554 -0.625063
O26   O     O_2   0.802410 0.302720 0.476520 -0.379535
O27   O     O_3   0.070880 0.354870 0.564040 -0.522406
O28   O     O_2   0.963062 0.210947 0.526576 -0.344025
P1    P     P_3+3 0.086060 0.566890 0.610430 1.071381
P2    P     P_3+3 0.625290 0.314770 0.461990 1.072928
P3    P     P_3+3 0.097965 0.248618 0.560901 1.128957
P4    P     P_3+3 0.103630 0.433040 0.389570 1.073702
P5    P     P_3+3 0.096365 0.750706 0.436682 0.961963
P6    P     P_3+3 0.660563 0.413571 0.654018 1.041742
P7    P     P_3+3 0.569156 0.699460 0.538984 1.063046
P8    P     P_3+3 0.539281 0.597135 0.347519 1.044857
O29   O     O_3   0.709255 0.231425 0.606680 -0.701853
H12   H     H_    0.655246 0.189244 0.583989 0.251063
H13   H     H_    0.360988 0.211654 0.356871 0.087011
H14   H     H_    0.335317 0.170920 0.414119 0.056714
O30   O     O_3   0.907140 0.715688 0.568160 -0.828423
H15   H     H_    0.843992 0.748234 0.594666 0.262254
H16   H     H_    0.024520 0.838435 0.625218 0.025264
H17   H     H_    0.111506 0.833235 0.565548 0.072222
O31   O     O_3   0.267628 0.805447 0.621364 -0.686791
H18   H     H_    0.255336 0.814590 0.657922 0.333709
O32   O     O_3   0.816305 0.340385 0.363557 -0.733718
H19   H     H_    0.850526 0.282546 0.353198 0.338435
O33   O     O_3   0.622762 0.254594 0.291856 -0.689277
H20   H     H_    0.572915 0.211198 0.306630 0.291382
O34   O     O_3   0.600923 0.391396 0.290191 -0.713689
H21   H     H_    0.532059 0.384163 0.259533 0.335811
H22   H     H_    0.435606 0.330058 0.322670 -0.079002
O35   O     O_3   0.425855 0.642430 0.638350 -0.751699
H23   H     H_    0.374380 0.683280 0.663639 0.347433
H24   H     H_    0.649074 0.612519 0.612040 0.030080
O36   O     O_3   0.595778 0.758427 0.707767 -0.689581
H25   H     H_    0.629847 0.806208 0.693324 0.335820
H26   H     H_    0.671785 0.638145 0.702992 0.073042
O37   O     O_3   0.470772 0.221994 0.714301 -0.643631
H27   H     H_    0.550159 0.237734 0.741425 0.343910
O38   O     O_3   0.081039 0.312440 0.745059 -0.719030
H28   H     H_    0.989850 0.353530 0.744185 0.279355
H29   H     H_    0.951205 0.704626 0.347074 -0.042701
H30   H     H_    0.911774 0.813972 0.360748 -0.079627
O39   O     O_3   0.149586 0.712217 0.273991 -0.659197
H31   H     H_    0.093016 0.661045 0.271611 0.327365
O40   O     O_3   0.901844 0.776955 0.264173 -0.661419
H32   H     H_    0.849191 0.832165 0.271601 0.312333
H33   H     H_    0.102201 0.833627 0.294567 0.017186
H34   H     H_    0.666625 0.741477 0.357213 -0.112684
H35   H     H_    0.498632 0.758637 0.398364 -0.028123
H36   H     H_    0.557582 0.881016 0.360805 0.021347
H37   H     H_    0.359957 0.849564 0.343228 0.061988
O41   O     O_3   0.531204 0.827395 0.288901 -0.688469
H38   H     H_    0.443343 0.800263 0.268847 0.356807
O42   O     O_3   0.171683 0.448323 0.276046 -0.674352
H39   H     H_    0.210974 0.404081 0.295053 0.321105
H40   H     H_    0.134734 0.298890 0.118898 0.157396
H41   H     H_    0.520780 0.443458 0.755006 0.152347
H42   H     H_    0.428133 0.320476 0.886386 0.129312
H43   H     H_    0.362672 0.321611 0.972011 0.137597
O43   O     O_3   0.190381 0.268724 0.026705 -0.715276
H44   H     H_    0.137085 0.261585 0.993327 0.308862
H45   H     H_    0.674856 0.570032 0.247169 0.132382
H46   H     H_    0.227006 0.289444 0.657543 -0.034821
O44   O     O_3   0.127574 0.610490 0.724921 -0.669884
H47   H     H_    0.024915 0.624251 0.707750 0.326850
H48   H     H_    0.864829 0.670568 0.027810 0.081779
H49   H     H_    0.823636 0.528309 0.397853 0.061405
O45   O     O_3   0.382723 0.460212 0.593461 -0.697472
H50   H     H_    0.295334 0.427977 0.578280 0.293278
O46   O     O_3   0.496996 0.888629 0.542370 -0.686283
H51   H     H_    0.422727 0.846416 0.546459 0.356290
O47   O     O_3   0.238562 0.073787 0.545051 -0.661612
H52   H     H_    0.280478 0.017023 0.536343 0.364239
O48   O     O_3   0.702231 0.134809 0.453117 -0.662607
H53   H     H_    0.679335 0.082606 0.432853 0.325392
O49   O     O_3   0.955819 0.937758 0.453083 -0.681611
H54   H     H_    0.046899 0.909987 0.434312 0.316074
H55   H     H_    0.349459 0.328420 0.522081 0.109434
H56   H     H_    0.924784 0.236329 0.703922 0.000529
H57   H     H_    0.824157 0.678269 0.469364 0.100748
O50   O     O_3   0.147860 0.180670 0.713729 -0.629727
H58   H     H_    0.106723 0.161893 0.743831 0.319654
H59   H     H_    0.312074 0.324468 0.425210 -0.014436
O51   O     O_3   0.107687 0.280329 0.447797 -0.716654
H60   H     H_    0.029030 0.240577 0.433609 0.326941

loop_
_geom_bond_atom_site_label_1
_geom_bond_atom_site_label_2
_ccdc_geom_bond_type
C25   C46   A    
C53   C54   A    
C7    H34   S    
C7    O17   S    
C27   H43   S    
O39   H31   S    
C1    O37   S    
C12   O3    S    
O24   P1    S    
C49   H55   S    
C14   P4    S    
C8    H36   S    
O48   H53   S    
O50   H58   S    
C5    C6    S    
C51   C52   A    
C34   O7    S    
O9    P5    S    
O3    P3    S    
C11   C16   D    
Ba2   O4    S    
O5    P4    S    
C3    C4    S    
C12   H8    S    
Ba2   O14   S    
C43   O43   S    
C60   P5    S    
C28   C29   A    
O46   H51   S    
Ba2   P4    S    
C45   H14   S    
C31   C47   A    
O38   H28   S    
C10   C20   A    
O13   P2    S    
C22   C37   D    
C34   C45   S    
C9    O18   D    
C49   C54   A    
O7    P4    S    
Ba2   O9    S    
C46   H10   S    
O29   H12   S    
C64   H22   S    
C32   N2    Am   
C25   C42   A    
C37   P1    S    
C17   C18   A    
O34   H21   S    
C10   N1    Am   
C22   C36   S    
O47   H52   S    
C17   C20   A    
O35   H23   S    
C7    C8    S    
Ba1   O22   S    
C19   C43   A    
O12   P1    S    
C5    H30   S    
C13   C21   S    
O8    P7    S    
C7    H35   S    
O32   H19   S    
O16   P8    D    
C2    O29   S    
C23   O38   S    
C35   C36   S    
C45   H1    S    
C44   H9    S    
C17   C41   A    
C15   C16   S    
C52   N3    S    
C56   C62   S    
C55   C57   A    
C9    C18   A    
C56   O30   S    
C57   C59   A    
O6    P8    S    
C49   C50   A    
C63   O32   S    
O44   H47   S    
Ba2   O13   S    
C6    H33   S    
C6    O40   S    
O28   P3    D    
C8    O41   S    
C37   C38   D    
C57   P7    S    
C55   C58   A    
C50   P2    S    
Ba1   O1    S    
C62   H16   S    
C2    O25   S    
C61   O49   S    
O27   P3    S    
O51   H60   S    
C34   O51   S    
C40   C43   A    
O41   H38   S    
C4    O36   S    
Ba2   O8    S    
O22   P6    S    
C41   C42   A    
C39   N2    S    
C27   C28   A    
O43   H44   S    
C9    N1    Am   
Ba1   P1    S    
O23   P6    D    
C58   N4    S    
O33   H20   S    
C29   C30   A    
C26   C30   A    
O14   P7    D    
C16   N1    S    
C1    H4    S    
C60   C61   A    
C31   C32   A    
Ba2   O6    S    
C48   H48   S    
C32   O21   D    
C50   C51   A    
C15   O42   S    
C23   O50   S    
Ba1   O26   S    
C56   H2    S    
C46   C47   A    
C20   C44   A    
C63   C64   S    
C14   C21   D    
C62   O31   S    
C11   C13   S    
C4    H26   S    
O42   H39   S    
C19   H40   S    
O2    P2    S    
C6    O39   S    
C40   C41   A    
C28   H42   S    
C1    C2    S    
C58   C61   A    
O1    P1    D    
C3    O15   S    
O45   H50   S    
C24   C40   A    
O17   P8    S    
C35   H41   S    
C42   C48   A    
Ba1   O5    S    
C3    O35   S    
C52   C53   A    
C38   C39   S    
C59   H57   S    
Ba1   O8    S    
O26   P2    D    
Ba2   O12   S    
N3    N4    D    
C23   H56   S    
C8    H37   S    
Ba1   O13   S    
C3    H24   S    
C44   C48   A    
C24   C26   A    
O10   P5    D    
O25   P6    S    
C56   O24   S    
C30   C31   A    
C34   H59   S    
O4    P4    D    
C1    H6    S    
O30   H15   S    
C10   O20   D    
O37   H27   S    
Ba1   P2    S    
C36   P6    S    
C11   H45   S    
C14   C15   D    
O31   H18   S    
C63   H3    S    
C5    O11   S    
Ba1   Ba2   S    
C33   N2    Am   
C47   H11   S    
Ba2   O5    S    
C29   C33   A    
C4    H7    S    
C12   C23   S    
C35   C39   D    
C59   C60   A    
C22   O45   S    
C53   O47   S    
C38   O44   S    
C63   O2    S    
O36   H25   S    
Ba1   O27   S    
C55   O46   S    
C64   O34   S    
C13   P8    S    
C21   H49   S    
C18   C19   A    
C24   C27   A    
Ba1   O12   S    
C62   H17   S    
C25   C26   A    
C45   H13   S    
O15   P7    S    
C64   O33   S    
C12   H46   S    
O40   H32   S    
O11   P5    S    
C54   P3    S    
C2    H5    S    
O49   H54   S    
C33   O19   D    
C5    H29   S    
C51   O48   S    
