data_mof_unit_53428.cif
_audit_creation_date              2012-12-10T19:10:25-0500
_audit_creation_method            fapswitch 2.2
_symmetry_space_group_name_H-M    P1
_symmetry_Int_Tables_number       1
_space_group_crystal_system       triclinic
_cell_length_a                    10.851126
_cell_length_b                    10.159017
_cell_length_c                    15.669584
_cell_angle_alpha                 90.90018
_cell_angle_beta                  90.916984
_cell_angle_gamma                 89.469121
_cell_volume                      1726.85980884

loop_
_atom_site_label
_atom_site_type_symbol
_atom_type_description
_atom_site_fract_x
_atom_site_fract_y
_atom_site_fract_z
_atom_type_partial_charge
C1    C     C_R   0.259412 0.501155 0.497745 0.818913
C2    C     C_3   0.648562 0.490465 0.954079 0.436998
C3    C     C_3   0.641374 0.473728 0.052940 -0.406738
C4    C     C_1   0.506756 0.502627 0.825163 -0.087463
C5    C     C_1   0.505636 0.496688 0.175055 -0.057883
C6    C     C_1   0.503248 0.497201 0.250493 -0.139059
C7    C     C_3   0.071752 0.625182 0.544111 -0.381309
C8    C     C_3   0.074429 0.384304 0.540494 -0.404168
C9    C     C_3   0.931803 0.633950 0.530905 -0.389242
C10   C     C_3   0.935570 0.396778 0.549511 -0.449389
C11   C     C_3   0.074049 0.503281 0.394021 -0.083004
C12   C     C_3   0.123037 0.504589 0.491833 0.015490
C13   C     C_3   0.880118 0.504109 0.491370 0.103463
C14   C     C_R   0.500475 0.499111 0.339426 0.892668
C15   C     C_3   0.924974 0.488418 0.394616 0.266597
C16   C     C_3   0.401721 0.077491 0.439494 0.108946
C17   C     C_3   0.414262 0.919999 0.430142 0.125500
C18   C     C_3   0.624684 0.076895 0.477437 0.182398
C19   C     C_3   0.629143 0.915780 0.489559 0.191269
C20   C     C_3   0.464332 0.080982 0.582623 -0.408188
C21   C     C_3   0.446367 0.924814 0.578121 -0.416236
C22   C     C_R   0.741856 0.500478 0.498344 0.846794
C23   C     C_R   0.500583 0.500871 0.660581 0.917960
C24   C     C_3   0.459566 0.632730 0.051679 -0.411864
C25   C     C_3   0.425253 0.385265 0.047433 -0.417592
C26   C     C_3   0.428856 0.382565 0.948387 -0.038643
C27   C     C_3   0.441679 0.627511 0.953651 -0.037653
C28   C     C_1   0.503562 0.502643 0.749629 -0.187248
C29   C     C_3   0.507740 0.497390 0.083463 0.201667
C30   C     C_3   0.510248 0.500744 0.917206 0.296511
H1    H     H_    0.340993 0.614076 0.941627 0.154908
H2    H     H_    0.332667 0.401587 0.925241 0.148974
H3    H     H_    0.911879 0.717273 0.489249 0.239437
H4    H     H_    0.897823 0.304497 0.532780 0.257753
H5    H     H_    0.311151 0.091980 0.472026 0.147839
H6    H     H_    0.320261 0.884929 0.445176 0.169696
H7    H     H_    0.529791 0.103482 0.634941 0.229164
H8    H     H_    0.478170 0.880479 0.638298 0.232328
H9    H     H_    0.377623 0.128554 0.605092 0.179996
H10   H     H_    0.345976 0.903979 0.581944 0.155655
H11   H     H_    0.369997 0.658231 0.081841 0.187334
H12   H     H_    0.328578 0.401544 0.068316 0.179947
H13   H     H_    0.455973 0.289643 0.074655 0.185633
H14   H     H_    0.525880 0.710942 0.071179 0.187877
H15   H     H_    0.705349 0.541825 0.087679 0.168270
H16   H     H_    0.671408 0.373099 0.072008 0.168613
H17   H     H_    0.114387 0.721214 0.531801 0.251593
H18   H     H_    0.098682 0.288771 0.509960 0.251817
H19   H     H_    0.092215 0.611202 0.613343 0.158509
H20   H     H_    0.116957 0.380203 0.605655 0.166546
H21   H     H_    0.888925 0.653442 0.593861 0.199732
H22   H     H_    0.911946 0.416546 0.617517 0.172020
N1    N     N_3   0.499750 0.138610 0.498180 -0.082344
N2    N     N_3   0.499750 0.861390 0.498180 -0.082770
O1    O     O_R   0.314910 0.616040 0.499980 -0.598714
O2    O     O_R   0.314910 0.383960 0.499980 -0.637576
O3    O     O_R   0.500120 0.616090 0.377110 -0.636174
O4    O     O_R   0.500120 0.383910 0.377110 -0.646639
O5    O     O_R   0.685320 0.616040 0.499960 -0.613039
O6    O     O_R   0.685320 0.383960 0.499960 -0.605908
O7    O     O_R   0.500110 0.615990 0.622830 -0.568416
O8    O     O_R   0.500110 0.384010 0.622830 -0.583415
Zn1   Zn    Zn3+2 0.500150 0.654960 0.499960 0.958085
Zn2   Zn    Zn3+2 0.500150 0.345040 0.499960 0.939938
C31   C     C_2   0.110254 0.630811 0.346956 0.899066
O9    O     O_2   0.103005 0.634150 0.268877 -0.601464
O10   O     O_R   0.141758 0.746409 0.390570 -0.846470
H23   H     H_    0.149184 0.824407 0.351430 0.339631
C32   C     C_2   0.137042 0.388834 0.344158 0.831484
O11   O     O_2   0.117892 0.274566 0.362561 -0.673790
O12   O     O_R   0.216700 0.413406 0.276702 -0.793361
H24   H     H_    0.244514 0.330528 0.245429 0.334379
C33   C     C_3   0.858654 0.590730 0.335596 -0.911600
H25   H     H_    0.757258 0.581466 0.337561 0.220112
H26   H     H_    0.883659 0.693250 0.350959 0.241606
H27   H     H_    0.882412 0.572524 0.267682 0.272366
C34   C     C_3   0.878902 0.355593 0.355564 -0.805313
H28   H     H_    0.903540 0.269698 0.394669 0.291959
H29   H     H_    0.778063 0.358751 0.347167 0.214317
H30   H     H_    0.914300 0.338963 0.290071 0.247281
C35   C     C_3   0.366970 0.151619 0.357802 -0.801158
H31   H     H_    0.284284 0.106113 0.327383 0.231027
H32   H     H_    0.336816 0.250394 0.375559 0.313905
H33   H     H_    0.436834 0.158948 0.308135 0.228958
C36   C     C_3   0.423053 0.864434 0.337025 -0.808876
H34   H     H_    0.364862 0.775972 0.329033 0.273567
H35   H     H_    0.383744 0.930252 0.288341 0.205460
H36   H     H_    0.514613 0.839183 0.314318 0.244766
C37   C     C_3   0.657519 0.120060 0.385466 -0.888698
H37   H     H_    0.601954 0.071066 0.335501 0.234629
H38   H     H_    0.642749 0.224619 0.378976 0.278765
H39   H     H_    0.754914 0.100256 0.368311 0.251030
C38   C     C_3   0.699966 0.852128 0.412618 -0.844925
H40   H     H_    0.670124 0.753928 0.396771 0.282755
H41   H     H_    0.691390 0.893569 0.348994 0.200311
H42   H     H_    0.800399 0.859058 0.423275 0.250115
C39   C     C_2   0.729328 0.132069 0.532465 0.935120
O13   O     O_2   0.834775 0.107661 0.510113 -0.634131
O14   O     O_R   0.710223 0.198630 0.610070 -0.809778
H43   H     H_    0.789007 0.213396 0.644303 0.322955
C40   C     C_2   0.708332 0.869353 0.569739 0.890918
O15   O     O_2   0.665586 0.797760 0.623206 -0.622654
O16   O     O_R   0.833578 0.898386 0.579205 -0.797079
H44   H     H_    0.869967 0.871919 0.636519 0.330618
C41   C     C_3   0.457134 0.243267 0.911970 -0.904307
H45   H     H_    0.370300 0.186307 0.906802 0.236239
H46   H     H_    0.496464 0.246533 0.847154 0.263022
H47   H     H_    0.519160 0.185615 0.954329 0.242357
C42   C     C_3   0.464473 0.761882 0.911704 -0.909007
H48   H     H_    0.392944 0.833304 0.933438 0.238652
H49   H     H_    0.553805 0.806472 0.928826 0.254765
H50   H     H_    0.455879 0.754480 0.841169 0.257556
C43   C     C_3   0.724455 0.615711 0.935411 -0.872703
H51   H     H_    0.703381 0.697123 0.980686 0.223335
H52   H     H_    0.824976 0.598059 0.944632 0.232772
H53   H     H_    0.709420 0.648416 0.868736 0.255205
C44   C     C_3   0.723239 0.373576 0.914528 -0.886795
H54   H     H_    0.720379 0.375410 0.843708 0.249066
H55   H     H_    0.821616 0.377665 0.935166 0.230895
H56   H     H_    0.692441 0.276869 0.935837 0.234985

loop_
_geom_bond_atom_site_label_1
_geom_bond_atom_site_label_2
_ccdc_geom_bond_type
C26   H2    S    
C38   H40   S    
C33   H25   S    
C9    H21   S    
C24   C27   S    
C10   H22   S    
C25   H13   S    
C35   H31   S    
C15   C34   S    
C34   H28   S    
C41   H46   S    
C40   O15   D    
C17   C36   S    
C1    O2    A    
C44   H55   S    
C16   H5    S    
C22   O6    A    
C5    C6    T    
C2    C43   S    
C34   H30   S    
N2    Zn1   S    
C25   C29   S    
C3    C29   S    
C18   C19   S    
O7    Zn1   S    
C9    C13   S    
C24   C29   S    
O8    Zn2   S    
C18   N1    S    
C39   O14   S    
C16   N1    S    
C11   C15   S    
C23   O8    A    
C21   H8    S    
C16   C17   S    
C31   O10   S    
O1    Zn1   S    
O2    Zn2   S    
O3    Zn1   S    
C17   H6    S    
C37   H38   S    
C19   C38   S    
C43   H53   S    
C34   H29   S    
C38   H41   S    
C27   C30   S    
C9    H3    S    
C24   H11   S    
C33   H26   S    
C1    C12   S    
C26   C41   S    
C35   H32   S    
C2    C44   S    
C39   O13   D    
C5    C29   S    
C36   H35   S    
O4    Zn2   S    
C7    C12   S    
C14   O4    A    
C41   H47   S    
C32   O12   S    
C27   H1    S    
O10   H23   S    
C7    H19   S    
C44   H56   S    
C22   O5    A    
C20   H9    S    
C25   C26   S    
C36   H34   S    
C3    H15   S    
C7    H17   S    
C8    H18   S    
C6    C14   S    
O14   H43   S    
C8    C12   S    
C10   H4    S    
C23   C28   S    
C37   H39   S    
C19   N2    S    
C8    C10   S    
C18   C39   S    
C26   C30   S    
C38   H42   S    
C13   C15   S    
C24   H14   S    
C33   H27   S    
C42   H50   S    
C8    H20   S    
C35   H33   S    
C43   H51   S    
C36   H36   S    
C7    C9    S    
C14   O3    A    
C15   C33   S    
C18   C37   S    
C20   N1    S    
C10   C13   S    
C25   H12   S    
C11   C12   S    
C11   C32   S    
C41   H45   S    
C3    H16   S    
O5    Zn1   S    
O6    Zn2   S    
C2    C30   S    
C42   H49   S    
C2    C3    S    
C1    O1    A    
O12   H24   S    
C42   H48   S    
C20   H7    S    
C19   C40   S    
C21   N2    S    
C21   H10   S    
C16   C35   S    
N1    Zn2   S    
C13   C22   S    
C32   O11   D    
C23   O7    A    
C20   C21   S    
C27   C42   S    
C40   O16   S    
C31   O9    D    
C4    C28   T    
O16   H44   S    
C37   H37   S    
C44   H54   S    
C17   N2    S    
C4    C30   S    
C11   C31   S    
C43   H52   S    
