data_mof_unit_61726.cif
_audit_creation_date              2013-03-05T15:47:10-0500
_audit_creation_method            fapswitch 2.2
_symmetry_space_group_name_H-M    P1
_symmetry_Int_Tables_number       1
_space_group_crystal_system       triclinic
_cell_length_a                    18.43058
_cell_length_b                    18.695284
_cell_length_c                    18.877259
_cell_angle_alpha                 108.779188
_cell_angle_beta                  108.393946
_cell_angle_gamma                 108.296085
_cell_volume                      5181.00695797

loop_
_atom_site_label
_atom_site_type_symbol
_atom_site_description
_atom_site_fract_x
_atom_site_fract_y
_atom_site_fract_z
_atom_type_partial_charge
O1    O     O_R   0.410140 0.357660 0.448100 -0.581840
O2    O     O_R   0.409530 0.462000 0.551910 -0.536984
C1    C     C_R   0.382642 0.382541 0.502187 0.740037
O3    O     O_R   0.590960 0.447830 0.538760 -0.546526
O4    O     O_R   0.590350 0.552170 0.642570 -0.535476
C2    C     C_R   0.622509 0.502107 0.617770 0.872498
Cu1   Cu    Cu3+1 0.500360 0.438220 0.438540 1.115191
Cu2   Cu    Cu3+1 0.499640 0.561780 0.561460 1.190107
O5    O     O_R   0.590470 0.538000 0.448090 -0.556746
O6    O     O_R   0.589860 0.642340 0.551900 -0.549817
O7    O     O_R   0.409650 0.447830 0.357430 -0.561182
O8    O     O_R   0.409040 0.552170 0.461240 -0.533566
C3    C     C_R   0.609872 0.618227 0.491139 0.800596
C4    C     C_R   0.377663 0.498625 0.383349 0.739870
C5    C     C_3   0.650533 0.463043 0.730981 -0.501889
H1    H     H_    0.594029 0.399885 0.685572 0.173201
H2    H     H_    0.618809 0.499593 0.753947 0.273183
C6    C     C_3   0.715935 0.457032 0.801795 0.414571
C7    C     C_3   0.731604 0.443381 0.644792 0.333429
C8    C     C_3   0.767399 0.596199 0.750874 0.035044
C9    C     C_3   0.692787 0.501651 0.684487 -0.271585
H3    H     H_    0.804556 0.614682 0.718363 0.173155
C10   C     C_3   0.811448 0.502722 0.809746 -0.337653
C11   C     C_3   0.809991 0.453097 0.721091 0.072449
C12   C     C_3   0.833692 0.600870 0.831331 0.256262
C13   C     C_R   0.390451 0.380054 0.657113 -0.238532
C14   C     C_R   0.390125 0.386595 0.732976 0.330734
C15   C     C_R   0.316352 0.331067 0.730214 0.146858
C16   C     C_R   0.246691 0.267724 0.652525 -0.236295
C17   C     C_R   0.248876 0.256465 0.575394 0.039945
C18   C     C_R   0.318168 0.318372 0.577881 0.037212
C19   C     C_R   0.183309 0.185593 0.496374 -0.094616
C20   C     C_R   0.178935 0.184698 0.418603 -0.075466
C21   C     C_R   0.238893 0.257296 0.423547 -0.001289
C22   C     C_R   0.312571 0.318355 0.501556 -0.016444
C23   C     C_R   0.117406 0.115430 0.335898 0.231141
C24   C     C_R   0.106206 0.126503 0.263099 0.192121
C25   C     C_R   0.159518 0.203758 0.270524 0.220891
C26   C     C_R   0.225287 0.267538 0.350128 -0.263010
H4    H     H_    0.448410 0.423615 0.661492 0.166834
H5    H     H_    0.190124 0.229235 0.653979 0.171955
H6    H     H_    0.266543 0.325673 0.353773 0.187990
C27   C     C_R   0.203434 0.446459 0.368915 0.229682
C28   C     C_R   0.118071 0.389574 0.339813 -0.233109
C29   C     C_R   0.053159 0.386229 0.275251 0.149808
C30   C     C_R   0.075273 0.440388 0.240002 0.309378
C31   C     C_R   0.160305 0.473199 0.247227 -0.044229
C32   C     C_R   0.226205 0.475794 0.314099 -0.017498
C33   C     C_R   0.181623 0.501155 0.190225 -0.096421
C34   C     C_R   0.268002 0.530682 0.202354 -0.017709
C35   C     C_R   0.333610 0.542728 0.274486 0.040830
C36   C     C_R   0.311464 0.506290 0.323671 -0.024530
C37   C     C_R   0.291107 0.542066 0.140865 0.084251
C38   C     C_R   0.375584 0.598914 0.164957 0.288826
C39   C     C_R   0.440654 0.626404 0.244902 0.143695
C40   C     C_R   0.420569 0.591215 0.295279 -0.219428
H7    H     H_    0.100908 0.359800 0.376702 0.204388
H8    H     H_    0.473115 0.605160 0.352113 0.149320
H9    H     H_    0.736617 0.504038 0.315366 0.214116
C41   C     C_R   0.633255 0.801078 0.558981 0.147355
C42   C     C_R   0.668928 0.887453 0.617121 0.217778
C43   C     C_R   0.733788 0.947804 0.614998 -0.202806
C44   C     C_R   0.762728 0.921478 0.556791 0.066606
C45   C     C_R   0.752149 0.837101 0.524907 0.047018
C46   C     C_R   0.682060 0.772945 0.520826 0.007288
C47   C     C_R   0.814190 0.817550 0.505513 -0.024207
C48   C     C_R   0.802045 0.732353 0.476423 -0.038538
C49   C     C_R   0.717593 0.667496 0.441811 0.006883
C50   C     C_R   0.664753 0.685619 0.478429 -0.143927
C51   C     C_R   0.867341 0.707758 0.472729 0.231544
C52   C     C_R   0.843135 0.623109 0.417025 0.276338
C53   C     C_R   0.755873 0.566329 0.364063 -0.203958
C54   C     C_R   0.692854 0.587183 0.375713 0.187789
H10   H     H_    0.749044 0.014202 0.646441 0.167496
O9    O     O_R   0.945600 0.357690 0.907660 -0.572393
O10   O     O_R   0.049980 0.462000 0.907580 -0.566844
C55   C     C_R   0.004664 0.381906 0.884220 0.799862
O11   O     O_R   0.854480 0.447890 0.906670 -0.529667
O12   O     O_R   0.958860 0.552200 0.906600 -0.560391
C56   C     C_R   0.878362 0.500684 0.878072 0.915189
Cu3   Cu    Cu3+1 0.935530 0.438290 0.997340 1.171404
Cu4   Cu    Cu3+1 0.059130 0.561800 0.997250 1.134074
O13   O     O_R   0.944670 0.538090 0.087010 -0.525645
O14   O     O_R   0.049050 0.642400 0.086940 -0.576506
O15   O     O_R   0.035800 0.447890 0.088000 -0.549669
O16   O     O_R   0.140170 0.552200 0.087920 -0.584208
C57   C     C_R   0.995912 0.616991 0.116283 0.843807
C58   C     C_R   0.116176 0.501011 0.119095 0.785891
O17   O     O_R   0.948030 0.909890 0.357850 -0.511444
O18   O     O_R   0.052970 0.909860 0.462770 -0.577948
C59   C     C_R   0.999638 0.879370 0.382780 0.855254
O19   O     O_R   0.037700 0.090200 0.447550 -0.562195
O20   O     O_R   0.142640 0.090170 0.552470 -0.585971
C60   C     C_R   0.118112 0.116952 0.497397 0.801439
Cu5   Cu    Cu3+1 0.937870 0.000030 0.437890 1.175650
Cu6   Cu    Cu3+1 0.062130 0.000000 0.562130 1.177878
O21   O     O_R   0.947030 0.090160 0.537260 -0.572542
O22   O     O_R   0.051970 0.090130 0.642170 -0.536773
O23   O     O_R   0.857360 0.909860 0.447560 -0.519626
O24   O     O_R   0.962300 0.909830 0.552480 -0.510952
C61   C     C_R   0.994051 0.114725 0.617035 0.737729
C62   C     C_R   0.881610 0.882088 0.501734 0.809817
C63   C     C_R   0.086473 0.409309 0.767503 0.110246
C64   C     C_R   0.079225 0.416439 0.693465 0.274977
C65   C     C_R   0.021411 0.346191 0.615262 -0.233984
C66   C     C_R   0.978756 0.266943 0.608695 0.134923
C67   C     C_R   0.997601 0.255914 0.682311 -0.022537
C68   C     C_R   0.035882 0.328844 0.761064 -0.044024
C69   C     C_R   0.986810 0.177322 0.682244 -0.082350
C70   C     C_R   0.981853 0.165233 0.751822 -0.071258
C71   C     C_R   0.985418 0.231685 0.818086 -0.022842
C72   C     C_R   0.015650 0.315915 0.824996 -0.067076
C73   C     C_R   0.967549 0.086882 0.755741 0.150577
C74   C     C_R   0.919554 0.062616 0.796602 0.178410
C75   C     C_R   0.909317 0.124669 0.851579 0.066176
C76   C     C_R   0.959226 0.210002 0.875034 0.108793
H11   H     H_    0.007472 0.354014 0.558816 0.219349
H12   H     H_    0.703920 0.568537 0.041447 0.241666
C77   C     C_R   0.152562 0.735093 0.270291 -0.159295
C78   C     C_R   0.231740 0.797953 0.338208 0.179626
C79   C     C_R   0.235213 0.866776 0.399547 0.171337
C80   C     C_R   0.159070 0.870578 0.392916 -0.126646
C81   C     C_R   0.076707 0.806027 0.324948 0.078827
C82   C     C_R   0.074893 0.739522 0.260692 0.057650
C83   C     C_R   0.997654 0.808711 0.316982 -0.072620
C84   C     C_R   0.917235 0.745046 0.242998 -0.070695
C85   C     C_R   0.917132 0.675426 0.184121 -0.030178
C86   C     C_R   0.996000 0.677634 0.188677 -0.055207
C87   C     C_R   0.835621 0.747074 0.221769 0.358825
C88   C     C_R   0.767806 0.694112 0.139909 -0.143121
C89   C     C_R   0.766088 0.620474 0.090722 -0.076315
C90   C     C_R   0.836150 0.605688 0.120199 0.239083
H13   H     H_    0.153101 0.682014 0.225821 0.165643
H14   H     H_    0.168086 0.927529 0.440726 0.198030
H15   H     H_    0.707733 0.697960 0.122887 0.224129
I1    I     I_    0.961511 0.693202 0.860017 0.042153
N1    N     N_R   0.760257 0.466453 0.586444 0.151770
O25   O     O_R   0.777150 0.414765 0.536840 -0.249330
O26   O     O_R   0.761621 0.532661 0.576739 -0.363223
I2    I     I_    0.931784 0.506472 0.717773 -0.073977
N2    N     N_R   0.152513 0.215952 0.197362 0.168452
O27   O     O_R   0.126533 0.152135 0.125152 -0.210875
O28   O     O_R   0.182381 0.292413 0.204942 -0.362514
N3    N     N_R   0.463494 0.452157 0.811730 0.147780
O29   O     O_R   0.494714 0.434938 0.872601 -0.264677
O30   O     O_R   0.504778 0.527245 0.819722 -0.260234
I3    I     I_    0.302978 0.340457 0.839920 -0.066814
N4    N     N_R   0.075600 0.030707 0.323409 0.131125
O31   O     O_R   0.123106 0.996530 0.348554 -0.412026
O32   O     O_R   0.994114 0.982047 0.270229 -0.274045
N5    N     N_R   0.041639 0.057936 0.181200 0.203423
O33   O     O_R   0.976605 0.065212 0.137149 -0.238123
O34   O     O_R   0.050442 0.990357 0.148518 -0.207818
I4    I     I_    0.568869 0.718475 0.290546 -0.093307
N6    N     N_R   0.257165 0.490651 0.458647 0.142140
O35   O     O_R   0.247223 0.450799 0.502786 -0.331250
O36   O     O_R   0.290578 0.573378 0.496972 -0.246993
I5    I     I_    0.925654 0.317064 0.253950 -0.033994
N7    N     N_R   0.021582 0.479381 0.220594 0.143338
O37   O     O_R   0.939457 0.432749 0.169908 -0.281552
O38   O     O_R   0.053184 0.561673 0.260822 -0.365215
I6    I     I_    0.234842 0.430134 0.026271 -0.143122
N8    N     N_R   0.395334 0.622870 0.105973 0.159382
O39   O     O_R   0.454243 0.610879 0.087472 -0.251839
O40   O     O_R   0.353067 0.655588 0.069370 -0.275550
N9    N     N_R   0.713288 0.496288 0.882136 0.158167
O41   O     O_R   0.735289 0.471101 0.938453 -0.326043
O42   O     O_R   0.678179 0.546690 0.894203 -0.266529
I7    I     I_    0.496543 0.738130 0.503257 -0.172154
I8    I     I_    0.615166 0.934108 0.694721 -0.091683
I9    I     I_    0.735855 0.974314 0.474012 -0.133675
N10   N     N_R   0.956394 0.764061 0.531745 0.155122
O43   O     O_R   0.014871 0.774934 0.506070 -0.285936
O44   O     O_R   0.980083 0.797119 0.612338 -0.219936
N11   N     N_R   0.906107 0.594035 0.413610 0.169392
O45   O     O_R   0.893067 0.538748 0.341994 -0.279256
O46   O     O_R   0.968791 0.611345 0.483021 -0.204948
I10   I     I_    0.565404 0.502803 0.274787 -0.180078
I11   I     I_    0.835574 0.092410 0.914208 -0.003559
I12   I     I_    0.201192 0.509211 0.878083 -0.007284
N12   N     N_R   0.127987 0.495155 0.696021 0.164845
O47   O     O_R   0.154813 0.493828 0.639781 -0.257629
O48   O     O_R   0.134628 0.566518 0.745631 -0.245491
I13   I     I_    0.661762 0.321126 0.769370 -0.120569
I14   I     I_    0.859820 0.189026 0.495738 -0.117254
N13   N     N_R   0.027523 0.053681 0.752505 0.170977
O49   O     O_R   0.002022 0.972086 0.718963 -0.234237
O50   O     O_R   0.109827 0.105368 0.797924 -0.265422
N14   N     N_R   0.898756 0.982219 0.797507 0.188618
O51   O     O_R   0.931132 0.980146 0.868417 -0.191529
O52   O     O_R   0.854132 0.911166 0.727302 -0.300620
I15   I     I_    0.037697 0.280234 0.007412 -0.116738
I16   I     I_    0.342943 0.785442 0.341258 -0.191523
I17   I     I_    0.353325 0.968129 0.503638 -0.126252
I18   I     I_    0.628458 0.309350 0.561138 -0.124517
N15   N     N_R   0.809241 0.778185 0.283271 0.124883
O53   O     O_R   0.801716 0.739394 0.328339 -0.429753
O54   O     O_R   0.764802 0.819421 0.272878 -0.275476
I19   I     I_    0.795058 0.488098 0.124445 -0.009928
I20   I     I_    0.819237 0.335110 0.702456 -0.214052
N16   N     N_R   0.736060 0.659714 0.772086 0.192370
O55   O     O_R   0.759143 0.723139 0.755361 -0.246770
O56   O     O_R   0.683597 0.652781 0.805235 -0.219376
N17   N     N_R   0.832406 0.647119 0.911219 0.186538
O57   O     O_R   0.866382 0.635142 0.975357 -0.373499
O58   O     O_R   0.834629 0.721518 0.930750 -0.188005

loop_
_geom_bond_atom_site_label_1
_geom_bond_atom_site_label_2
_geom_bond_distance
_ccdc_geom_bond_type
C39   I4    2.120318 S    
C19   C60   1.467473 S    
C39   C40   1.395071 A    
C7    I18   2.225623 S    
C84   C85   1.412474 A    
C5    C6    1.554807 S    
N16   O56   1.303340 A    
N16   O55   1.302197 A    
C47   C62   1.474761 S    
O13   C57   1.282304 A    
Cu5   Cu6   2.712439 S    
O14   C57   1.308169 A    
C12   N17   1.489412 S    
C74   C75   1.394385 A    
C6    N9    1.481116 S    
Cu1   Cu2   2.703344 S    
C31   C33   1.444087 A    
N12   O47   1.301621 A    
C11   I2    2.181972 S    
Cu1   O7    1.980378 S    
N1    O26   1.302173 A    
C13   C14   1.399633 A    
C77   H13   1.079183 S    
C41   I7    2.123383 S    
C15   C16   1.393008 A    
C7    C9    1.600664 S    
N4    O32   1.301381 A    
C8    N16   1.474586 S    
C21   C22   1.413521 A    
C32   C36   1.420865 A    
N2    O28   1.300540 A    
N7    O37   1.298851 A    
C17   C18   1.404216 A    
O7    C4    1.312682 A    
Cu5   O23   1.968612 S    
C37   I6    2.107413 S    
C81   C83   1.435426 A    
N6    O36   1.301956 A    
C8    C12   1.575976 S    
C73   N13   1.435193 S    
C61   C69   1.475425 S    
C38   C39   1.396919 A    
N15   O53   1.295178 A    
C20   C23   1.435048 A    
C5    H2    1.103106 S    
C63   I12   2.131017 S    
N14   O52   1.300013 A    
C12   I1    2.205107 S    
C51   N10   1.431536 S    
C85   C90   1.418546 A    
C80   H14   1.073019 S    
O5    C3    1.316422 A    
H12   C89   1.080838 S    
C70   C71   1.417311 A    
C88   C89   1.374587 A    
C21   C26   1.414943 A    
C23   N4    1.427147 S    
C4    C36   1.457592 S    
N8    O39   1.301051 A    
C37   C38   1.401245 A    
C40   H8    1.078233 S    
C49   C50   1.422081 A    
Cu6   O22   1.973504 S    
C28   C29   1.379982 A    
N5    O33   1.301094 A    
N7    O38   1.299574 A    
C71   C76   1.427687 A    
C1    C22   1.454656 S    
C10   C56   1.497753 S    
O17   C59   1.297268 A    
C16   C17   1.418084 A    
C27   C32   1.429197 A    
Cu2   O8    1.999715 S    
H9    C53   1.082839 S    
C82   C86   1.408746 A    
C68   C72   1.438481 A    
N5    O34   1.301233 A    
C47   C48   1.422691 A    
C76   I15   2.115349 S    
C13   C18   1.417425 A    
C74   N14   1.437114 S    
N9    O42   1.302360 A    
C67   C69   1.419000 A    
C33   C58   1.493782 S    
C65   H11   1.083482 S    
C73   C74   1.409675 A    
C42   C43   1.384247 A    
C24   N5    1.433426 S    
O3    Cu1   1.999718 S    
C27   N6    1.434984 S    
O24   C62   1.301953 A    
C64   C65   1.385605 A    
Cu3   O13   1.991014 S    
N10   O44   1.301230 A    
C34   C35   1.399799 A    
C26   H6    1.078943 S    
N12   O48   1.301029 A    
C25   C26   1.392319 A    
C34   C37   1.409985 A    
C5    H1    1.107434 S    
O16   C58   1.311055 A    
C35   C36   1.401632 A    
C81   C82   1.412657 A    
C20   C21   1.408436 A    
N4    O31   1.297846 A    
N11   O46   1.301242 A    
C57   C86   1.467271 S    
O9    Cu3   1.975457 S    
C84   C87   1.445619 A    
C49   C54   1.422717 A    
C77   C82   1.417480 A    
C2    C9    1.499432 S    
C90   I19   2.125845 S    
Cu3   Cu4   2.687660 S    
C48   C49   1.408169 A    
C41   C42   1.407604 A    
O1    C1    1.297889 A    
C45   C47   1.419704 A    
O17   Cu5   1.973620 S    
C55   C72   1.491513 S    
C27   C28   1.391378 A    
C24   C25   1.401024 A    
O12   Cu4   1.993482 S    
N3    O30   1.301132 A    
C44   I9    2.115516 S    
C31   C32   1.423747 A    
C6    I13   2.201685 S    
C28   H7    1.082969 S    
C7    N1    1.485952 S    
C8    C9    1.595620 S    
C43   C44   1.385842 A    
O19   C60   1.297499 A    
C14   N3    1.434747 S    
C75   I11   2.137092 S    
O20   C60   1.310181 A    
O10   C55   1.300538 A    
O9    C55   1.307404 A    
C70   C73   1.435347 A    
C79   C80   1.395559 A    
C63   C68   1.441262 A    
C54   I10   2.133096 S    
N15   O54   1.302330 A    
C88   H15   1.083813 S    
C8    H3    1.103756 S    
C41   C46   1.437546 A    
O20   Cu6   1.968497 S    
Cu4   O14   1.975689 S    
C83   C84   1.442130 A    
C38   N8    1.430858 S    
C25   N2    1.443866 S    
C18   C22   1.411547 A    
O12   C56   1.297469 A    
O3    C2    1.303880 A    
O19   Cu5   1.975675 S    
C67   C68   1.412770 A    
O10   Cu4   1.990926 S    
C89   C90   1.386775 A    
C79   I17   2.122201 S    
N6    O35   1.301240 A    
C87   N15   1.421823 S    
N10   O43   1.301269 A    
C87   C88   1.396233 A    
C65   C66   1.384695 A    
O15   C58   1.295197 A    
Cu1   O5    1.979866 S    
C30   C31   1.434803 A    
C23   C24   1.415967 A    
C15   I3    2.120282 S    
C59   C83   1.474355 S    
C71   C72   1.441579 A    
C16   H5    1.079449 S    
O1    Cu1   1.964135 S    
O2    Cu2   1.979865 S    
C29   I5    2.125367 S    
C35   C40   1.416388 A    
C66   I14   2.125865 S    
N17   O58   1.302606 A    
C53   C54   1.392719 A    
O6    C3    1.301287 A    
O4    Cu2   1.980379 S    
C77   C78   1.388095 A    
Cu5   O21   1.993232 S    
O18   Cu6   1.993207 S    
O22   C61   1.305777 A    
N1    O25   1.303005 A    
C78   I16   2.119857 S    
N3    O29   1.300875 A    
C48   C51   1.429785 A    
C19   C20   1.438999 A    
C7    C11   1.596353 S    
O8    C4    1.284803 A    
C52   C53   1.393916 A    
N11   O45   1.301198 A    
Cu4   O16   1.986295 S    
C69   C70   1.427740 A    
C45   C46   1.420604 A    
C17   C19   1.423224 A    
O11   Cu3   1.986395 S    
C13   H4    1.079764 S    
O18   C59   1.314732 A    
O4    C2    1.299136 A    
N9    O41   1.298625 A    
C3    C50   1.488522 S    
C6    C10   1.630215 S    
C46   C50   1.441627 A    
C30   N7    1.428609 S    
Cu6   O24   1.975763 S    
C52   N11   1.437832 S    
O2    C1    1.296080 A    
O11   C56   1.295996 A    
C10   C12   1.625387 S    
N14   O51   1.301236 A    
Cu3   O15   1.993579 S    
C51   C52   1.413660 A    
C10   C11   1.618225 S    
C64   N12   1.439508 S    
C44   C45   1.417803 A    
C29   C30   1.407083 A    
C5    C9    1.544054 S    
O23   C62   1.309300 A    
N17   O57   1.300876 A    
C11   I20   2.189185 S    
Cu2   O6    1.964135 S    
C33   C34   1.424246 A    
C66   C67   1.420965 A    
C63   C64   1.415028 A    
C80   C81   1.425001 A    
C78   C79   1.393787 A    
C43   H10   1.083243 S    
N8    O40   1.299998 A    
C42   I8    2.127090 S    
C75   C76   1.397875 A    
N13   O49   1.299599 A    
N2    O27   1.301207 A    
N13   O50   1.302063 A    
O21   C61   1.308051 A    
C85   C86   1.415316 A    
C14   C15   1.401196 A    
