data_mof_unit_29792.cif
_audit_creation_date              2013-03-05T16:03:53-0500
_audit_creation_method            fapswitch 2.2
_symmetry_space_group_name_H-M    P1
_symmetry_Int_Tables_number       1
_space_group_crystal_system       triclinic
_cell_length_a                    11.066507
_cell_length_b                    10.779297
_cell_length_c                    9.578725
_cell_angle_alpha                 89.004457
_cell_angle_beta                  103.505841
_cell_angle_gamma                 90.758235
_cell_volume                      1110.8225447

loop_
_atom_site_label
_atom_site_type_symbol
_atom_site_description
_atom_site_fract_x
_atom_site_fract_y
_atom_site_fract_z
_atom_type_partial_charge
O1    O     O_R   0.499990 0.319660 0.618740 -0.546165
O2    O     O_R   0.500010 0.680340 0.381260 -0.546167
O3    O     O_R   0.499990 0.319630 0.381170 -0.580539
O4    O     O_R   0.500010 0.680370 0.618830 -0.580531
C1    C     C_R   0.503445 0.262585 0.501796 0.846975
C2    C     C_R   0.496554 0.737415 0.498204 0.846986
O5    O     O_R   0.320690 0.500020 0.575130 -0.534608
O6    O     O_R   0.679310 0.499980 0.424870 -0.534616
O7    O     O_R   0.320680 0.499990 0.337560 -0.570910
O8    O     O_R   0.679320 0.500010 0.662440 -0.570910
C3    C     C_R   0.262437 0.498099 0.440369 0.849422
C4    C     C_R   0.737563 0.501901 0.559631 0.849414
Cu1   Cu    Cu3+1 0.500000 0.500020 0.640660 1.058219
Cu2   Cu    Cu3+1 0.500000 0.499980 0.359340 1.058215
C5    C     C_R   0.440833 0.408508 0.061303 -0.109279
C6    C     C_R   0.559167 0.591492 0.938697 -0.109279
C7    C     C_R   0.440310 0.407807 0.913196 0.436823
C8    C     C_R   0.559690 0.592192 0.086805 0.436824
H1    H     H_    0.880472 0.453823 0.390224 0.225629
H2    H     H_    0.119528 0.546174 0.609776 0.225631
H3    H     H_    0.392741 0.335587 0.106259 0.200113
H4    H     H_    0.607259 0.664413 0.893741 0.200111
C9    C     C_2   0.126180 0.491524 0.403093 -0.169895
C10   C     C_2   0.873820 0.508476 0.596907 -0.169894
C11   C     C_2   0.066499 0.512400 0.507578 -0.114170
C12   C     C_2   0.933500 0.487598 0.492422 -0.114165
C13   C     C_R   0.593573 0.063245 0.447043 -0.023900
C14   C     C_R   0.406422 0.936755 0.552954 -0.023911
C15   C     C_R   0.584566 0.934447 0.442716 -0.143121
C16   C     C_R   0.415431 0.065553 0.557282 -0.143118
H5    H     H_    0.652777 0.882057 0.404064 0.222381
H6    H     H_    0.347220 0.117944 0.595934 0.222391
C17   C     C_R   0.493094 0.871398 0.495542 -0.118537
C18   C     C_R   0.506903 0.128602 0.504457 -0.118541
N1    N     N_R   0.500030 0.500030 0.852080 -0.254413
N2    N     N_R   0.499970 0.499970 0.147920 -0.254415
C19   C     C_2   0.939312 0.540757 0.746186 0.841882
O9    O     O_2   0.897680 0.621531 0.809356 -0.568445
O10   O     O_R   0.045487 0.475929 0.816199 -0.706405
H7    H     H_    0.081616 0.507024 0.916745 0.356074
C20   C     C_2   0.060688 0.459243 0.253814 0.841882
O11   O     O_2   0.102321 0.378471 0.190643 -0.568444
O12   O     O_R   0.954512 0.524071 0.183802 -0.706405
H8    H     H_    0.918384 0.492976 0.083255 0.356074
N3    N     N_R   0.377882 0.307410 0.830073 0.133555
O13   O     O_R   0.414261 0.194779 0.866978 -0.330830
O14   O     O_R   0.266648 0.323990 0.750721 -0.318846
N4    N     N_R   0.622120 0.692588 0.169929 0.133553
O15   O     O_R   0.585737 0.805219 0.133030 -0.330829
O16   O     O_R   0.733358 0.676007 0.249271 -0.318848
C21   C     C_2   0.697254 0.124571 0.396670 0.872998
O17   O     O_2   0.741975 0.222449 0.448448 -0.615470
O18   O     O_R   0.746766 0.067696 0.292522 -0.692922
H9    H     H_    0.817536 0.117469 0.267819 0.354391
C22   C     C_2   0.302735 0.875431 0.603318 0.872997
O19   O     O_2   0.258033 0.777539 0.551559 -0.615474
O20   O     O_R   0.253192 0.932323 0.707433 -0.692930
H10   H     H_    0.182420 0.882551 0.732131 0.354394

loop_
_geom_bond_atom_site_label_1
_geom_bond_atom_site_label_2
_geom_bond_distance
_ccdc_geom_bond_type
C19   O10   1.398593 S    
C16   H6    1.083931 S    
O7    Cu2   1.946324 S    
O18   H9    1.014011 S    
C19   O9    1.222956 D    
C13   C15   1.391256 A    
O7    C3    1.296559 A    
C20   O11   1.222955 D    
C4    C10   1.467249 S    
C9    C20   1.489143 S    
C2    C17   1.444885 S    
C5    H3    1.082012 S    
O6    C4    1.301602 A    
C1    C18   1.444885 S    
C22   O19   1.222201 D    
C14   C16   1.391261 A    
C10   C19   1.489144 S    
C15   H5    1.083932 S    
Cu1   Cu2   2.694694 S    
O5    C3    1.301603 A    
C20   O12   1.398594 S    
O20   H10   1.014012 S    
O2    C2    1.295890 A    
O3    Cu2   1.951645 S    
O8    C4    1.296559 A    
O12   H8    1.013704 S    
O1    C1    1.295890 A    
N4    O16   1.299634 A    
N4    O15   1.300997 A    
C13   C21   1.487859 S    
C14   C22   1.487870 S    
C7    N3    1.426761 S    
C14   C17   1.412956 A    
Cu1   N1    2.025058 S    
C22   O20   1.398861 S    
C13   C18   1.412949 A    
Cu2   N2    2.025058 S    
O2    Cu2   1.959078 S    
O6    Cu2   1.936440 S    
O4    C2    1.292255 A    
O1    Cu1   1.959077 S    
H2    C11   1.083336 S    
C16   C18   1.397030 A    
O10   H7    1.013705 S    
C21   O17   1.222199 D    
C6    N1    1.358819 A    
C15   C17   1.397031 A    
C5    N2    1.358818 A    
O5    Cu1   1.936441 S    
C9    C11   1.344995 D    
C6    C8    1.417490 A    
N3    O14   1.299630 A    
C3    C9    1.467249 S    
O4    Cu1   1.951645 S    
C5    C7    1.417491 A    
H1    C12   1.083336 S    
C6    H4    1.082013 S    
C7    N1    1.382320 A    
O3    C1    1.292254 A    
C11   C12   1.466280 S    
N3    O13   1.300990 A    
C8    N2    1.382318 A    
C10   C12   1.344996 D    
C21   O18   1.398843 S    
O8    Cu1   1.946323 S    
C8    N4    1.426760 S    
