data_mof_unit_39630.cif
_audit_creation_date              2012-10-26T18:59:36-0400
_audit_creation_method            fapswitch 2.2
_symmetry_space_group_name_H-M    P1
_symmetry_Int_Tables_number       1
_space_group_crystal_system       triclinic
_cell_length_a                    23.510754
_cell_length_b                    10.865596
_cell_length_c                    9.581
_cell_angle_alpha                 89.013063
_cell_angle_beta                  88.914198
_cell_angle_gamma                 91.03966
_cell_volume                      2446.32628589

loop_
_atom_site_label
_atom_site_type_symbol
_atom_type_description
_atom_site_fract_x
_atom_site_fract_y
_atom_site_fract_z
_atom_type_partial_charge
C1    C     C_R   0.501754 0.262205 0.500498 0.583468
C2    C     C_R   0.120124 0.609316 0.483681 0.400400
C3    C     C_R   0.236841 0.511838 0.620787 -0.062235
C4    C     C_R   0.390906 0.500220 0.500595 0.536323
C5    C     C_R   0.296110 0.511450 0.623250 -0.149206
C6    C     C_R   0.328147 0.500889 0.499194 0.007267
C7    C     C_R   0.299551 0.491429 0.371848 -0.146504
C8    C     C_R   0.240285 0.491410 0.369483 -0.059346
C9    C     C_R   0.208856 0.501380 0.493955 0.249444
C10   C     C_R   0.761659 0.505142 0.613861 -0.075049
C11   C     C_R   0.702443 0.506956 0.618032 -0.158477
C12   C     C_R   0.969695 0.272304 0.500843 -0.122264
C13   C     C_R   0.671566 0.492739 0.495195 -0.028232
C14   C     C_R   0.700975 0.472929 0.368644 -0.079675
C15   C     C_R   0.760367 0.471448 0.363736 0.130995
C16   C     C_R   0.495160 0.737183 0.498568 0.548666
C17   C     C_R   0.790868 0.488329 0.487264 0.244650
C18   C     C_R   0.470817 0.062378 0.605866 -0.025168
C19   C     C_R   0.498550 0.128147 0.497916 -0.042602
C20   C     C_R   0.511697 0.065411 0.373275 0.235933
C21   C     C_R   0.498510 0.938046 0.366510 0.265372
C22   C     C_R   0.485743 0.870276 0.491126 -0.057882
C23   C     C_R   0.028939 0.273862 0.501860 -0.124658
C24   C     C_R   0.463865 0.936542 0.602792 -0.033977
C25   C     C_3   0.462396 0.922001 0.758099 0.151807
C26   C     C_3   0.476722 0.060495 0.760907 0.023981
C27   C     C_R   0.547659 0.534622 0.070373 0.181803
C28   C     C_R   0.609000 0.498078 0.498714 0.556935
C29   C     C_R   0.455057 0.454934 0.078796 -0.050878
C30   C     C_R   0.454409 0.455747 0.930781 0.193378
C31   C     C_R   0.548174 0.531572 0.923332 0.092503
C32   C     C_3   0.580729 0.650082 0.910782 -0.247855
C33   C     C_3   0.577359 0.657026 0.069079 0.121904
C34   C     C_R   0.059515 0.386015 0.495487 0.033967
C35   C     C_R   0.879986 0.602350 0.476861 0.412108
C36   C     C_R   0.880200 0.382579 0.493076 0.391970
C37   C     C_R   0.939746 0.382859 0.493108 0.028427
C38   C     C_R   0.969852 0.496433 0.485870 -0.056901
C39   C     C_R   0.940058 0.608297 0.477623 0.064470
C40   C     C_3   0.527111 0.142046 0.148073 0.016308
C41   C     C_3   0.568130 0.224466 0.063096 -0.355286
C42   C     C_3   0.446144 0.892094 0.176056 -0.043006
C43   C     C_3   0.405161 0.786509 0.217443 -0.346177
C44   C     C_3   0.394870 0.770807 0.821461 -0.000305
C45   C     C_R   0.029942 0.497652 0.487414 -0.036782
C46   C     C_3   0.332807 0.752509 0.866963 -0.368798
C47   C     C_3   0.653685 0.771318 0.144264 -0.020129
C48   C     C_3   0.712283 0.765950 0.208356 -0.338480
C49   C     C_R   0.060447 0.610267 0.481235 0.008834
C50   C     C_R   0.030892 0.720903 0.472936 -0.121882
C51   C     C_R   0.971324 0.721249 0.470950 0.090460
C52   C     C_R   0.119177 0.389607 0.497266 0.401883
Cu1   Cu    Cu3+1 0.500000 0.499980 0.640670 0.964780
Cu2   Cu    Cu3+1 0.500000 0.500020 0.359330 0.964575
H1    H     H_    0.947462 0.184093 0.506246 0.166272
H2    H     H_    0.549117 0.729641 0.108406 0.171405
H3    H     H_    0.053864 0.808306 0.468014 0.163537
H4    H     H_    0.212627 0.519953 0.717352 0.121313
H5    H     H_    0.316662 0.519967 0.721829 0.125883
H6    H     H_    0.322842 0.483545 0.273909 0.114220
H7    H     H_    0.218735 0.483487 0.271067 0.120374
H8    H     H_    0.785035 0.517693 0.709041 0.134447
H9    H     H_    0.816156 0.530583 0.213140 0.242680
H10   H     H_    0.813845 0.376250 0.240247 0.265408
H11   H     H_    0.485395 0.188451 0.157885 0.131174
H12   H     H_    0.680971 0.520279 0.717230 0.133775
H13   H     H_    0.522331 0.056368 0.088467 0.152226
H14   H     H_    0.606852 0.172670 0.034738 0.143720
H15   H     H_    0.547609 0.256469 0.965925 0.117309
H16   H     H_    0.581146 0.304842 0.125457 0.191090
H17   H     H_    0.453269 0.889267 0.061651 0.156911
H18   H     H_    0.425521 0.981884 0.196894 0.107370
H19   H     H_    0.396599 0.784440 0.331665 0.152758
H20   H     H_    0.363996 0.799446 0.165402 0.099439
H21   H     H_    0.422889 0.697519 0.184452 0.175567
H22   H     H_    0.422501 0.728305 0.901306 0.123144
H23   H     H_    0.677995 0.459622 0.273002 0.191750
H24   H     H_    0.401128 0.724863 0.719834 0.177604
H25   H     H_    0.321329 0.818670 0.949332 0.173722
H26   H     H_    0.304764 0.768150 0.776593 0.165660
H27   H     H_    0.325184 0.658085 0.909393 0.075246
H28   H     H_    0.431068 0.106548 0.935588 0.213941
H29   H     H_    0.394039 0.121989 0.786753 0.287116
H30   H     H_    0.371534 0.471890 0.899274 0.175927
H31   H     H_    0.392647 0.327666 0.908440 0.220369
H32   H     H_    0.626025 0.827069 0.213531 0.175705
H33   H     H_    0.658152 0.817747 0.039924 0.129283
H34   H     H_    0.496014 0.864737 0.803730 0.078385
H35   H     H_    0.740289 0.705756 0.145934 0.177799
H36   H     H_    0.731657 0.859864 0.210095 0.129309
H37   H     H_    0.708690 0.729603 0.317189 0.174578
H38   H     H_    0.955480 0.889576 0.547827 0.231445
H39   H     H_    0.957669 0.883370 0.371607 0.231704
H40   H     H_    0.520775 0.082402 0.794257 0.104697
H41   H     H_    0.418315 0.419942 0.137395 0.117369
H42   H     H_    0.050654 0.186909 0.507996 0.164472
H43   H     H_    0.624544 0.637385 0.869006 0.147226
H44   H     H_    0.557069 0.723238 0.857219 0.098409
N1    N     N_R   0.851845 0.490997 0.484704 -0.412997
N2    N     N_R   0.148011 0.500104 0.491601 -0.399182
N3    N     N_R   0.500360 0.500930 0.147930 -0.279557
N4    N     N_R   0.500360 0.500890 0.852020 -0.214103
N5    N     N_3   0.788975 0.454721 0.232376 -0.625753
N6    N     N_3   0.434049 0.135006 0.830883 -0.596064
N7    N     N_3   0.403759 0.413927 0.866085 -0.545896
N8    N     N_3   0.943287 0.837129 0.462545 -0.543305
O1    O     O_R   0.500000 0.319640 0.618810 -0.462807
O2    O     O_R   0.582120 0.500020 0.618760 -0.507710
O3    O     O_R   0.582120 0.500060 0.381180 -0.468520
O4    O     O_2   0.849595 0.706238 0.468417 -0.453196
O5    O     O_3   0.551084 0.118649 0.279520 -0.537076
O6    O     O_3   0.499923 0.880030 0.239722 -0.579284
O7    O     O_3   0.406292 0.898020 0.808770 -0.572030
O8    O     O_3   0.631115 0.650711 0.131766 -0.556592
O9    O     O_2   0.850697 0.274908 0.501764 -0.488910
O10   O     O_2   0.148205 0.283763 0.504870 -0.488122
O11   O     O_2   0.150108 0.716437 0.478103 -0.493273
O12   O     O_R   0.500010 0.319680 0.381230 -0.483882
O13   O     O_R   0.417880 0.499940 0.618820 -0.470452
O14   O     O_R   0.417880 0.499980 0.381240 -0.537173
O15   O     O_R   0.499990 0.680320 0.618770 -0.537322
O16   O     O_R   0.500000 0.680360 0.381190 -0.449391

loop_
_geom_bond_atom_site_label_1
_geom_bond_atom_site_label_2
_ccdc_geom_bond_type
C26   H40   S    
C47   O8    S    
C39   C51   A    
C43   H19   S    
Cu2   O14   S    
H10   N5    S    
Cu2   N3    S    
C19   C20   A    
C18   C26   S    
C7    C8    A    
Cu1   Cu2   S    
C27   C33   S    
C12   C23   A    
C33   O8    S    
C29   C30   A    
C18   C24   A    
C36   C37   A    
C32   H43   S    
C46   H25   S    
H31   N7    S    
C10   C17   A    
C20   O5    S    
C23   H42   S    
C18   C19   A    
C14   H23   S    
C12   C37   A    
C44   H22   S    
C16   O16   A    
C38   C45   A    
C42   O6    S    
C26   N6    S    
C47   C48   S    
C32   H44   S    
C8    C9    A    
C48   H37   S    
C4    O13   A    
C41   H14   S    
C11   H12   S    
C8    H7    S    
C43   H20   S    
Cu2   O16   S    
C2    N2    A    
C48   H36   S    
C13   C14   A    
C10   H8    S    
C35   N1    A    
C2    O11   S    
C44   C46   S    
C50   C51   A    
C40   O5    S    
C52   O10   S    
C43   H21   S    
C38   C39   A    
C1    C19   S    
H29   N6    S    
C5    H5    S    
C27   C31   A    
C47   H32   S    
C24   C25   S    
C4    C6    S    
C29   H41   S    
C25   C26   S    
C27   N3    A    
C25   H34   S    
Cu2   O3    S    
C47   H33   S    
C35   C39   A    
C16   O15   A    
C31   N4    A    
C37   C38   A    
C3    C9    A    
C2    C49   A    
C25   O7    S    
H39   N8    S    
C46   H27   S    
Cu1   O1    S    
C31   C32   S    
C45   C49   A    
Cu1   N4    S    
C23   C34   A    
C30   N4    A    
C42   H18   S    
H30   N7    S    
C29   N3    A    
C13   C28   S    
C34   C45   A    
C17   N1    S    
C35   O4    S    
C1    O1    A    
H9    N5    S    
C40   C41   S    
C44   O7    S    
C9    N2    S    
C40   H11   S    
Cu2   O12   S    
C30   N7    S    
C22   C24   A    
C42   C43   S    
C7    H6    S    
C21   O6    S    
C40   H13   S    
C41   H15   S    
C33   H2    S    
H38   N8    S    
C15   C17   A    
C16   C22   S    
C50   H3    S    
C3    C5    A    
Cu1   O13   S    
C6    C7    A    
C28   O3    A    
C34   C52   A    
C48   H35   S    
C32   C33   S    
C44   H24   S    
Cu1   O15   S    
C46   H26   S    
C11   C13   A    
Cu1   O2    S    
C5    C6    A    
C28   O2    A    
C51   N8    S    
C42   H17   S    
C52   N2    A    
C36   N1    A    
C1    O12   A    
C12   H1    S    
C10   C11   A    
C3    H4    S    
C20   C21   A    
C49   C50   A    
H28   N6    S    
C14   C15   A    
C4    O14   A    
C15   N5    S    
C21   C22   A    
C36   O9    S    
C41   H16   S    
