data_mof_unit_58525.cif
_audit_creation_date              2012-12-10T16:39:31-0500
_audit_creation_method            fapswitch 2.2
_symmetry_space_group_name_H-M    P1
_symmetry_Int_Tables_number       1
_space_group_crystal_system       triclinic
_cell_length_a                    16.845729
_cell_length_b                    16.845553
_cell_length_c                    16.846076
_cell_angle_alpha                 66.280617
_cell_angle_beta                  66.281868
_cell_angle_gamma                 66.283412
_cell_volume                      3838.65147273

loop_
_atom_site_label
_atom_site_type_symbol
_atom_type_description
_atom_site_fract_x
_atom_site_fract_y
_atom_site_fract_z
_atom_type_partial_charge
C1    C     C_R   0.327474 0.946226 0.458249 -0.035588
C2    C     C_R   0.672527 0.053761 0.541755 -0.035610
C3    C     C_R   0.946269 0.458244 0.327460 -0.035576
C4    C     C_R   0.053777 0.541749 0.672526 -0.035584
C5    C     C_R   0.458246 0.327489 0.946210 -0.035605
C6    C     C_R   0.541753 0.672518 0.053783 -0.035588
C7    C     C_R   0.572837 0.993079 0.685588 -0.060866
C8    C     C_R   0.427160 0.006915 0.314417 -0.060876
C9    C     C_R   0.685582 0.572850 0.993079 -0.060881
C10   C     C_R   0.314418 0.427162 0.006904 -0.060871
C11   C     C_R   0.993094 0.685579 0.572837 -0.060856
C12   C     C_R   0.006925 0.314411 0.427161 -0.060849
C13   C     C_R   0.449878 0.992123 0.454917 0.076177
C14   C     C_R   0.550119 0.007864 0.545092 0.076177
C15   C     C_R   0.992168 0.454904 0.449867 0.076168
C16   C     C_R   0.007892 0.545078 0.550118 0.076174
C17   C     C_R   0.454912 0.449893 0.992111 0.076173
C18   C     C_R   0.545083 0.550131 0.007864 0.076179
C19   C     C_R   0.977809 0.177004 0.431009 0.969379
C20   C     C_R   0.022191 0.822996 0.568992 0.969353
C21   C     C_R   0.177005 0.431010 0.977804 0.969395
C22   C     C_R   0.822995 0.568991 0.022192 0.969393
C23   C     C_R   0.431008 0.977809 0.177004 0.969393
C24   C     C_R   0.568992 0.022189 0.822996 0.969407
C25   C     C_R   0.561465 0.820625 0.038664 0.970656
C26   C     C_R   0.438535 0.179376 0.961336 0.970653
C27   C     C_R   0.038662 0.561467 0.820626 0.970671
C28   C     C_R   0.961343 0.438532 0.179375 0.970677
C29   C     C_R   0.820626 0.038653 0.561469 0.970617
C30   C     C_R   0.179374 0.961343 0.438533 0.970636
C31   C     C_R   0.401680 0.981690 0.409447 -0.007278
C32   C     C_R   0.598317 0.018301 0.590559 -0.007288
C33   C     C_R   0.981723 0.409439 0.401672 -0.007266
C34   C     C_R   0.018315 0.590549 0.598320 -0.007257
C35   C     C_R   0.409445 0.401692 0.981675 -0.007265
C36   C     C_R   0.590553 0.598324 0.018305 -0.007254
C37   C     C_R   0.278374 0.941139 0.409029 -0.142184
C38   C     C_R   0.721626 0.058853 0.590973 -0.142203
C39   C     C_R   0.941152 0.409029 0.278374 -0.142213
C40   C     C_R   0.058863 0.590971 0.721625 -0.142183
C41   C     C_R   0.409028 0.278380 0.941132 -0.142198
C42   C     C_R   0.590972 0.721623 0.058865 -0.142155
C43   C     C_R   0.607973 0.024634 0.728432 -0.187480
C44   C     C_R   0.392026 0.975362 0.271570 -0.187493
C45   C     C_R   0.728429 0.607975 0.024638 -0.187484
C46   C     C_R   0.271571 0.392029 0.975354 -0.187473
C47   C     C_R   0.024639 0.728429 0.607973 -0.187489
C48   C     C_R   0.975365 0.271570 0.392030 -0.187458
C49   C     C_R   0.512808 0.939024 0.733351 0.445937
C50   C     C_R   0.487194 0.060964 0.266657 0.445939
C51   C     C_R   0.939075 0.733338 0.512779 0.445939
C52   C     C_R   0.060968 0.266647 0.487196 0.445933
C53   C     C_R   0.733342 0.512830 0.939024 0.445932
C54   C     C_R   0.266656 0.487181 0.060961 0.445924
C55   C     C_R   0.309111 0.910679 0.552971 0.454107
C56   C     C_R   0.690899 0.089290 0.447031 0.454116
C57   C     C_R   0.552968 0.309133 0.910660 0.454075
C58   C     C_R   0.447032 0.690861 0.089357 0.454057
C59   C     C_R   0.910790 0.552974 0.309057 0.454083
C60   C     C_R   0.089327 0.447024 0.690890 0.454090
C61   C     C_R   0.320788 0.937169 0.321830 0.306736
C62   C     C_R   0.679212 0.062825 0.678170 0.306723
C63   C     C_R   0.937169 0.321833 0.320797 0.306700
C64   C     C_R   0.062831 0.678172 0.679209 0.306730
C65   C     C_R   0.321826 0.320788 0.937169 0.306753
C66   C     C_R   0.678172 0.679212 0.062828 0.306738
C67   C     C_R   0.648035 0.073674 0.399486 -0.138048
C68   C     C_R   0.351976 0.926289 0.600523 -0.138012
C69   C     C_R   0.073720 0.399470 0.648025 -0.138020
C70   C     C_R   0.926434 0.600513 0.351906 -0.138030
C71   C     C_R   0.399472 0.648004 0.073743 -0.138022
C72   C     C_R   0.600519 0.352002 0.926269 -0.138034
C73   C     C_R   0.544590 0.061259 0.309014 -0.133341
C74   C     C_R   0.455415 0.938718 0.690996 -0.133313
C75   C     C_R   0.309006 0.544580 0.061269 -0.133311
C76   C     C_R   0.690988 0.455437 0.938715 -0.133307
C77   C     C_R   0.061277 0.309000 0.544589 -0.133298
C78   C     C_R   0.938809 0.690984 0.455368 -0.133313
C79   C     C_R   0.675562 0.095019 0.303655 0.389010
C80   C     C_R   0.324464 0.904918 0.696356 0.389036
C81   C     C_R   0.095102 0.303633 0.675529 0.389020
C82   C     C_R   0.905154 0.696344 0.324335 0.389102
C83   C     C_R   0.303630 0.675497 0.095148 0.388960
C84   C     C_R   0.696353 0.324495 0.904894 0.389000
C85   C     C_R   0.623353 0.090417 0.258813 0.351262
C86   C     C_R   0.376667 0.909533 0.741198 0.351306
C87   C     C_R   0.258798 0.623310 0.090486 0.351290
C88   C     C_R   0.741191 0.376694 0.909524 0.351279
C89   C     C_R   0.090465 0.258796 0.623333 0.351293
C90   C     C_R   0.909709 0.741188 0.376571 0.351239
C91   C     C_R   0.524025 0.028482 0.404428 -0.028966
C92   C     C_R   0.475974 0.971501 0.595583 -0.028957
C93   C     C_R   0.028509 0.404413 0.524025 -0.028958
C94   C     C_R   0.971566 0.595568 0.475950 -0.028955
C95   C     C_R   0.404419 0.524031 0.028482 -0.028945
C96   C     C_R   0.595575 0.475993 0.971494 -0.028962
C97   C     C_R   0.574801 0.035689 0.449559 -0.028552
C98   C     C_R   0.425199 0.964291 0.550451 -0.028542
C99   C     C_R   0.449547 0.574803 0.035703 -0.028509
C100  C     C_R   0.550445 0.425219 0.964279 -0.028533
C101  C     C_R   0.035717 0.449543 0.574801 -0.028538
C102  C     C_R   0.964373 0.550437 0.425168 -0.028529
O1    O     O_R   0.982940 0.138950 0.510160 -0.599689
O2    O     O_R   0.017060 0.861050 0.489840 -0.599659
O3    O     O_R   0.138950 0.510160 0.982940 -0.599693
O4    O     O_R   0.861050 0.489840 0.017060 -0.599693
O5    O     O_R   0.510160 0.982940 0.138950 -0.599687
O6    O     O_R   0.489840 0.017060 0.861050 -0.599683
O7    O     O_R   0.489840 0.861050 0.017060 -0.567785
O8    O     O_R   0.510160 0.138950 0.982940 -0.567755
O9    O     O_R   0.017060 0.489840 0.861050 -0.567758
O10   O     O_R   0.982940 0.510160 0.138950 -0.567735
O11   O     O_R   0.861050 0.017060 0.489840 -0.567750
O12   O     O_R   0.138950 0.982940 0.510160 -0.567756
O13   O     O_R   0.867700 0.025880 0.612340 -0.583091
O14   O     O_R   0.132300 0.974120 0.387660 -0.583084
O15   O     O_R   0.025880 0.612340 0.867700 -0.583095
O16   O     O_R   0.974120 0.387660 0.132300 -0.583097
O17   O     O_R   0.612340 0.867700 0.025880 -0.583095
O18   O     O_R   0.387660 0.132300 0.974120 -0.583084
O19   O     O_R   0.387660 0.974120 0.132300 -0.562332
O20   O     O_R   0.612340 0.025880 0.867700 -0.562318
O21   O     O_R   0.132300 0.387660 0.974120 -0.562319
O22   O     O_R   0.867700 0.612340 0.025880 -0.562297
O23   O     O_R   0.974120 0.132300 0.387660 -0.562302
O24   O     O_R   0.025880 0.867700 0.612340 -0.562320
Zn1   Zn    Zn3+2 0.004880 0.004880 0.583590 1.242844
Zn2   Zn    Zn3+2 0.995120 0.995120 0.416410 1.242901
Zn3   Zn    Zn3+2 0.004880 0.583590 0.004880 1.242893
Zn4   Zn    Zn3+2 0.995120 0.416410 0.995120 1.242833
Zn5   Zn    Zn3+2 0.583590 0.004880 0.004880 1.242828
Zn6   Zn    Zn3+2 0.416410 0.995120 0.995120 1.242819
Cl1   Cl    Cl    0.281923 0.882434 0.280129 -0.410280
Cl2   Cl    Cl    0.718081 0.117558 0.719870 -0.410318
Cl3   Cl    Cl    0.882420 0.280139 0.281946 -0.410385
Cl4   Cl    Cl    0.117562 0.719878 0.718070 -0.410340
Cl5   Cl    Cl    0.280119 0.281907 0.882457 -0.410315
Cl6   Cl    Cl    0.719868 0.718077 0.117563 -0.410421
Cl7   Cl    Cl    0.333886 0.891572 0.860087 -0.392917
Cl8   Cl    Cl    0.666144 0.108349 0.139930 -0.392851
Cl9   Cl    Cl    0.891807 0.860068 0.333774 -0.392704
Cl10  Cl    Cl    0.108403 0.139909 0.666119 -0.392836
Cl11  Cl    Cl    0.860080 0.333914 0.891574 -0.392901
Cl12  Cl    Cl    0.139906 0.666086 0.108444 -0.392778
Cl13  Cl    Cl    0.217636 0.885596 0.761859 -0.317526
Cl14  Cl    Cl    0.782422 0.114270 0.238167 -0.317495
Cl15  Cl    Cl    0.761877 0.217681 0.885506 -0.317504
Cl16  Cl    Cl    0.238058 0.782261 0.114693 -0.317458
Cl17  Cl    Cl    0.886102 0.761802 0.217370 -0.317304
Cl18  Cl    Cl    0.114517 0.238099 0.782329 -0.317491
Cl19  Cl    Cl    0.538705 0.845906 0.826603 -0.558769
Cl20  Cl    Cl    0.461312 0.154084 0.173401 -0.558730
Cl21  Cl    Cl    0.845940 0.826586 0.538648 -0.558760
Cl22  Cl    Cl    0.154090 0.173408 0.461288 -0.558766
Cl23  Cl    Cl    0.826589 0.538745 0.845907 -0.558762
Cl24  Cl    Cl    0.173420 0.461250 0.154088 -0.558791
Cl25  Cl    Cl    0.265479 0.817546 0.601879 -0.451652
Cl26  Cl    Cl    0.734546 0.182415 0.398100 -0.451632
Cl27  Cl    Cl    0.601878 0.265490 0.817536 -0.451630
Cl28  Cl    Cl    0.398162 0.734456 0.182510 -0.451649
Cl29  Cl    Cl    0.817675 0.601967 0.265382 -0.451659
Cl30  Cl    Cl    0.182437 0.398114 0.734550 -0.451638

loop_
_geom_bond_atom_site_label_1
_geom_bond_atom_site_label_2
_ccdc_geom_bond_type
C68   C80   A    
C83   C87   A    
C64   Cl4   S    
C9    C45   A    
O24   Zn1   S    
C18   C96   A    
C6    C58   A    
C11   C47   A    
C12   C48   A    
C55   C68   A    
C75   C95   A    
C23   O19   A    
O11   Zn2   S    
C30   O14   A    
C78   C90   A    
C77   C89   A    
C16   C101  A    
C59   Cl29  S    
C26   C41   S    
C26   O18   A    
C72   C100  A    
C95   C99   A    
C58   C71   A    
C3    C33   A    
C52   Cl22  S    
C89   Cl10  S    
C96   C100  A    
C1    C31   A    
O13   Zn1   S    
C2    C32   A    
C74   C92   A    
C13   C98   A    
C56   Cl26  S    
C16   C34   A    
C19   O1    A    
C4    C40   A    
C66   Cl6   S    
C29   C38   S    
C10   C46   A    
O23   Zn2   S    
O17   Zn5   S    
C10   C35   A    
C17   C95   A    
C7    C43   A    
C87   Cl12  S    
O1    Zn1   S    
C76   C88   A    
C88   Cl11  S    
C1    C37   A    
C81   C89   A    
C29   O13   A    
C3    C39   A    
C15   C102  A    
C13   C91   A    
C10   C54   A    
C25   O17   A    
C12   C52   A    
C14   C92   A    
C79   Cl14  S    
C71   C83   A    
C27   O15   A    
C4    C34   A    
C49   Cl19  S    
C61   Cl1   S    
C90   Cl9   S    
C8    C44   A    
C67   C79   A    
C73   C91   A    
C46   C65   A    
O5    Zn5   S    
C50   C73   A    
C93   C101  A    
C47   C64   A    
C67   C97   A    
C19   C48   S    
C48   C63   A    
O3    Zn3   S    
C28   C39   S    
C22   O4    A    
C71   C99   A    
C19   O23   A    
C91   C97   A    
C23   C44   S    
C54   C75   A    
C30   C37   S    
C63   Cl3   S    
C21   O21   A    
C20   O24   A    
O16   Zn4   S    
C25   O7    A    
C9    C36   A    
C2    C38   A    
O9    Zn4   S    
C60   Cl30  S    
O2    Zn2   S    
C27   C40   S    
C23   O5    A    
C4    C60   A    
O7    Zn6   S    
C24   O20   A    
O8    Zn5   S    
C74   C86   A    
C85   Cl8   S    
C7    C49   A    
C72   C84   A    
C86   Cl7   S    
C2    C56   A    
C69   C81   A    
C24   O6    A    
C26   O8    A    
C75   C87   A    
C80   Cl13  S    
C53   Cl23  S    
O21   Zn4   S    
O14   Zn2   S    
O10   Zn3   S    
C53   C76   A    
C9    C53   A    
C18   C99   A    
O19   Zn6   S    
C52   C77   A    
C8    C50   A    
O20   Zn5   S    
C79   C85   A    
O15   Zn3   S    
C57   Cl27  S    
C14   C97   A    
C21   C46   S    
C30   O12   A    
C84   Cl15  S    
O4    Zn4   S    
C5    C41   A    
C51   Cl21  S    
C7    C32   A    
O18   Zn6   S    
C8    C31   A    
C13   C31   A    
C11   C34   A    
C84   C88   A    
C14   C32   A    
C15   C33   A    
C40   C64   A    
C25   C42   S    
C15   C93   A    
C37   C61   A    
C70   C102  A    
C22   O22   A    
C20   O2    A    
C69   C101  A    
C44   C61   A    
C56   C67   A    
C39   C63   A    
C16   C94   A    
C82   C90   A    
C5    C57   A    
C62   Cl2   S    
C1    C55   A    
C51   C78   A    
C65   Cl5   S    
C73   C85   A    
C28   O16   A    
C76   C96   A    
C54   Cl24  S    
O12   Zn1   S    
C60   C69   A    
C78   C94   A    
C5    C35   A    
C77   C93   A    
C6    C36   A    
O22   Zn3   S    
C57   C72   A    
C41   C65   A    
C70   C82   A    
C17   C100  A    
C68   C98   A    
O6    Zn6   S    
C82   Cl17  S    
C11   C51   A    
C92   C98   A    
C59   C70   A    
C27   O9    A    
C83   Cl16  S    
C50   Cl20  S    
C80   C86   A    
C55   Cl25  S    
C22   C45   S    
C94   C102  A    
C6    C42   A    
C29   O11   A    
C45   C66   A    
C42   C66   A    
C24   C43   S    
C49   C74   A    
C58   Cl28  S    
C17   C35   A    
C12   C33   A    
C18   C36   A    
C28   O10   A    
C21   O3    A    
C20   C47   S    
C81   Cl18  S    
C43   C62   A    
C38   C62   A    
C3    C59   A    
