data_mof_unit_49514.cif
_audit_creation_date              2012-12-10T20:37:31-0500
_audit_creation_method            fapswitch 2.2
_symmetry_space_group_name_H-M    P1
_symmetry_Int_Tables_number       1
_space_group_crystal_system       triclinic
_cell_length_a                    15.715425
_cell_length_b                    10.719021
_cell_length_c                    9.865053
_cell_angle_alpha                 90.215839
_cell_angle_beta                  90.133432
_cell_angle_gamma                 90.113222
_cell_volume                      1661.78777677

loop_
_atom_site_label
_atom_site_type_symbol
_atom_type_description
_atom_site_fract_x
_atom_site_fract_y
_atom_site_fract_z
_atom_type_partial_charge
C1    C     C_R   0.496359 0.260588 0.499397 0.869935
C2    C     C_3   0.083306 0.497188 0.500911 0.056115
C3    C     C_3   0.972914 0.550472 0.612725 0.474665
C4    C     C_3   0.916916 0.494547 0.500857 0.033180
C5    C     C_3   0.028300 0.616540 0.505407 -0.238096
C6    C     C_3   0.972576 0.556926 0.394297 0.055935
C7    C     C_1   0.173971 0.498310 0.500909 -0.046552
C8    C     C_1   0.826076 0.495042 0.500800 0.022767
C9    C     C_R   0.509864 0.063094 0.613128 -0.063739
C10   C     C_R   0.489513 0.129195 0.497446 -0.132618
C11   C     C_R   0.464414 0.062520 0.379421 0.114423
C12   C     C_R   0.337974 0.499920 0.499955 0.891964
C13   C     C_R   0.466282 0.932515 0.381523 -0.303064
C14   C     C_R   0.491983 0.870148 0.499673 -0.089041
C15   C     C_R   0.510294 0.938659 0.614701 0.040373
C16   C     C_3   0.540800 0.928845 0.757739 -0.550967
C17   C     C_3   0.539804 0.072732 0.757820 0.368026
C18   C     C_R   0.450153 0.417821 0.070195 0.075551
C19   C     C_R   0.554082 0.575604 0.073260 0.537159
C20   C     C_R   0.554483 0.573687 0.928045 -0.226320
C21   C     C_R   0.451456 0.416185 0.927947 0.150729
C22   C     C_3   0.357524 0.401739 0.918095 -0.574207
C23   C     C_R   0.498543 0.739371 0.500150 0.888890
C24   C     C_3   0.355069 0.407331 0.072336 0.295910
C25   C     C_R   0.662040 0.499362 0.500171 0.892829
C26   C     C_3   0.973756 0.378915 0.495796 0.480483
C27   C     C_3   0.029161 0.440232 0.385111 -0.249487
C28   C     C_1   0.249197 0.499134 0.500348 -0.200919
C29   C     C_1   0.750844 0.496872 0.500547 -0.160911
C30   C     C_3   0.029236 0.432591 0.611611 -0.373116
H1    H     H_    0.053828 0.396505 0.290939 0.127882
H2    H     H_    0.605080 0.886429 0.765370 0.209124
H3    H     H_    0.489812 0.112157 0.824996 0.096568
H4    H     H_    0.597769 0.632531 0.872210 0.163524
H5    H     H_    0.326414 0.482421 0.867848 0.237996
H6    H     H_    0.339119 0.308937 0.876703 0.154358
H7    H     H_    0.333333 0.319960 0.122664 0.063229
H8    H     H_    0.052353 0.713973 0.508108 0.138255
H9    H     H_    0.054689 0.381592 0.700597 0.137965
H10   H     H_    0.448122 0.881360 0.290924 0.166163
H11   H     H_    0.491906 0.886928 0.824926 0.174335
N1    N     N_R   0.499430 0.499140 0.142800 -0.130506
N2    N     N_R   0.499430 0.499180 0.857150 -0.108152
O1    O     O_R   0.500010 0.316790 0.614690 -0.611213
O2    O     O_R   0.500000 0.316760 0.385350 -0.603257
O3    O     O_R   0.376780 0.500010 0.614650 -0.627113
O4    O     O_R   0.376770 0.499970 0.385310 -0.573165
O5    O     O_R   0.500000 0.683240 0.614650 -0.620478
O6    O     O_R   0.499990 0.683210 0.385310 -0.605379
O7    O     O_R   0.623230 0.500030 0.614690 -0.610602
O8    O     O_R   0.623220 0.499990 0.385350 -0.570566
Zn1   Zn    Zn3+2 0.500010 0.500020 0.653130 0.961792
Zn2   Zn    Zn3+2 0.499990 0.499980 0.346870 1.020715
O9    O     O_3   0.620809 0.128214 0.784731 -0.587873
C31   C     C_3   0.678765 0.122803 0.675225 0.149764
H12   H     H_    0.658091 0.185838 0.592413 0.142006
H13   H     H_    0.685820 0.026231 0.635327 0.133992
C32   C     C_3   0.765495 0.167431 0.723891 -0.798053
H14   H     H_    0.789207 0.105817 0.805934 0.245272
H15   H     H_    0.811146 0.165221 0.638414 0.251160
H16   H     H_    0.760998 0.264632 0.762662 0.270081
O10   O     O_3   0.611938 0.646851 0.146628 -0.583243
C33   C     C_3   0.610387 0.774032 0.107988 0.092883
H17   H     H_    0.600410 0.830969 0.200783 0.178049
H18   H     H_    0.557966 0.799442 0.036942 0.103024
C34   C     C_3   0.696000 0.811286 0.047984 -0.860693
H19   H     H_    0.709626 0.755961 0.955337 0.251465
H20   H     H_    0.695143 0.911779 0.020984 0.235596
H21   H     H_    0.747514 0.795100 0.123152 0.260691
O11   O     O_3   0.316962 0.518523 0.119767 -0.561891
C35   C     C_3   0.228074 0.501029 0.128879 0.119277
H22   H     H_    0.212840 0.433646 0.210876 0.137844
H23   H     H_    0.200804 0.466153 0.031438 0.118917
C36   C     C_3   0.186020 0.625154 0.161780 -0.821490
H24   H     H_    0.198304 0.692888 0.079154 0.241012
H25   H     H_    0.116270 0.611864 0.171984 0.225888
H26   H     H_    0.211673 0.663342 0.258376 0.263463
O12   O     O_3   0.938946 0.257564 0.490931 -0.616534
C37   C     C_3   0.005300 0.169543 0.481576 0.107713
H27   H     H_    0.050187 0.178516 0.568592 0.137555
H28   H     H_    0.040794 0.180962 0.384900 0.135076
C38   C     C_3   0.967741 0.038590 0.483809 -0.839629
H29   H     H_    0.921872 0.026553 0.398911 0.260481
H30   H     H_    0.019330 0.968623 0.472899 0.203651
H31   H     H_    0.934431 0.022268 0.581319 0.253212
N3    N     N_3   0.940069 0.623978 0.277095 -0.463531
H32   H     H_    0.900378 0.562790 0.223597 0.197412
H33   H     H_    0.901679 0.696315 0.313111 0.192675
O13   O     O_3   0.936527 0.607859 0.727613 -0.601470
C39   C     C_3   0.001521 0.644605 0.818148 0.108439
H34   H     H_    0.048900 0.706270 0.767745 0.131573
H35   H     H_    0.034389 0.561462 0.860460 0.140140
C40   C     C_3   0.962154 0.717061 0.934975 -0.814096
H36   H     H_    0.913738 0.658656 0.986613 0.266227
H37   H     H_    0.012265 0.743808 0.009189 0.211428
H38   H     H_    0.931112 0.802930 0.896359 0.252259
N4    N     N_3   0.436864 0.124871 0.258750 -0.442259
H39   H     H_    0.375169 0.094602 0.235912 0.161281
H40   H     H_    0.476587 0.097491 0.179148 0.179885

loop_
_geom_bond_atom_site_label_1
_geom_bond_atom_site_label_2
_ccdc_geom_bond_type
C34   H20   S    
C31   H12   S    
C33   H18   S    
C40   H36   S    
C18   C21   A    
C2    C7    S    
C4    C8    S    
N4    H39   S    
C24   O11   S    
C22   H5    S    
C26   C27   S    
C26   O12   S    
C36   H25   S    
C12   C28   S    
C18   C24   S    
C8    C29   T    
C18   N1    A    
N1    Zn2   S    
C5    C6    S    
N3    H33   S    
N2    Zn1   S    
C23   O6    A    
C34   H21   S    
C19   O10   S    
C32   H15   S    
C15   C16   S    
O3    Zn1   S    
C25   O7    A    
C13   H10   S    
C21   N2    A    
C19   C20   A    
C16   C17   S    
C36   H26   S    
O7    Zn1   S    
C2    C27   S    
C13   C14   A    
C9    C10   A    
C19   N1    A    
O4    Zn2   S    
C20   H4    S    
O1    Zn1   S    
C32   H16   S    
C34   H19   S    
C33   C34   S    
O2    Zn2   S    
C40   H37   S    
C21   C22   S    
C17   H3    S    
C12   O4    A    
N4    H40   S    
C25   C29   S    
C36   H24   S    
C27   H1    S    
C12   O3    A    
C37   H28   S    
O12   C37   S    
C32   H14   S    
C7    C28   T    
C37   H27   S    
O8    Zn2   S    
C14   C23   S    
C3    C30   S    
C25   O8    A    
O10   C33   S    
C35   C36   S    
C1    O1    A    
C39   H35   S    
C6    C27   S    
C24   H7    S    
O11   C35   S    
C4    C6    S    
C26   C30   S    
C40   H38   S    
C38   H30   S    
C31   H13   S    
C22   C24   S    
C2    C5    S    
C3    C4    S    
C20   N2    A    
C39   C40   S    
C35   H23   S    
C9    C17   S    
O9    C31   S    
C23   O5    A    
N3    H32   S    
C1    C10   S    
C3    C5    S    
C37   C38   S    
C4    C26   S    
C16   H2    S    
C38   H31   S    
C22   H6    S    
C6    N3    S    
C2    C30   S    
C3    O13   S    
C9    C15   A    
C35   H22   S    
C11   C13   A    
C1    O2    A    
C39   H34   S    
O6    Zn2   S    
C17   O9    S    
C30   H9    S    
C10   C11   A    
C33   H17   S    
O5    Zn1   S    
C38   H29   S    
C31   C32   S    
C14   C15   A    
O13   C39   S    
C5    H8    S    
C16   H11   S    
C11   N4    S    
