data_mof_unit_16500.cif
_audit_creation_date              2013-03-05T16:04:00-0500
_audit_creation_method            fapswitch 2.2
_symmetry_space_group_name_H-M    P1
_symmetry_Int_Tables_number       1
_space_group_crystal_system       triclinic
_cell_length_a                    8.19114
_cell_length_b                    14.356583
_cell_length_c                    26.988165
_cell_angle_alpha                 93.877494
_cell_angle_beta                  92.542794
_cell_angle_gamma                 88.245162
_cell_volume                      3162.12361292

loop_
_atom_site_label
_atom_site_type_symbol
_atom_site_description
_atom_site_fract_x
_atom_site_fract_y
_atom_site_fract_z
_atom_type_partial_charge
P1    P     P_3+3 0.090020 0.577590 0.608380 0.480739
O1    O     O_2   0.918080 0.549800 0.616640 -0.361861
O2    O     O_3   0.150070 0.549720 0.556460 -0.404767
O3    O     O_3   0.658250 0.379560 0.591530 -0.390350
O4    O     O_2   0.832711 0.425736 0.674076 -0.401791
O5    O     O_3   0.080505 0.699341 0.618841 -0.553371
O6    O     O_3   0.631769 0.291899 0.682533 -0.516257
H1    H     H_    0.740045 0.218149 0.623075 0.170775
C1    C     C_3   0.614769 0.126551 0.667084 -0.952599
H2    H     H_    0.609743 0.069724 0.637051 0.230785
H3    H     H_    0.723114 0.113969 0.692215 0.276718
P2    P     P_3+3 0.614340 0.285150 0.467650 0.460163
P3    P     P_3+3 0.080187 0.211285 0.573112 0.431991
O7    O     O_2   0.790750 0.271170 0.482550 -0.383805
O8    O     O_3   0.062300 0.331660 0.568480 -0.392039
O9    O     O_2   0.935246 0.166430 0.542705 -0.391031
O10   O     O_3   0.606921 0.255014 0.403738 -0.567988
O11   O     O_3   0.049900 0.185977 0.634436 -0.524766
C2    C     C_3   0.137479 0.249563 0.666408 0.394357
H4    H     H_    0.097690 0.322680 0.660366 0.136489
H5    H     H_    0.270719 0.240804 0.661009 0.055982
C3    C     C_3   0.104491 0.231457 0.719805 -0.882082
H6    H     H_    0.971197 0.237924 0.725779 0.274234
H7    H     H_    0.149460 0.160202 0.728136 0.253335
C4    C     C_3   0.162835 0.259051 0.423917 0.420147
H8    H     H_    0.287299 0.282032 0.434747 0.096146
H9    H     H_    0.079846 0.277036 0.454713 0.130177
C5    C     C_3   0.166165 0.153569 0.413293 -0.954279
H10   H     H_    0.256364 0.133072 0.384721 0.276050
H11   H     H_    0.200651 0.118003 0.447536 0.219544
H12   H     H_    0.043210 0.130425 0.399514 0.264801
Ba1   Ba    Ba6+2 0.849670 0.455410 0.524690 1.542791
C6    C     C_3   0.031925 0.740635 0.574971 0.428929
H13   H     H_    0.908226 0.718141 0.563059 0.092349
H14   H     H_    0.117213 0.721490 0.544999 0.134755
C7    C     C_3   0.030553 0.846255 0.585112 -0.970017
H15   H     H_    0.938243 0.867977 0.612849 0.277687
H16   H     H_    0.000215 0.881487 0.550490 0.224552
H17   H     H_    0.153081 0.868718 0.599709 0.253910
C8    C     C_3   0.675574 0.324378 0.378266 0.405171
H18   H     H_    0.792350 0.347080 0.396597 0.110010
H19   H     H_    0.588115 0.384713 0.376355 0.101322
C9    C     C_3   0.708779 0.283673 0.325960 -0.906390
H20   H     H_    0.787865 0.219603 0.327892 0.287579
H21   H     H_    0.772260 0.334218 0.304941 0.218056
H22   H     H_    0.591710 0.265591 0.305732 0.260980
P4    P     P_3+3 0.099670 0.422330 0.391610 0.480111
O12   O     O_2   0.271610 0.450170 0.383330 -0.361478
O13   O     O_3   0.039630 0.450200 0.443530 -0.405412
O14   O     O_3   0.531440 0.620360 0.408460 -0.377084
O15   O     O_3   0.108621 0.300702 0.380648 -0.549229
P5    P     P_3+3 0.113947 0.789398 0.425983 0.437538
O16   O     O_3   0.643350 0.612530 0.521650 -0.378279
O17   O     O_3   0.127390 0.668260 0.431510 -0.394985
O18   O     O_2   0.259221 0.833062 0.456759 -0.395966
O19   O     O_3   0.150258 0.813295 0.364833 -0.524069
Ba2   Ba    Ba6+2 0.340150 0.544510 0.475310 1.543272
P6    P     P_3+3 0.657526 0.398647 0.656216 0.469986
C10   C     C_3   0.627379 0.220112 0.644528 0.464440
H23   H     H_    0.519114 0.230167 0.619230 0.036201
H24   H     H_    0.502198 0.125807 0.688510 0.260439
O20   O     O_3   0.546340 0.387390 0.478340 -0.385709
C11   C     C_3   0.523136 0.691974 0.623038 0.419802
H25   H     H_    0.403510 0.670582 0.605771 0.108763
H26   H     H_    0.608981 0.630653 0.623574 0.099009
C12   C     C_3   0.495466 0.729891 0.676118 -0.951036
H27   H     H_    0.416733 0.794265 0.675867 0.274670
H28   H     H_    0.433612 0.677835 0.696676 0.225211
H29   H     H_    0.614361 0.746519 0.695586 0.264018
P7    P     P_3+3 0.584155 0.729844 0.533902 0.423928
O21   O     O_2   0.398940 0.728800 0.517420 -0.376573
O22   O     O_3   0.590802 0.762228 0.597574 -0.575585
H30   H     H_    0.168075 0.283392 0.745409 0.253756
C13   C     C_3   0.067982 0.748076 0.332454 0.403460
H31   H     H_    0.107396 0.675557 0.339840 0.125395
H32   H     H_    0.933770 0.756231 0.336001 0.087084
C14   C     C_3   0.109025 0.764048 0.279398 -0.772428
H33   H     H_    0.243243 0.757944 0.275308 0.257919
H34   H     H_    0.050044 0.710752 0.253574 0.238980
H35   H     H_    0.064988 0.834634 0.269583 0.284967
P8    P     P_3+3 0.533519 0.604876 0.343681 0.478279
C15   C     C_3   0.566307 0.783037 0.357768 0.279598
H36   H     H_    0.685550 0.771925 0.377796 0.023462
O23   O     O_2   0.362019 0.571739 0.325582 -0.405088
O24   O     O_3   0.545461 0.714056 0.318699 -0.500231
H37   H     H_    0.466475 0.781686 0.384189 0.146285
C16   C     C_3   0.560614 0.879884 0.337488 -0.100460
H38   H     H_    0.562393 0.933250 0.369360 0.089919
H39   H     H_    0.444961 0.890435 0.315200 0.153605
C17   C     C_R   0.023487 0.429020 0.181052 0.533863
O25   O     O_2   0.059462 0.361277 0.204796 -0.584127
N1    N     N_R   0.938956 0.504739 0.203341 -0.164840
C18   C     C_R   0.893694 0.579987 0.175472 0.507641
C19   C     C_2   0.740071 0.524939 0.269269 -0.143715
C20   C     C_3   0.695686 0.519249 0.322983 0.159158
C21   C     C_1   0.980403 0.482454 0.343245 0.288439
C22   C     C_2   0.021138 0.480220 0.295822 -0.208134
C23   C     C_2   0.895667 0.504469 0.255548 0.096809
C24   C     C_R   0.020187 0.504249 0.102123 -0.062054
C25   C     C_R   0.066108 0.428283 0.130617 -0.061956
C26   C     C_R   0.152694 0.352484 0.108016 -0.080666
C27   C     C_R   0.933110 0.580430 0.124872 -0.058404
C28   C     C_2   0.845715 0.526639 0.357388 -0.482858
H40   H     H_    0.145280 0.461406 0.285995 0.192758
H41   H     H_    0.189776 0.292818 0.128789 0.172045
C29   C     C_2   0.351016 0.480058 0.642022 -0.473406
C30   C     C_R   0.190772 0.426458 0.977420 0.042110
C31   C     C_R   0.050654 0.580058 0.971198 0.042912
C32   C     C_R   0.140536 0.503037 0.948960 0.084051
C33   C     C_R   0.281324 0.352143 0.953456 -0.201954
C34   C     C_R   0.319874 0.352674 0.903704 -0.083054
C35   C     C_R   0.270607 0.427260 0.875150 -0.051891
C36   C     C_R   0.180805 0.502627 0.897660 -0.063718
C37   C     C_R   0.131757 0.577710 0.868889 -0.059141
C38   C     C_R   0.173538 0.576799 0.818387 0.529040
N2    N     N_R   0.260895 0.501933 0.796379 -0.163036
C39   C     C_R   0.309622 0.427658 0.824504 0.510056
C40   C     C_2   0.458914 0.485395 0.730122 -0.158721
C41   C     C_3   0.501931 0.489090 0.676029 0.165417
C42   C     C_1   0.213574 0.520280 0.656636 0.287527
C43   C     C_2   0.173878 0.521453 0.704009 -0.210263
C44   C     C_2   0.302455 0.501860 0.744051 0.109665
O26   O     O_2   0.386236 0.361270 0.805414 -0.590321
C45   C     C_R   0.149492 0.426536 0.028505 0.041281
C46   C     C_R   0.060710 0.503889 0.050845 0.084985
C47   C     C_R   0.011732 0.580837 0.022501 0.041174
C48   C     C_R   0.193553 0.351500 0.058384 -0.200847
H42   H     H_    0.556613 0.475325 0.757921 0.164187
H43   H     H_    0.389443 0.293654 0.887594 0.169117
H44   H     H_    0.325686 0.291827 0.972040 0.127914
H45   H     H_    0.259529 0.289860 0.044646 0.128933
O27   O     O_2   0.819680 0.647205 0.194733 -0.559095
C49   C     C_R   0.887097 0.655975 0.096624 -0.070593
H46   H     H_    0.643746 0.538225 0.241498 0.167275
H47   H     H_    0.820491 0.715894 0.113006 0.178535
C50   C     C_R   0.002587 0.653917 0.940950 -0.200354
C51   C     C_R   0.042400 0.652661 0.891226 -0.086520
O28   O     O_2   0.134114 0.643595 0.794291 -0.590336
C52   C     C_R   0.925142 0.656341 0.046833 -0.203404
H48   H     H_    0.932977 0.714462 0.954339 0.127871
H49   H     H_    0.002179 0.711405 0.870159 0.168369
H50   H     H_    0.048720 0.536717 0.714023 0.189102
H51   H     H_    0.884661 0.717816 0.028623 0.129414
H52   H     H_    0.845091 0.569899 0.391997 0.169930
H53   H     H_    0.355487 0.441626 0.605999 0.171665
C53   C     C_R   0.691300 0.064701 0.472924 -0.102940
C54   C     C_R   0.511746 0.198910 0.502262 0.270311
C55   C     C_R   0.373992 0.230218 0.527780 -0.538628
C56   C     C_R   0.274804 0.167628 0.548697 0.255489
C57   C     C_R   0.320117 0.073372 0.548274 -0.305727
C58   C     C_R   0.461589 0.040290 0.524448 0.050261
C59   C     C_R   0.556511 0.102095 0.499569 -0.006523
H54   H     H_    0.338242 0.303472 0.528772 0.175458
C60   C     C_R   0.640694 0.908559 0.498320 -0.000690
C61   C     C_R   0.735805 0.969292 0.472917 0.033832
C62   C     C_R   0.684734 0.812514 0.497222 0.242581
C63   C     C_R   0.819920 0.778565 0.471540 -0.532567
C64   C     C_R   0.920343 0.838715 0.449531 0.251765
C65   C     C_R   0.877303 0.933953 0.449176 -0.253754
C66   C     C_R   0.505237 0.945389 0.524132 -0.121448
H55   H     H_    0.243038 0.025805 0.565426 0.160305
H56   H     H_    0.955378 0.980172 0.431531 0.169130
H57   H     H_    0.853244 0.705031 0.471500 0.171706
H58   H     H_    0.763984 0.108667 0.452231 0.171115
H59   H     H_    0.430839 0.900851 0.544021 0.168185
N3    N     N_R   0.699749 0.891901 0.306836 0.263511
O29   O     O_R   0.710089 0.845565 0.263913 -0.320896
O30   O     O_R   0.808909 0.953283 0.320865 -0.401921

loop_
_geom_bond_atom_site_label_1
_geom_bond_atom_site_label_2
_geom_bond_distance
_ccdc_geom_bond_type
C12   H28   1.107841 S    
C16   H38   1.112447 S    
C11   H26   1.110217 S    
C63   C64   1.389760 A    
C29   C41   1.510054 S    
C54   C55   1.394838 A    
C50   H48   1.075493 S    
C28   H52   1.086256 S    
C37   C38   1.419026 A    
N1    C23   1.468348 S    
Ba2   O20   2.779702 S    
P4    O13   1.529270 S    
C14   H33   1.110005 S    
C31   C32   1.422864 A    
C4    C5    1.521729 S    
C29   H53   1.086438 S    
C13   H32   1.109677 S    
O4    P6    1.546015 D    
C1    H24   1.110624 S    
C30   C45   1.433956 A    
P2    C54   1.844305 S    
N1    C18   1.389551 Am   
C62   C63   1.390498 A    
C2    H5    1.109688 S    
O11   C2    1.403987 S    
H1    C10   1.109637 S    
C35   C39   1.417881 A    
P8    C20   1.860282 S    
C12   H29   1.110575 S    
C19   C23   1.360909 D    
C15   C16   1.526968 S    
C6    C7    1.522295 S    
O13   Ba2   2.913429 S    
N2    C39   1.388897 Am   
O1    Ba1   2.788692 S    
P1    O1    1.505563 D    
C40   C44   1.360817 D    
C37   C51   1.400064 A    
C17   C25   1.419384 A    
C33   C34   1.393488 A    
P6    C41   1.860501 S    
C26   C48   1.394051 A    
C40   C41   1.521660 S    
C52   H51   1.075492 S    
C34   H43   1.083649 S    
C8    C9    1.523461 S    
C53   C61   1.406593 A    
C2    H4    1.110037 S    
C20   C28   1.508978 S    
C13   C14   1.519104 S    
P2    O10   1.748550 S    
P4    C21   1.841428 S    
P7    O21   1.562166 D    
C18   O27   1.222022 D    
C1    H2    1.110840 S    
C63   H57   1.082228 S    
O6    P6    1.754410 S    
C60   C62   1.413240 A    
P5    O18   1.544809 D    
C32   C36   1.436979 A    
C8    H19   1.109475 S    
C12   H27   1.110870 S    
C11   C12   1.521726 S    
C10   H23   1.106878 S    
P2    Ba1   3.402458 S    
N3    O30   1.300965 A    
C30   C32   1.423535 A    
N3    O29   1.301012 A    
C19   C20   1.518213 S    
C40   H42   1.085588 S    
Ba1   Ba2   4.535827 S    
O16   P7    1.752129 S    
O6    C10   1.404108 S    
C35   C36   1.408156 A    
P5    O17   1.755228 S    
C22   C23   1.512957 S    
C14   H34   1.106910 S    
P5    C64   1.838443 S    
C47   C52   1.416780 A    
C26   H41   1.083623 S    
O19   C13   1.403655 S    
C13   H31   1.108902 S    
C61   C65   1.413229 A    
P1    O5    1.751548 S    
P4    O12   1.505893 D    
O12   Ba2   2.789259 S    
C2    C3    1.518804 S    
C55   C56   1.392917 A    
C24   C46   1.437015 A    
O16   Ba2   2.897155 S    
P4    O15   1.751053 S    
C4    H8    1.102173 S    
C15   H37   1.110013 S    
C53   H58   1.079333 S    
C7    H17   1.110885 S    
P1    Ba1   3.366799 S    
P1    O2    1.529299 S    
P1    C42   1.836926 S    
C9    H20   1.111514 S    
C4    O15   1.396635 S    
C60   C66   1.406699 A    
P4    Ba2   3.367573 S    
P2    O20   1.566807 S    
C17   N1    1.387599 Am   
C24   C25   1.408880 A    
C38   O28   1.222105 D    
C58   C59   1.418390 A    
C21   C22   1.334937 D    
C6    H13   1.100633 S    
C60   C61   1.416701 A    
C65   H56   1.082506 S    
C66   H59   1.080575 S    
Ba2   O21   2.854190 S    
C9    H21   1.106214 S    
C43   C44   1.509346 S    
O3    Ba1   2.742169 S    
N2    C44   1.467209 S    
C45   C48   1.417347 A    
C53   C59   1.416413 A    
P3    O11   1.748136 S    
C8    H18   1.105091 S    
P2    O7    1.493854 D    
C49   C52   1.393229 A    
C1    H3    1.110658 S    
C46   C47   1.423517 A    
C30   C33   1.416869 A    
C3    H7    1.110578 S    
C21   C28   1.314154 D    
C55   H54   1.081897 S    
C7    H16   1.107387 S    
O2    Ba2   2.738524 S    
Ba1   O16   2.780337 S    
P8    O23   1.544979 D    
C42   C43   1.332003 D    
C36   C37   1.409000 A    
C14   H35   1.110237 S    
C57   H55   1.083664 S    
C51   H49   1.083633 S    
C5    H10   1.110675 S    
C34   C35   1.400302 A    
C29   C42   1.313477 D    
C57   C58   1.404635 A    
O14   Ba2   2.741708 S    
C43   H50   1.083922 S    
C5    H12   1.110665 S    
O7    Ba1   2.853997 S    
C50   C51   1.393824 A    
O8    Ba1   2.738311 S    
C18   C27   1.417585 A    
C31   C50   1.417323 A    
C4    H9    1.108995 S    
C15   O24   1.405284 S    
C19   H46   1.085495 S    
O5    C6    1.396518 S    
C58   C66   1.397509 A    
P3    O8    1.742348 S    
C54   C59   1.424483 A    
C39   O26   1.222005 D    
C27   C49   1.400303 A    
P3    C56   1.828774 S    
C56   C57   1.391607 A    
C17   O25   1.222021 D    
C64   C65   1.402067 A    
C5    H11   1.107454 S    
C25   C26   1.400220 A    
C6    H14   1.107352 S    
C33   H44   1.075514 S    
O2    Ba1   2.912537 S    
C9    H22   1.111119 S    
C48   H45   1.075514 S    
Ba1   O13   2.738156 S    
C22   H40   1.083845 S    
Ba1   O20   2.898157 S    
C11   H25   1.109129 S    
C16   N3    1.458747 S    
P5    O19   1.748170 S    
C24   C27   1.407879 A    
C11   O22   1.399483 S    
C7    H15   1.110649 S    
C15   H36   1.107662 S    
P3    O9    1.544843 D    
O3    P6    1.748969 S    
C49   H47   1.083674 S    
C16   H39   1.111378 S    
C3    H6    1.110902 S    
P7    C62   1.832622 S    
P7    O22   1.748472 S    
C3    H30   1.107641 S    
C31   C47   1.433764 A    
C1    C10   1.519917 S    
O10   C8    1.393446 S    
P8    O24   1.754760 S    
C38   N2    1.387196 Am   
O14   P8    1.748150 S    
C45   C46   1.422855 A    
O17   Ba2   2.739071 S    
