data_mof_unit_65507.cif
_audit_creation_date              2012-12-10T19:44:04-0500
_audit_creation_method            fapswitch 2.2
_symmetry_space_group_name_H-M    P1
_symmetry_Int_Tables_number       1
_space_group_crystal_system       triclinic
_cell_length_a                    30.647185
_cell_length_b                    30.5201
_cell_length_c                    23.553836
_cell_angle_alpha                 89.962097
_cell_angle_beta                  131.0931
_cell_angle_gamma                 89.953691
_cell_volume                      16603.6249726

loop_
_atom_site_label
_atom_site_type_symbol
_atom_type_description
_atom_site_fract_x
_atom_site_fract_y
_atom_site_fract_z
_atom_type_partial_charge
C1    C     C_R   0.810060 0.810085 0.500372 0.871471
C2    C     C_1   0.521656 0.755775 0.033232 0.025961
C3    C     C_R   0.907991 0.094880 0.498593 -0.147827
C4    C     C_R   0.591758 0.598830 0.442269 0.124530
C5    C     C_R   0.351909 0.604766 0.434289 0.150964
C6    C     C_R   0.152147 0.089014 0.544960 0.123667
C7    C     C_R   0.848320 0.097576 0.440411 0.145364
C8    C     C_3   0.565211 0.582476 0.366009 -0.466651
C9    C     C_3   0.301320 0.574653 0.385310 -0.461653
C10   C     C_3   0.197154 0.084374 0.628576 -0.459908
C11   C     C_3   0.803319 0.063156 0.410788 -0.480301
C12   C     C_3   0.602055 0.617378 0.367233 -0.408326
C13   C     C_1   0.983537 0.251612 0.966172 0.012016
C14   C     C_3   0.266241 0.608519 0.387766 -0.482964
C15   C     C_3   0.231842 0.118678 0.626307 -0.510719
C16   C     C_3   0.768820 0.097368 0.413653 -0.456977
C17   C     C_R   0.439792 0.560466 0.499662 0.875896
C18   C     C_R   0.560141 0.560329 0.500369 0.889743
C19   C     C_R   0.939539 0.060080 0.499649 0.878675
C20   C     C_R   0.059876 0.060503 0.500043 0.899427
C21   C     C_R   0.938679 0.940789 0.499726 0.882830
C22   C     C_R   0.059971 0.939791 0.500414 0.907731
C23   C     C_R   0.439990 0.439887 0.499705 0.872533
C24   C     C_1   0.017731 0.251362 0.033557 0.026547
C25   C     C_R   0.561249 0.440688 0.500339 0.888247
C26   C     C_R   0.823402 0.749814 0.646764 0.863119
C27   C     C_R   0.176589 0.749879 0.353257 0.886423
C28   C     C_R   0.323431 0.249832 0.646762 0.873266
C29   C     C_R   0.676615 0.249861 0.353254 0.854740
C30   C     C_R   0.419979 0.795090 0.845538 0.135833
C31   C     C_R   0.580001 0.794658 0.153923 0.145253
C32   C     C_R   0.912630 0.291289 0.846967 0.142171
C33   C     C_R   0.083835 0.291052 0.153152 0.148799
C34   C     C_R   0.376259 0.793716 0.766126 0.028334
C35   C     C_R   0.836675 0.849985 0.437859 -0.027784
C36   C     C_R   0.617866 0.793434 0.232918 -0.011488
C37   C     C_R   0.871129 0.290957 0.767294 0.021524
C38   C     C_R   0.122846 0.290918 0.232227 -0.009468
C39   C     C_R   0.362317 0.752797 0.728639 -0.183746
C40   C     C_R   0.637268 0.752416 0.270789 -0.189064
C41   C     C_R   0.862788 0.251794 0.728517 -0.176975
C42   C     C_R   0.135858 0.250985 0.271238 -0.184451
C43   C     C_R   0.387908 0.713840 0.770679 0.349636
C44   C     C_R   0.619524 0.713356 0.228682 0.369973
C45   C     C_R   0.892998 0.213328 0.769047 0.351172
C46   C     C_R   0.117651 0.832464 0.508647 0.029676
C47   C     C_R   0.109989 0.211696 0.230779 0.357498
C48   C     C_R   0.428746 0.715608 0.848693 -0.229453
C49   C     C_R   0.581847 0.715197 0.150538 -0.240769
C50   C     C_R   0.932444 0.213926 0.847196 -0.227690
C51   C     C_R   0.071282 0.212343 0.152433 -0.239857
C52   C     C_R   0.376856 0.333508 0.482177 0.014006
C53   C     C_R   0.661979 0.348879 0.561332 -0.031917
C54   C     C_R   0.842112 0.843762 0.500619 -0.034431
C55   C     C_R   0.159912 0.843818 0.505265 -0.086901
C56   C     C_R   0.340940 0.344037 0.496937 -0.097357
C57   C     C_R   0.190064 0.810285 0.500215 0.910367
C58   C     C_R   0.657903 0.343713 0.499462 -0.034134
C59   C     C_R   0.869615 0.875647 0.557261 -0.235430
C60   C     C_R   0.174717 0.888189 0.510691 -0.232249
C61   C     C_R   0.332176 0.388242 0.503884 -0.195495
C62   C     C_R   0.631554 0.376338 0.443979 -0.233364
C63   C     C_R   0.900349 0.909552 0.557113 0.095716
C64   C     C_R   0.141951 0.920798 0.509402 0.087480
C65   C     C_R   0.364281 0.421019 0.504861 0.089395
C66   C     C_R   0.600694 0.410120 0.444146 0.102285
C67   C     C_R   0.901643 0.911042 0.498201 -0.085008
C68   C     C_R   0.310248 0.310283 0.500441 0.907919
C69   C     C_R   0.094746 0.907972 0.502818 -0.032365
C70   C     C_R   0.404956 0.408621 0.497831 -0.053793
C71   C     C_R   0.598198 0.410783 0.501987 -0.082990
C72   C     C_R   0.864877 0.883808 0.435853 0.023481
C73   C     C_R   0.086365 0.864196 0.509203 -0.028551
C74   C     C_R   0.407474 0.365600 0.480965 -0.009280
C75   C     C_R   0.633677 0.382622 0.563435 0.023464
C76   C     C_3   0.874851 0.858121 0.391354 -0.471224
C77   C     C_3   0.032281 0.837523 0.462942 -0.515069
C78   C     C_3   0.458984 0.336768 0.516465 -0.511558
C79   C     C_R   0.689910 0.310069 0.499560 0.868315
C80   C     C_3   0.621493 0.356085 0.604891 -0.470101
C81   C     C_3   0.844412 0.820112 0.394651 0.254284
C82   C     C_3   0.066623 0.802357 0.461298 0.293519
C83   C     C_3   0.425417 0.301131 0.518456 0.298820
C84   C     C_3   0.652159 0.318231 0.601645 0.257660
C85   C     C_R   0.676938 0.750488 0.353320 0.910448
C86   C     C_R   0.322738 0.750631 0.646442 0.902791
C87   C     C_R   0.176732 0.250217 0.353515 0.918987
C88   C     C_R   0.822811 0.250493 0.646375 0.910263
C89   C     C_R   0.048009 0.721059 0.152686 -0.154330
C90   C     C_R   0.445129 0.755700 0.885669 0.011687
C91   C     C_R   0.952076 0.720965 0.847524 -0.161314
C92   C     C_R   0.548981 0.220234 0.152627 -0.161582
C93   C     C_R   0.452031 0.220743 0.847416 -0.155137
C94   C     C_R   0.087104 0.721482 0.231054 -0.162874
C95   C     C_R   0.912997 0.721376 0.769145 -0.189169
C96   C     C_R   0.587983 0.220672 0.230996 -0.191952
C97   C     C_R   0.412865 0.221160 0.769038 -0.166770
C98   C     C_R   0.135313 0.749486 0.270762 -0.040350
C99   C     C_R   0.864615 0.749324 0.729260 -0.037390
C100  C     C_R   0.635427 0.249430 0.270754 -0.039085
C101  C     C_R   0.561957 0.755399 0.113470 0.023164
C102  C     C_R   0.364746 0.249375 0.729256 -0.040333
C103  C     C_R   0.143800 0.777017 0.230928 -0.188988
C104  C     C_R   0.855877 0.776749 0.768918 -0.193569
C105  C     C_R   0.643262 0.277678 0.230967 -0.195169
C106  C     C_R   0.356392 0.277093 0.769015 -0.191118
C107  C     C_R   0.104630 0.776513 0.152566 -0.154332
C108  C     C_R   0.895022 0.776255 0.847274 -0.157649
C109  C     C_R   0.604183 0.277163 0.152609 -0.155821
C110  C     C_R   0.395627 0.276596 0.847373 -0.154868
C111  C     C_R   0.056899 0.748554 0.113724 0.152187
C112  C     C_R   0.942497 0.252449 0.885776 0.011893
C113  C     C_R   0.942979 0.748405 0.886304 0.154877
C114  C     C_R   0.557200 0.248466 0.113716 0.155505
C115  C     C_R   0.443292 0.248453 0.886299 0.152792
C116  C     C_1   0.016811 0.748252 0.033668 -0.056498
C117  C     C_1   0.983098 0.748200 0.966362 -0.059205
C118  C     C_1   0.517152 0.248199 0.033662 -0.059836
C119  C     C_1   0.483444 0.248191 0.966356 -0.056927
C120  C     C_R   0.624022 0.628947 0.443437 0.043305
C121  C     C_R   0.320117 0.635363 0.436187 0.071529
C122  C     C_R   0.183352 0.120149 0.542919 0.115784
C123  C     C_R   0.058228 0.251668 0.113912 0.023486
C124  C     C_R   0.817075 0.128519 0.442830 0.071330
C125  C     C_R   0.659105 0.657455 0.502986 -0.080205
C126  C     C_R   0.344695 0.658054 0.502214 -0.110121
C127  C     C_R   0.155561 0.156322 0.495484 -0.100446
C128  C     C_R   0.844985 0.157841 0.502590 -0.116470
C129  C     C_R   0.662111 0.653988 0.565186 0.072795
C130  C     C_R   0.404751 0.654818 0.563894 0.079137
C131  C     C_R   0.094658 0.158118 0.441306 0.107124
C132  C     C_R   0.906182 0.159369 0.556319 0.089835
C133  C     C_R   0.690153 0.690060 0.499979 0.925272
C134  C     C_1   0.487100 0.755815 0.965926 0.009819
C135  C     C_R   0.310623 0.690070 0.501249 0.884954
C136  C     C_R   0.189964 0.189852 0.499790 0.903624
C137  C     C_R   0.811081 0.190023 0.502054 0.896721
C138  C     C_R   0.629395 0.621477 0.564694 -0.260350
C139  C     C_R   0.436497 0.623084 0.562188 -0.174687
C140  C     C_R   0.063162 0.125730 0.442782 -0.234535
C141  C     C_R   0.937378 0.127203 0.554442 -0.181943
C142  C     C_R   0.593335 0.593578 0.501844 -0.119385
C143  C     C_R   0.408848 0.595944 0.498878 -0.156460
C144  C     C_R   0.092407 0.093018 0.498401 -0.121763
Cl1   Cl    Cl    0.892449 0.775228 0.449011 -0.566431
Cl2   Cl    Cl    0.041583 0.793899 0.368817 -0.576835
Cl3   Cl    Cl    0.457639 0.286636 0.612573 -0.567190
Cl4   Cl    Cl    0.603725 0.274218 0.544385 -0.563554
Cl5   Cl    Cl    0.371051 0.661907 0.727987 -0.615401
Cl6   Cl    Cl    0.641818 0.661056 0.270792 -0.637150
Cl7   Cl    Cl    0.883339 0.163633 0.723819 -0.626161
Cl8   Cl    Cl    0.123246 0.161195 0.276165 -0.618236
H1    H     H_    0.010927 0.699382 0.122530 0.142416
H2    H     H_    0.818906 0.798548 0.739528 0.163481
H3    H     H_    0.679465 0.300146 0.260256 0.163157
H4    H     H_    0.319652 0.299122 0.739702 0.163892
H5    H     H_    0.111505 0.797881 0.122313 0.141451
H6    H     H_    0.887969 0.797567 0.877379 0.143670
H7    H     H_    0.610534 0.299107 0.122397 0.143351
H8    H     H_    0.388860 0.298122 0.877562 0.141522
H9    H     H_    0.631730 0.618519 0.612487 0.169436
H10   H     H_    0.481981 0.618793 0.610995 0.180755
H11   H     H_    0.016262 0.127094 0.403069 0.158971
H12   H     H_    0.989325 0.699360 0.877830 0.139768
H13   H     H_    0.984217 0.126818 0.597475 0.175255
H14   H     H_    0.578495 0.548359 0.367357 0.198599
H15   H     H_    0.287362 0.570958 0.328470 0.207615
H16   H     H_    0.181879 0.095729 0.657804 0.215960
H17   H     H_    0.782522 0.053133 0.352493 0.208763
H18   H     H_    0.517912 0.589077 0.323590 0.215353
H19   H     H_    0.307244 0.543450 0.413926 0.191355
H20   H     H_    0.217761 0.051440 0.645810 0.197689
H21   H     H_    0.818825 0.035664 0.451144 0.195658
H22   H     H_    0.636517 0.603304 0.369272 0.249592
H23   H     H_    0.512484 0.197977 0.122429 0.139345
H24   H     H_    0.231999 0.624324 0.332338 0.201437
H25   H     H_    0.236910 0.149929 0.654392 0.199770
H26   H     H_    0.728056 0.107049 0.357015 0.200646
H27   H     H_    0.576006 0.644242 0.325802 0.225072
H28   H     H_    0.251994 0.597023 0.418159 0.223358
H29   H     H_    0.272341 0.105500 0.641960 0.214061
H30   H     H_    0.764307 0.089795 0.455774 0.225634
H31   H     H_    0.448334 0.685517 0.880741 0.189334
H32   H     H_    0.567606 0.685047 0.118464 0.189009
H33   H     H_    0.955702 0.184214 0.878072 0.188729
H34   H     H_    0.489054 0.198913 0.877640 0.142332
H35   H     H_    0.051024 0.182111 0.121454 0.189033
H36   H     H_    0.869056 0.873049 0.602690 0.144220
H37   H     H_    0.209802 0.897552 0.512709 0.168500
H38   H     H_    0.302375 0.397386 0.511909 0.177929
H39   H     H_    0.633058 0.374409 0.399326 0.144739
H40   H     H_    0.849922 0.871573 0.333598 0.181930
H41   H     H_    0.019755 0.827518 0.495902 0.197326
H42   H     H_    0.466400 0.329357 0.477180 0.196042
H43   H     H_    0.645382 0.368507 0.662963 0.183260
H44   H     H_    0.921535 0.852687 0.422742 0.218864
H45   H     H_    0.079570 0.699952 0.260412 0.170715
H46   H     H_    0.997035 0.852800 0.407362 0.240211
H47   H     H_    0.497642 0.348804 0.572901 0.235990
H48   H     H_    0.574440 0.351089 0.571363 0.219316
H49   H     H_    0.802673 0.810863 0.338801 0.109878
H50   H     H_    0.072581 0.771814 0.491463 0.127094
H51   H     H_    0.414207 0.272781 0.481415 0.123335
H52   H     H_    0.693082 0.308091 0.657764 0.104898
H53   H     H_    0.482730 0.839634 0.914435 0.190750
H54   H     H_    0.418108 0.862848 0.851103 0.201300
H55   H     H_    0.538246 0.852414 0.128807 0.202084
H56   H     H_    0.920694 0.699909 0.739915 0.165169
H57   H     H_    0.595341 0.854270 0.132564 0.199889
H58   H     H_    0.967649 0.339318 0.917743 0.192169
H59   H     H_    0.899357 0.356842 0.855293 0.204621
H60   H     H_    0.052912 0.353114 0.127282 0.202919
H61   H     H_    0.108299 0.344318 0.128908 0.201302
H62   H     H_    0.672484 0.699218 0.635646 0.194557
H63   H     H_    0.728052 0.663535 0.676383 0.187276
H64   H     H_    0.412337 0.677915 0.650498 0.232495
H65   H     H_    0.430123 0.714253 0.614277 0.202477
H66   H     H_    0.074299 0.189641 0.351330 0.220398
H67   H     H_    0.580997 0.198547 0.260317 0.163872
H68   H     H_    0.020694 0.190289 0.353412 0.184695
H69   H     H_    0.921714 0.191041 0.643679 0.230589
H70   H     H_    0.929795 0.222221 0.591446 0.206464
H71   H     H_    0.324823 0.844194 0.745169 0.180320
H72   H     H_    0.311703 0.828321 0.668434 0.191371
H73   H     H_    0.682668 0.834166 0.313159 0.184771
H74   H     H_    0.621098 0.837347 0.300391 0.220808
H75   H     H_    0.809920 0.334074 0.739962 0.174368
H76   H     H_    0.809313 0.326836 0.669596 0.193730
H77   H     H_    0.194800 0.327094 0.309424 0.179777
H78   H     H_    0.420276 0.199471 0.739730 0.170796
H79   H     H_    0.136921 0.339247 0.301760 0.216324
H80   H     H_    0.910506 0.971664 0.592837 0.179304
H81   H     H_    0.927083 0.934301 0.656634 0.187505
H82   H     H_    0.168305 0.979484 0.561428 0.175259
H83   H     H_    0.188531 0.970091 0.511537 0.190860
H84   H     H_    0.382975 0.487252 0.517213 0.177501
H85   H     H_    0.313694 0.474441 0.470411 0.173411
H86   H     H_    0.592054 0.472640 0.411078 0.168734
H87   H     H_    0.575977 0.436314 0.346429 0.184047
H88   H     H_    0.180607 0.798886 0.260184 0.163481
N1    N     N_3   0.438870 0.835780 0.886712 -0.442786
N2    N     N_3   0.637406 0.834179 0.273188 -0.466353
N3    N     N_3   0.836980 0.329825 0.727934 -0.456867
N4    N     N_3   0.149867 0.331332 0.271599 -0.466604
N5    N     N_3   0.930893 0.941439 0.616627 -0.414452
N6    N     N_3   0.154218 0.966446 0.510755 -0.447364
N7    N     N_3   0.356311 0.465563 0.516452 -0.435924
N8    N     N_3   0.571301 0.442806 0.385774 -0.421101
N9    N     N_3   0.559519 0.835686 0.114349 -0.447266
N10   N     N_3   0.924858 0.330340 0.889720 -0.442891
N11   N     N_3   0.069967 0.331069 0.112283 -0.452079
N12   N     N_3   0.698466 0.682738 0.628440 -0.453309
N13   N     N_3   0.433549 0.681514 0.629780 -0.441139
N14   N     N_3   0.065553 0.193162 0.387151 -0.425780
N15   N     N_3   0.937343 0.191289 0.615431 -0.441062
N16   N     N_3   0.345465 0.833508 0.725805 -0.452266
O1    O     O_R   0.821670 0.769930 0.500010 -0.561598
O2    O     O_R   0.077130 0.954190 0.562600 -0.631366
O3    O     O_R   0.422870 0.454190 0.437400 -0.624538
O4    O     O_R   0.577130 0.454190 0.562600 -0.624162
O5    O     O_R   0.985440 0.954220 0.562600 -0.594155
O6    O     O_R   0.014560 0.954220 0.437400 -0.606171
O7    O     O_R   0.485440 0.454220 0.562600 -0.608088
O8    O     O_R   0.514560 0.454220 0.437400 -0.596189
O9    O     O_R   0.769920 0.821660 0.500020 -0.642270
O10   O     O_R   0.230080 0.821660 0.499980 -0.637979
O11   O     O_R   0.269920 0.321660 0.500020 -0.643219
O12   O     O_R   0.178330 0.769930 0.499990 -0.603025
O13   O     O_R   0.730080 0.321660 0.499980 -0.639258
O14   O     O_R   0.720420 0.724130 0.389120 -0.553562
O15   O     O_R   0.279580 0.724130 0.610880 -0.570928
O16   O     O_R   0.220420 0.224130 0.389120 -0.574926
O17   O     O_R   0.779580 0.224130 0.610880 -0.566329
O18   O     O_R   0.668670 0.775850 0.389130 -0.644710
O19   O     O_R   0.331330 0.775850 0.610870 -0.628753
O20   O     O_R   0.168670 0.275850 0.389130 -0.635142
O21   O     O_R   0.831330 0.275850 0.610870 -0.629710
O22   O     O_R   0.730060 0.678320 0.499990 -0.611443
O23   O     O_R   0.321670 0.269930 0.500010 -0.594805
O24   O     O_R   0.269940 0.678320 0.500010 -0.599634
O25   O     O_R   0.230060 0.178320 0.499990 -0.602492
O26   O     O_R   0.769940 0.178320 0.500010 -0.600021
O27   O     O_R   0.678300 0.730040 0.500010 -0.613379
O28   O     O_R   0.321700 0.730040 0.499990 -0.634823
O29   O     O_R   0.178300 0.230040 0.500010 -0.607484
O30   O     O_R   0.821700 0.230040 0.499990 -0.638210
O31   O     O_R   0.831300 0.724120 0.610880 -0.624058
O32   O     O_R   0.168700 0.724120 0.389120 -0.610298
O33   O     O_R   0.331300 0.224120 0.610880 -0.610818
O34   O     O_R   0.678330 0.269930 0.499990 -0.562148
O35   O     O_R   0.668700 0.224120 0.389120 -0.623748
O36   O     O_R   0.779550 0.775850 0.610900 -0.624558
O37   O     O_R   0.220450 0.775850 0.389100 -0.624862
O38   O     O_R   0.279550 0.275850 0.610900 -0.628356
O39   O     O_R   0.720450 0.275850 0.389100 -0.625654
O40   O     O_R   0.422810 0.545810 0.437360 -0.621876
O41   O     O_R   0.577190 0.545810 0.562640 -0.629137
O42   O     O_R   0.922810 0.045810 0.437360 -0.623209
O43   O     O_R   0.077190 0.045810 0.562640 -0.631746
O44   O     O_R   0.485380 0.545840 0.562560 -0.622908
O45   O     O_R   0.514620 0.545840 0.437440 -0.622690
O46   O     O_R   0.985380 0.045840 0.562560 -0.622808
O47   O     O_R   0.014620 0.045840 0.437440 -0.613682
O48   O     O_R   0.922870 0.954190 0.437400 -0.629101
Zn1   Zn    Zn3+2 0.784540 0.715450 0.500000 1.064199
Zn2   Zn    Zn3+2 0.541810 0.500000 0.583590 0.974980
Zn3   Zn    Zn3+2 0.958190 0.000000 0.416410 0.979102
Zn4   Zn    Zn3+2 0.041810 0.000000 0.583590 0.973734
Zn5   Zn    Zn3+2 0.215460 0.715450 0.500000 1.033618
Zn6   Zn    Zn3+2 0.284540 0.215450 0.500000 1.039960
Zn7   Zn    Zn3+2 0.715460 0.215450 0.500000 1.052708
Zn8   Zn    Zn3+2 0.715430 0.784520 0.500020 0.956873
Zn9   Zn    Zn3+2 0.284570 0.784520 0.499980 0.962307
Zn10  Zn    Zn3+2 0.215430 0.284520 0.500020 0.966508
Zn11  Zn    Zn3+2 0.784570 0.284520 0.499980 0.957896
Zn12  Zn    Zn3+2 0.458190 0.500000 0.416410 0.970117

loop_
_geom_bond_atom_site_label_1
_geom_bond_atom_site_label_2
_ccdc_geom_bond_type
H64   N13   S    
C51   C123  A    
C20   C144  S    
C66   N8    S    
O19   Zn9   S    
C140  H11   S    
C2    C134  T    
C37   N3    S    
C31   C101  A    
C26   O36   A    
C13   C112  S    
C4    C142  A    
C90   C134  S    
C16   H30   S    
C5    C143  A    
O14   Zn1   S    
O46   Zn4   S    
C85   O18   A    
C89   C94   A    
C80   H43   S    
C77   H41   S    
C131  C140  A    
C27   O32   A    
C25   O4    A    
O48   Zn3   S    
C30   N1    S    
C46   C55   A    
C70   C74   A    
O5    Zn4   S    
C3    C19   S    
O6    Zn3   S    
C88   O21   A    
C22   C69   S    
C30   C90   A    
O3    Zn12  S    
C84   H52   S    
C17   O44   A    
O34   Zn7   S    
C14   C121  S    
C53   C75   A    
C107  H5    S    
C92   H23   S    
C135  O24   A    
C127  C136  S    
C82   H50   S    
C30   C34   A    
O27   Zn8   S    
H73   N2    S    
C133  O27   A    
C44   Cl6   S    
H87   N8    S    
C45   Cl7   S    
C85   O14   A    
O36   Zn8   S    
C49   H32   S    
C23   O7    A    
H60   N11   S    
C58   C79   S    
C137  O26   A    
C11   H17   S    
C55   C57   S    
C91   H12   S    
C9    H19   S    
H72   N16   S    
O23   Zn6   S    
C12   H22   S    
C95   H56   S    
C25   O8    A    
C139  H10   S    
C135  O28   A    
C106  H4    S    
C39   C43   A    
C53   C58   A    
C64   C69   A    
C59   C63   A    
C33   C38   A    
C60   C64   A    
C86   O19   A    
C16   C124  S    
C26   O31   A    
O8    Zn12  S    
H81   N5    S    
C77   C82   S    
C22   O6    A    
C95   C99   A    
C127  C131  A    
C61   C65   A    
C64   N6    S    
C47   Cl8   S    
C10   H16   S    
C18   O41   A    
C126  C130  A    
C31   C36   A    
C103  C107  A    
C14   H28   S    
O45   Zn12  S    
C3    C141  A    
C28   O38   A    
C128  C137  S    
O26   Zn7   S    
O28   Zn9   S    
C79   O13   A    
C53   C84   S    
C45   C50   A    
C86   O15   A    
O21   Zn11  S    
C52   C74   A    
H74   N2    S    
C65   C70   A    
C92   C96   A    
H85   N7    S    
C34   N16   S    
C67   C72   A    
C122  C127  A    
C68   O11   A    
C46   C82   S    
C139  C143  A    
C103  H88   S    
H68   N14   S    
C25   C71   S    
C77   H46   S    
O17   Zn7   S    
O18   Zn8   S    
C26   C99   S    
C93   H34   S    
C48   C90   A    
C23   C70   S    
C27   O37   A    
H53   N1    S    
C136  O29   A    
C78   C83   S    
C16   H26   S    
C54   C59   A    
C63   N5    S    
C62   C66   A    
O35   Zn7   S    
C34   C39   A    
O10   Zn9   S    
H77   N4    S    
C56   C68   S    
C24   C123  S    
C88   O17   A    
C5    C9    S    
C76   H40   S    
C125  C129  A    
C87   O16   A    
C97   H78   S    
C8    C12   S    
H66   N14   S    
C19   O46   A    
C32   C37   A    
C109  C114  A    
O22   Zn1   S    
C113  C117  S    
C105  H3    S    
C57   O10   A    
C115  C119  S    
C15   H25   S    
H54   N1    S    
C6    C144  A    
C109  H7    S    
C93   C97   A    
O32   Zn5   S    
C110  H8    S    
C132  C141  A    
C105  C109  A    
C41   C45   A    
C107  C111  A    
C97   C102  A    
C62   H39   S    
C141  H13   S    
C94   H45   S    
C36   N2    S    
H79   N4    S    
C137  O30   A    
C96   C100  A    
H61   N11   S    
C37   C41   A    
C79   O34   A    
C91   C95   A    
C40   C44   A    
O29   Zn10  S    
H86   N8    S    
C42   C87   S    
O1    Zn1   S    
H58   N10   S    
C46   C73   A    
O37   Zn9   S    
C58   C62   A    
H69   N15   S    
O40   Zn12  S    
C15   C122  S    
C80   C84   S    
C29   O39   A    
H70   N15   S    
C22   O2    A    
C28   O33   A    
C3    C7    A    
C49   C101  A    
C94   C98   A    
C10   H20   S    
C98   C103  A    
C18   O45   A    
C20   O43   A    
C78   H42   S    
C73   C77   S    
C14   H24   S    
C76   H44   S    
H71   N16   S    
C57   O12   A    
C69   C73   A    
C111  C116  S    
H83   N6    S    
O12   Zn5   S    
C4    C8    S    
C124  C128  A    
C99   C104  A    
C55   C60   A    
C35   C54   A    
C130  C139  A    
C82   Cl2   S    
C8    H18   S    
C1    O1    A    
C84   Cl4   S    
C83   H51   S    
C138  C142  A    
C47   C51   A    
C133  O22   A    
C40   C85   S    
C52   C83   S    
C9    C14   S    
C11   C16   S    
C66   C71   A    
O30   Zn11  S    
H65   N13   S    
O25   Zn6   S    
O42   Zn3   S    
C136  O25   A    
H55   N9    S    
O2    Zn4   S    
C126  C135  S    
H62   N12   S    
C61   H38   S    
C78   H47   S    
O20   Zn10  S    
C104  C108  A    
O44   Zn2   S    
C41   C88   S    
C32   C112  A    
C29   C100  S    
C120  C125  A    
C140  C144  A    
O7    Zn2   S    
C6    C10   S    
C48   H31   S    
C81   H49   S    
O13   Zn11  S    
C96   H67   S    
C38   N4    S    
C19   O42   A    
C17   C143  S    
C21   O48   A    
O24   Zn5   S    
H82   N6    S    
H76   N3    S    
C15   H29   S    
C138  H9    S    
H59   N10   S    
O16   Zn6   S    
C51   H35   S    
C130  N13   S    
C74   C78   S    
C56   C61   A    
C39   C86   S    
C104  H2    S    
C110  C115  A    
H57   N9    S    
C44   C49   A    
C108  C113  A    
C27   C98   S    
C5    C121  A    
C7    C124  A    
C72   C76   S    
C35   C81   S    
C131  N14   S    
C68   O23   A    
C7    C11   S    
C31   N9    S    
C100  C105  A    
O15   Zn5   S    
C38   C42   A    
C10   C15   S    
H75   N3    S    
O43   Zn4   S    
C108  H6    S    
C80   H48   S    
C32   N10   S    
C116  C117  T    
H80   N5    S    
C93   C115  A    
C33   N11   S    
C118  C119  T    
C36   C40   A    
C132  N15   S    
O38   Zn10  S    
C129  C138  A    
C60   H37   S    
O11   Zn10  S    
C43   C48   A    
C29   O35   A    
C43   Cl5   S    
C65   N7    S    
C129  N12   S    
C23   O3    A    
C12   C120  S    
C21   C67   S    
H84   N7    S    
O31   Zn1   S    
C128  C132  A    
C63   C67   A    
C11   H21   S    
C20   O47   A    
C9    H15   S    
O47   Zn3   S    
C2    C101  S    
C91   C113  A    
C13   C24   T    
O4    Zn2   S    
C1    C54   S    
C89   H1    S    
O39   Zn11  S    
C50   C112  A    
C59   H36   S    
O9    Zn8   S    
C114  C118  S    
C8    H14   S    
C83   Cl3   S    
C21   O5    A    
C81   Cl1   S    
C87   O20   A    
C6    C122  A    
O41   Zn2   S    
C75   C80   S    
C125  C133  S    
O33   Zn6   S    
C18   C142  S    
C76   C81   S    
C35   C72   A    
C89   C111  A    
C121  C126  A    
C71   C75   A    
H63   N12   S    
C102  C106  A    
C42   C47   A    
C28   C102  S    
C12   H27   S    
C1    O9    A    
C106  C110  A    
C33   C123  A    
C4    C120  A    
C50   H33   S    
C92   C114  A    
C52   C56   A    
C17   O40   A    
