data_mof_unit_46412.cif
_audit_creation_date              2013-03-05T15:50:05-0500
_audit_creation_method            fapswitch 2.2
_symmetry_space_group_name_H-M    P1
_symmetry_Int_Tables_number       1
_space_group_crystal_system       triclinic
_cell_length_a                    18.448785
_cell_length_b                    25.846451
_cell_length_c                    18.223619
_cell_angle_alpha                 89.765532
_cell_angle_beta                  89.894688
_cell_angle_gamma                 90.207497
_cell_volume                      8689.5259591

loop_
_atom_site_label
_atom_site_type_symbol
_atom_site_description
_atom_site_fract_x
_atom_site_fract_y
_atom_site_fract_z
_atom_type_partial_charge
Zn1   Zn    Zn3+2 0.249990 0.293780 0.913250 0.976850
Zn2   Zn    Zn3+2 0.249990 0.706220 0.086750 1.048626
Zn3   Zn    Zn3+2 0.249990 0.706220 0.913250 1.006156
Zn4   Zn    Zn3+2 0.249990 0.293780 0.086750 1.055560
Zn5   Zn    Zn3+2 0.749990 0.793780 0.413250 0.991993
Zn6   Zn    Zn3+2 0.749990 0.206220 0.586750 1.008209
Zn7   Zn    Zn3+2 0.749990 0.206220 0.413250 1.044993
Zn8   Zn    Zn3+2 0.749990 0.793780 0.586750 1.039297
Zn9   Zn    Zn3+2 0.336760 0.206240 0.000000 1.022624
Zn10  Zn    Zn3+2 0.336760 0.793760 0.000000 0.978489
Zn11  Zn    Zn3+2 0.836760 0.706240 0.500000 1.010921
Zn12  Zn    Zn3+2 0.836760 0.293760 0.500000 0.999128
Zn13  Zn    Zn3+2 0.163250 0.206230 0.000000 0.968778
Zn14  Zn    Zn3+2 0.163250 0.793770 0.000000 0.962523
Zn15  Zn    Zn3+2 0.663250 0.706230 0.500000 0.971339
Zn16  Zn    Zn3+2 0.663250 0.293770 0.500000 0.965982
O1    O     O_3   0.249990 0.250010 0.000000 -0.505822
O2    O     O_3   0.249990 0.749990 0.000000 -0.508701
O3    O     O_3   0.749990 0.750010 0.500000 -0.502039
O4    O     O_3   0.749990 0.249990 0.500000 -0.509126
O5    O     O_R   0.335430 0.280650 0.146160 -0.640668
O6    O     O_R   0.335430 0.719350 0.853840 -0.598965
O7    O     O_R   0.335430 0.719350 0.146160 -0.593508
O8    O     O_R   0.335430 0.280650 0.853840 -0.628108
O9    O     O_R   0.835430 0.780650 0.646160 -0.597952
O10   O     O_R   0.835430 0.219350 0.353840 -0.613810
O11   O     O_R   0.835430 0.219350 0.646160 -0.639336
O12   O     O_R   0.835430 0.780650 0.353840 -0.661792
O13   O     O_R   0.164550 0.280640 0.853840 -0.651738
O14   O     O_R   0.164550 0.719360 0.146160 -0.614784
O15   O     O_R   0.164550 0.719360 0.853840 -0.635311
O16   O     O_R   0.164550 0.280640 0.146160 -0.603445
O17   O     O_R   0.664550 0.780640 0.353840 -0.661364
O18   O     O_R   0.664550 0.219360 0.646160 -0.618050
O19   O     O_R   0.664550 0.219360 0.353840 -0.593698
O20   O     O_R   0.664550 0.780640 0.646160 -0.619126
O21   O     O_R   0.396160 0.219380 0.914560 -0.632827
O22   O     O_R   0.396160 0.780620 0.085440 -0.643882
O23   O     O_R   0.396160 0.780620 0.914560 -0.644716
O24   O     O_R   0.396160 0.219380 0.085440 -0.618230
O25   O     O_R   0.896160 0.719380 0.414560 -0.604527
O26   O     O_R   0.896160 0.280620 0.585440 -0.629505
O27   O     O_R   0.896160 0.280620 0.414560 -0.650432
O28   O     O_R   0.896160 0.719380 0.585440 -0.649925
O29   O     O_R   0.103840 0.219370 0.085450 -0.653855
O30   O     O_R   0.103840 0.780630 0.914550 -0.636842
O31   O     O_R   0.103840 0.780630 0.085450 -0.628095
O32   O     O_R   0.103840 0.219370 0.914550 -0.635852
O33   O     O_R   0.603840 0.719370 0.585450 -0.640663
O34   O     O_R   0.603840 0.280630 0.414550 -0.646734
O35   O     O_R   0.603840 0.280630 0.585450 -0.645081
O36   O     O_R   0.603840 0.719370 0.414550 -0.630603
O37   O     O_R   0.310730 0.133160 0.000000 -0.625977
O38   O     O_R   0.310730 0.866840 0.000000 -0.614507
O39   O     O_R   0.810730 0.633160 0.500000 -0.600318
O40   O     O_R   0.810730 0.366840 0.500000 -0.626235
O41   O     O_R   0.249970 0.366860 0.060720 -0.593316
O42   O     O_R   0.249970 0.633140 0.939280 -0.642581
O43   O     O_R   0.249970 0.633140 0.060720 -0.597191
O44   O     O_R   0.249970 0.366860 0.939280 -0.667270
O45   O     O_R   0.749970 0.866860 0.560720 -0.610004
O46   O     O_R   0.749970 0.133140 0.439280 -0.638673
O47   O     O_R   0.749970 0.133140 0.560720 -0.621321
O48   O     O_R   0.749970 0.866860 0.439280 -0.649815
O49   O     O_R   0.189290 0.133150 0.000000 -0.653519
O50   O     O_R   0.189290 0.866850 0.000000 -0.659578
O51   O     O_R   0.689290 0.633150 0.500000 -0.667344
O52   O     O_R   0.689290 0.366850 0.500000 -0.647389
C1    C     C_R   0.386791 0.247595 0.142677 0.897505
C2    C     C_R   0.385053 0.754196 0.855551 0.822643
C3    C     C_R   0.386243 0.752845 0.143707 0.796982
C4    C     C_R   0.388511 0.249208 0.858587 0.885691
C5    C     C_R   0.885702 0.746764 0.644017 0.792778
C6    C     C_R   0.889656 0.250148 0.360126 0.884409
C7    C     C_R   0.890738 0.248788 0.639292 0.862062
C8    C     C_R   0.889269 0.749996 0.359659 0.904868
C9    C     C_R   0.110076 0.250745 0.860390 0.796712
C10   C     C_R   0.110257 0.749657 0.139929 0.765646
C11   C     C_R   0.111754 0.750968 0.857368 0.808133
C12   C     C_R   0.109883 0.250570 0.139731 0.779876
C13   C     C_R   0.609836 0.750846 0.359901 0.814895
C14   C     C_R   0.610661 0.249876 0.640024 0.786648
C15   C     C_R   0.611375 0.250911 0.359079 0.788319
C16   C     C_R   0.612117 0.748007 0.643194 0.800487
C17   C     C_R   0.250170 0.109256 0.998968 0.770298
C18   C     C_R   0.249953 0.890417 0.999615 0.776128
C19   C     C_R   0.749882 0.609508 0.500678 0.790653
C20   C     C_R   0.749721 0.390610 0.499906 0.779789
C21   C     C_R   0.248907 0.391267 0.000272 0.893980
C22   C     C_R   0.247857 0.608727 0.000650 0.873386
C23   C     C_R   0.747825 0.891254 0.500059 0.908704
C24   C     C_R   0.746907 0.108775 0.500274 0.899954
C25   C     C_3   0.247879 0.469433 0.083457 0.085657
C26   C     C_3   0.174652 0.530293 0.962666 0.106764
C27   C     C_3   0.251978 0.529344 0.084147 0.095337
C28   C     C_3   0.175191 0.469382 0.959861 0.094683
C29   C     C_3   0.718290 0.969425 0.578249 0.086952
C30   C     C_3   0.690422 0.030216 0.439186 0.100410
C31   C     C_3   0.720850 0.029692 0.579859 0.086692
C32   C     C_3   0.691252 0.969509 0.437304 0.096971
H1    H     H_    0.300873 0.455774 0.105725 0.111880
H2    H     H_    0.180533 0.542967 0.904310 0.111715
H3    H     H_    0.308522 0.539519 0.100552 0.093803
H4    H     H_    0.183792 0.458941 0.901157 0.088046
H5    H     H_    0.761134 0.956464 0.617394 0.113233
H6    H     H_    0.716038 0.042642 0.386392 0.125323
H7    H     H_    0.767384 0.040030 0.615661 0.087635
H8    H     H_    0.718300 0.958745 0.384766 0.093882
H9    H     H_    0.184324 0.903989 0.877355 0.123582
H10   H     H_    0.173567 0.094548 0.881811 0.145857
H11   H     H_    0.756101 0.403956 0.638519 0.098853
H12   H     H_    0.768367 0.595309 0.637952 0.096095
H13   H     H_    0.362157 0.457277 0.989092 0.232535
H14   H     H_    0.308909 0.543666 0.901640 0.219780
H15   H     H_    0.361926 0.545497 0.983377 0.204854
H16   H     H_    0.314032 0.455928 0.904129 0.218888
H17   H     H_    0.857541 0.956984 0.528209 0.221981
H18   H     H_    0.837152 0.044105 0.428953 0.218454
H19   H     H_    0.858805 0.045173 0.524239 0.213881
H20   H     H_    0.840028 0.956051 0.431805 0.233067
C33   C     C_3   0.311727 0.470584 0.961456 -0.527184
C34   C     C_3   0.310502 0.530268 0.959770 -0.538129
C35   C     C_3   0.819116 0.970563 0.485238 -0.506998
C36   C     C_3   0.818695 0.030273 0.483868 -0.530343
C37   C     C_3   0.243786 0.448735 0.002162 -0.122977
C38   C     C_3   0.243913 0.551171 0.003175 -0.123142
C39   C     C_3   0.741733 0.948750 0.500539 -0.139716
C40   C     C_3   0.741560 0.051231 0.501369 -0.128276
H21   H     H_    0.147343 0.103320 0.698772 0.166614
H22   H     H_    0.966593 0.592184 0.116171 0.227144
H23   H     H_    0.970454 0.911848 0.860012 0.172793
H24   H     H_    0.873344 0.279246 0.024699 0.185116
H25   H     H_    0.497018 0.580595 0.332466 0.176249
H26   H     H_    0.401344 0.158985 0.543386 0.167998
H27   H     H_    0.442117 0.119009 0.431305 0.193595
H28   H     H_    0.443909 0.599776 0.616011 0.169959
C41   C     C_R   0.031514 0.343206 0.824966 -0.217977
C42   C     C_R   0.101890 0.831142 0.245416 -0.234441
C43   C     C_R   0.102573 0.667473 0.739613 -0.191445
C44   C     C_R   0.146545 0.241216 0.295016 -0.223911
C45   C     C_R   0.572466 0.848979 0.283763 -0.160210
C46   C     C_R   0.640259 0.284806 0.785192 -0.227828
C47   C     C_R   0.611726 0.321885 0.238177 -0.214141
C48   C     C_R   0.615797 0.818925 0.775504 -0.154647
C49   C     C_R   0.002395 0.389661 0.800661 -0.151242
C50   C     C_R   0.099189 0.870937 0.296565 -0.217083
C51   C     C_R   0.087866 0.621960 0.701638 -0.224043
C52   C     C_R   0.164025 0.231604 0.368000 -0.225015
C53   C     C_R   0.563874 0.892241 0.239196 -0.160059
C54   C     C_R   0.658162 0.296469 0.857239 -0.208818
C55   C     C_R   0.611380 0.358388 0.181845 -0.182563
C56   C     C_R   0.608490 0.863116 0.818413 -0.161444
C57   C     C_R   0.511866 0.892507 0.184219 0.310305
C58   C     C_R   0.606723 0.290772 0.912779 0.409619
C59   C     C_R   0.553675 0.360574 0.132407 0.425167
C60   C     C_R   0.540469 0.877993 0.844235 0.349235
C61   C     C_R   0.953427 0.390443 0.742832 0.331781
C62   C     C_R   0.045445 0.871401 0.350727 0.376294
C63   C     C_R   0.019269 0.612874 0.672391 0.371635
C64   C     C_R   0.109618 0.225116 0.420366 0.385385
C65   C     C_R   0.465718 0.849757 0.177679 -0.244831
C66   C     C_R   0.535334 0.277355 0.894376 -0.214662
C67   C     C_R   0.497474 0.324108 0.138894 -0.193507
C68   C     C_R   0.481414 0.845023 0.832046 -0.198594
C69   C     C_R   0.930083 0.343602 0.712629 -0.254623
C70   C     C_R   0.994093 0.831233 0.352374 -0.265949
C71   C     C_R   0.967146 0.651784 0.677930 -0.206612
C72   C     C_R   0.037228 0.229824 0.398458 -0.229527
C73   C     C_R   0.478182 0.803080 0.217233 0.033072
C74   C     C_R   0.515913 0.264508 0.821215 0.006965
C75   C     C_R   0.497518 0.285727 0.194941 0.028401
C76   C     C_R   0.489576 0.797897 0.793661 0.015139
C77   C     C_R   0.963343 0.295974 0.732157 0.032341
C78   C     C_R   0.995607 0.790469 0.300455 0.004442
C79   C     C_R   0.982936 0.699675 0.711909 0.019601
C80   C     C_R   0.018329 0.242180 0.324853 0.011537
C81   C     C_R   0.016414 0.296397 0.787835 0.056554
C82   C     C_R   0.050495 0.790359 0.246624 0.091867
C83   C     C_R   0.048588 0.705869 0.750772 0.091101
C84   C     C_R   0.073469 0.245463 0.271481 0.084764
C85   C     C_R   0.534793 0.802018 0.269575 0.068798
C86   C     C_R   0.570281 0.266285 0.766854 0.087910
C87   C     C_R   0.554656 0.285621 0.246119 0.091979
C88   C     C_R   0.555076 0.787964 0.756444 0.084395
C89   C     C_R   0.433726 0.758401 0.208507 -0.168453
C90   C     C_R   0.444034 0.249915 0.801405 -0.128977
C91   C     C_R   0.441430 0.248075 0.200632 -0.110251
C92   C     C_R   0.433014 0.761222 0.790773 -0.177560
C93   C     C_R   0.946473 0.248595 0.696216 -0.127427
C94   C     C_R   0.943725 0.749903 0.301917 -0.130584
C95   C     C_R   0.933119 0.740746 0.709168 -0.160750
C96   C     C_R   0.945649 0.251543 0.304030 -0.150771
C97   C     C_R   0.442140 0.715759 0.257497 -0.070963
C98   C     C_R   0.427761 0.232548 0.728676 -0.029540
C99   C     C_R   0.438081 0.212759 0.261614 -0.012353
C100  C     C_R   0.432320 0.724341 0.733666 -0.044985
C101  C     C_R   0.990383 0.203832 0.707812 -0.019994
C102  C     C_R   0.945695 0.708924 0.249987 -0.033844
C103  C     C_R   0.938293 0.781027 0.761280 -0.040553
C104  C     C_R   0.927246 0.263707 0.230472 -0.040426
C105  C     C_R   0.049963 0.207797 0.756175 0.020723
C106  C     C_R   0.003645 0.707785 0.198801 -0.016040
C107  C     C_R   0.005540 0.790521 0.794619 0.006974
C108  C     C_R   0.980712 0.259000 0.175437 0.022248
C109  C     C_R   0.509289 0.709726 0.291961 0.006098
C110  C     C_R   0.485778 0.228231 0.677988 0.013128
C111  C     C_R   0.496240 0.214000 0.312961 0.001785
C112  C     C_R   0.498277 0.711908 0.699106 0.020832
C113  C     C_R   0.056124 0.251050 0.802389 -0.135132
C114  C     C_R   0.054228 0.749040 0.196372 -0.110307
C115  C     C_R   0.057771 0.750506 0.796895 -0.169706
C116  C     C_R   0.053956 0.251253 0.196346 -0.105929
C117  C     C_R   0.552050 0.754142 0.304963 -0.153208
C118  C     C_R   0.554489 0.248542 0.695783 -0.088669
C119  C     C_R   0.553904 0.249544 0.304154 -0.094511
C120  C     C_R   0.557552 0.747039 0.703652 -0.174864
C121  C     C_R   0.387823 0.677548 0.272764 0.535323
C122  C     C_R   0.356890 0.217150 0.704355 0.466362
C123  C     C_R   0.378818 0.177104 0.274679 0.485621
C124  C     C_R   0.367787 0.699638 0.708500 0.526747
C125  C     C_R   0.981522 0.156040 0.669251 0.516879
C126  C     C_R   0.891081 0.669398 0.246203 0.511580
C127  C     C_R   0.878261 0.811723 0.783581 0.548828
C128  C     C_R   0.857875 0.283232 0.210168 0.512207
C129  C     C_R   0.408551 0.628559 0.297701 -0.196493
C130  C     C_R   0.349936 0.187462 0.640197 -0.206234
C131  C     C_R   0.382560 0.143967 0.337359 -0.270019
C132  C     C_R   0.372649 0.654534 0.666811 -0.222489
C133  C     C_R   0.040096 0.122106 0.662801 -0.140199
C134  C     C_R   0.901877 0.626432 0.200461 -0.246671
C135  C     C_R   0.890425 0.859261 0.817797 -0.224146
C136  C     C_R   0.837531 0.284632 0.136174 -0.187697
C137  C     C_R   0.102391 0.129883 0.703607 -0.202693
C138  C     C_R   0.960165 0.624854 0.152520 -0.128263
C139  C     C_R   0.960675 0.874462 0.835273 -0.227058
C140  C     C_R   0.888355 0.275401 0.081871 -0.190573
C141  C     C_R   0.480658 0.618766 0.314451 -0.228666
C142  C     C_R   0.408236 0.180504 0.593637 -0.160307
C143  C     C_R   0.440560 0.145138 0.384747 -0.124663
C144  C     C_R   0.440078 0.635651 0.646195 -0.224750
C145  C     C_R   0.105209 0.169969 0.753945 -0.183223
C146  C     C_R   0.009362 0.665568 0.149972 -0.098143
C147  C     C_R   0.017768 0.839962 0.825501 -0.125501
C148  C     C_R   0.959899 0.265458 0.100914 -0.133804
C149  C     C_R   0.530528 0.659320 0.313790 -0.134839
C150  C     C_R   0.474773 0.202280 0.610596 -0.106580
C151  C     C_R   0.496063 0.179914 0.373673 -0.085037
C152  C     C_R   0.502419 0.664284 0.661215 -0.122480
H29   H     H_    0.069298 0.345247 0.870118 0.192692
H30   H     H_    0.145416 0.832461 0.205561 0.138098
H31   H     H_    0.158390 0.672117 0.754752 0.222936
H32   H     H_    0.192031 0.244606 0.258252 0.201689
H33   H     H_    0.609076 0.854265 0.328850 0.222006
H34   H     H_    0.682760 0.288978 0.744597 0.140889
H35   H     H_    0.657267 0.322409 0.275460 0.153621
H36   H     H_    0.670353 0.808945 0.761018 0.224248
H37   H     H_    0.020669 0.425467 0.824525 0.229586
H38   H     H_    0.139744 0.901270 0.293933 0.180106
H39   H     H_    0.130705 0.593822 0.694984 0.181819
H40   H     H_    0.220578 0.228649 0.383249 0.187469
H41   H     H_    0.597978 0.925789 0.248053 0.211642
H42   H     H_    0.713206 0.307988 0.869948 0.178217
H43   H     H_    0.656567 0.384935 0.176864 0.160780
H44   H     H_    0.656207 0.886090 0.830318 0.192756
H45   H     H_    0.418993 0.855063 0.143328 0.189234
H46   H     H_    0.496134 0.276711 0.938442 0.170509
H47   H     H_    0.454085 0.325964 0.099227 0.147451
H48   H     H_    0.428519 0.856892 0.851204 0.189535
H49   H     H_    0.887487 0.345911 0.672344 0.167619
H50   H     H_    0.953110 0.832159 0.394815 0.162171
H51   H     H_    0.913353 0.643965 0.657109 0.173304
H52   H     H_    0.996100 0.223275 0.439728 0.175750
H53   H     H_    0.035513 0.087932 0.628915 0.157951
H54   H     H_    0.864264 0.594199 0.201276 0.157101
H55   H     H_    0.845206 0.883890 0.831997 0.166414
H56   H     H_    0.783590 0.297061 0.120977 0.208769
H57   H     H_    0.368203 0.598579 0.306129 0.191761
H58   H     H_    0.298033 0.170938 0.625211 0.188254
H59   H     H_    0.340733 0.116511 0.352061 0.141390
H60   H     H_    0.323904 0.634369 0.650053 0.161950
H61   H     H_    0.153356 0.172918 0.787541 0.150981
H62   H     H_    0.052466 0.663094 0.109853 0.189845
H63   H     H_    0.071410 0.852541 0.841399 0.150936
H64   H     H_    0.997915 0.263791 0.056006 0.176056
H65   H     H_    0.585551 0.650746 0.330082 0.146112
H66   H     H_    0.518258 0.196590 0.571534 0.148763
H67   H     H_    0.538976 0.179667 0.414045 0.154697
H68   H     H_    0.553739 0.648051 0.644467 0.164452
H69   H     H_    0.107772 0.045568 0.790175 0.137478
H70   H     H_    0.115961 0.950837 0.785736 0.139559
H71   H     H_    0.774623 0.546979 0.752699 0.142892
H72   H     H_    0.766727 0.451516 0.753138 0.142226
C153  C     C_R   0.329319 0.051709 0.110291 -0.137847
C154  C     C_R   0.309705 0.945423 0.120414 -0.115234
C155  C     C_R   0.718882 0.554817 0.368915 -0.141454
C156  C     C_R   0.708903 0.447366 0.370854 -0.173788
C157  C     C_R   0.359077 0.024232 0.168849 -0.075413
C158  C     C_R   0.346882 0.971498 0.175358 -0.097418
C159  C     C_R   0.698605 0.528435 0.305720 -0.147240
C160  C     C_R   0.692579 0.474863 0.307005 -0.146012
C161  C     C_R   0.282789 0.972183 0.058081 0.099690
C162  C     C_R   0.288292 0.026350 0.055087 0.067042
C163  C     C_R   0.730564 0.473372 0.435419 0.068953
C164  C     C_R   0.733360 0.527745 0.435033 0.075559
C165  C     C_R   0.249334 0.945882 0.999684 -0.125480
C166  C     C_R   0.250908 0.053368 0.998655 -0.136655
C167  C     C_R   0.747490 0.446393 0.500708 -0.128174
C168  C     C_R   0.749132 0.553895 0.500867 -0.128563
C169  C     C_R   0.214671 0.972331 0.941773 0.078157
C170  C     C_R   0.213181 0.026714 0.942493 0.071885
C171  C     C_R   0.755729 0.472638 0.567949 0.095523
C172  C     C_R   0.757673 0.527096 0.567911 0.086050
C173  C     C_R   0.181387 0.945538 0.882820 -0.135066
C174  C     C_R   0.175452 0.052883 0.885591 -0.128295
C175  C     C_R   0.758792 0.445762 0.635739 -0.102978
C176  C     C_R   0.765788 0.553507 0.635402 -0.117043
C177  C     C_R   0.142779 0.971956 0.829183 -0.148961
C178  C     C_R   0.138847 0.025434 0.831301 -0.139255
C179  C     C_R   0.764609 0.472575 0.701718 -0.064120
C180  C     C_R   0.769078 0.526291 0.701476 -0.063511
H73   H     H_    0.338395 0.092862 0.110552 0.178359
H74   H     H_    0.302134 0.904203 0.127616 0.102179
H75   H     H_    0.721929 0.596533 0.365705 0.131538
H76   H     H_    0.703207 0.405757 0.369459 0.129917
H77   H     H_    0.390187 0.044213 0.210407 0.162711
H78   H     H_    0.367777 0.950483 0.222224 0.141949
H79   H     H_    0.686765 0.549685 0.255872 0.138840
H80   H     H_    0.675765 0.454574 0.258178 0.144284
O53   O     O_3   0.314349 0.688396 0.272189 -0.594607
C181  C     C_3   0.298554 0.723935 0.328765 0.061451
H81   H     H_    0.320458 0.762925 0.314630 0.135864
H82   H     H_    0.321901 0.710875 0.382169 0.138297
C182  C     C_3   0.216409 0.727940 0.337541 -0.279008
H83   H     H_    0.192584 0.741708 0.285227 0.236242
H84   H     H_    0.193477 0.689092 0.350287 0.248127
C183  C     C_3   0.195767 0.765390 0.398607 -0.951964
H85   H     H_    0.218333 0.752135 0.451915 0.263142
H86   H     H_    0.135817 0.767174 0.403451 0.280177
H87   H     H_    0.216584 0.804823 0.385997 0.270250
O54   O     O_3   0.294696 0.229456 0.743274 -0.661727
C184  C     C_3   0.247639 0.260648 0.699948 0.121062
H88   H     H_    0.191974 0.255749 0.721383 0.187765
H89   H     H_    0.244326 0.248863 0.641462 0.175755
C185  C     C_3   0.267797 0.318155 0.704521 -0.375154
H90   H     H_    0.264939 0.331315 0.762298 0.271766
H91   H     H_    0.323962 0.324143 0.683971 0.215020
C186  C     C_3   0.215859 0.351122 0.659170 -0.858255
H92   H     H_    0.218147 0.339728 0.600499 0.281110
H93   H     H_    0.231460 0.392519 0.663630 0.266038
H94   H     H_    0.159454 0.346396 0.679750 0.278153
O55   O     O_3   0.318712 0.177055 0.227360 -0.680960
C187  C     C_3   0.266095 0.138448 0.244124 -0.005962
H95   H     H_    0.239940 0.146487 0.297915 0.164305
H96   H     H_    0.291482 0.099643 0.244998 0.157719
C188  C     C_3   0.206893 0.137471 0.186157 -0.314035
H97   H     H_    0.171271 0.170802 0.193548 0.203638
H98   H     H_    0.231748 0.140757 0.131462 0.219622
C189  C     C_3   0.160144 0.088709 0.191330 -0.894818
H99   H     H_    0.193492 0.053481 0.183842 0.260057
H100  H     H_    0.118140 0.089652 0.147784 0.276405
H101  H     H_    0.132794 0.086748 0.245634 0.272811
O56   O     O_3   0.299673 0.720295 0.720486 -0.636091
C190  C     C_3   0.290435 0.763649 0.673974 0.050871
H102  H     H_    0.296876 0.752313 0.615330 0.144520
H103  H     H_    0.330352 0.794642 0.687319 0.149235
C191  C     C_3   0.214231 0.785269 0.684851 -0.341357
H104  H     H_    0.173680 0.755061 0.670828 0.232314
H105  H     H_    0.206842 0.796244 0.743278 0.208412
C192  C     C_3   0.201142 0.832675 0.636594 -0.907627
H106  H     H_    0.240277 0.863909 0.650354 0.270692
H107  H     H_    0.145329 0.847213 0.646013 0.269833
H108  H     H_    0.206971 0.822457 0.577720 0.273433
O57   O     O_3   0.915731 0.139615 0.641637 -0.659165
C193  C     C_3   0.875094 0.115962 0.699163 0.121049
H109  H     H_    0.817011 0.117730 0.683803 0.215461
H110  H     H_    0.879638 0.137246 0.752169 0.128383
C194  C     C_3   0.895674 0.058830 0.709936 -0.463710
H111  H     H_    0.893232 0.038384 0.656518 0.231128
H112  H     H_    0.951752 0.055883 0.731416 0.222982
C195  C     C_3   0.845234 0.031920 0.764674 -0.866920
H113  H     H_    0.849381 0.050624 0.819281 0.273172
H114  H     H_    0.860962 0.990657 0.770322 0.261205
H115  H     H_    0.788168 0.033674 0.745726 0.289158
O58   O     O_3   0.828611 0.672080 0.288758 -0.662931
C196  C     C_3   0.765349 0.673652 0.244488 0.037754
H116  H     H_    0.717884 0.670746 0.281848 0.142258
H117  H     H_    0.761258 0.639886 0.207162 0.137295
C197  C     C_3   0.758738 0.724649 0.201220 -0.362144
H118  H     H_    0.757099 0.757642 0.239905 0.261347
H119  H     H_    0.806196 0.729916 0.164300 0.213661
C198  C     C_3   0.690108 0.725213 0.154597 -0.914954
H120  H     H_    0.692475 0.694293 0.112518 0.263586
H121  H     H_    0.685151 0.763191 0.126382 0.273983
H122  H     H_    0.641461 0.719070 0.189458 0.263153
O59   O     O_3   0.807631 0.793856 0.778621 -0.639591
C199  C     C_3   0.795130 0.753932 0.830873 0.049464
H123  H     H_    0.756796 0.768889 0.872784 0.159877
H124  H     H_    0.844609 0.740671 0.860806 0.138073
C200  C     C_3   0.760583 0.707240 0.792914 -0.337905
H125  H     H_    0.710022 0.719241 0.764860 0.210478
H126  H     H_    0.798386 0.691775 0.750976 0.199968
C201  C     C_3   0.742514 0.664285 0.847666 -0.935264
H127  H     H_    0.792624 0.650405 0.875008 0.278633
H128  H     H_    0.717067 0.631321 0.818366 0.256845
H129  H     H_    0.703919 0.678527 0.889803 0.267434
O60   O     O_3   0.813115 0.306652 0.261132 -0.665404
C202  C     C_3   0.819763 0.361265 0.254044 -0.001543
H130  H     H_    0.767015 0.378425 0.268765 0.147648
H131  H     H_    0.830633 0.374748 0.196778 0.165399
C203  C     C_3   0.878039 0.382446 0.305966 -0.341611
H132  H     H_    0.859890 0.377128 0.363578 0.248603
H133  H     H_    0.929480 0.361017 0.298272 0.240291
C204  C     C_3   0.893299 0.439721 0.291903 -0.834265
H134  H     H_    0.914767 0.445513 0.235462 0.280402
H135  H     H_    0.934364 0.453800 0.331634 0.287550
H136  H     H_    0.843380 0.462909 0.298658 0.265545
N1    N     N_R   0.191519 0.448325 0.132892 0.275209
O61   O     O_R   0.124662 0.463767 0.129480 -0.247467
O62   O     O_R   0.210659 0.419291 0.188035 -0.328818
N2    N     N_R   0.106880 0.554288 0.988341 0.251889
O63   O     O_R   0.068013 0.534489 0.041061 -0.263634
O64   O     O_R   0.082606 0.595107 0.954455 -0.408749
N3    N     N_R   0.206247 0.551926 0.142435 0.276952
O65   O     O_R   0.151995 0.582398 0.128914 -0.316252
O66   O     O_R   0.224423 0.544250 0.210587 -0.343307
N4    N     N_R   0.105407 0.444821 0.979596 0.256003
O67   O     O_R   0.102700 0.401231 0.015500 -0.384736
O68   O     O_R   0.047192 0.459349 0.945183 -0.356845
N5    N     N_R   0.649679 0.947056 0.605449 0.269852
O69   O     O_R   0.587156 0.963456 0.582483 -0.234551
O70   O     O_R   0.651022 0.914823 0.660453 -0.356047
N6    N     N_R   0.617826 0.053604 0.439305 0.248900
O71   O     O_R   0.566874 0.037749 0.483417 -0.254955
O72   O     O_R   0.601222 0.086447 0.387801 -0.388711
N7    N     N_R   0.657316 0.052971 0.616382 0.270998
O73   O     O_R   0.621937 0.091581 0.587948 -0.345110
O74   O     O_R   0.644968 0.041422 0.684876 -0.326937
N8    N     N_R   0.618515 0.945693 0.433005 0.257333
O75   O     O_R   0.603399 0.902624 0.467061 -0.378630
O76   O     O_R   0.575325 0.960066 0.380427 -0.357024
N9    N     N_R   0.505026 0.936295 0.135781 0.208678
O77   O     O_R   0.536706 0.980017 0.151042 -0.349780
O78   O     O_R   0.471803 0.931571 0.073219 -0.316151
N10   N     N_R   0.627527 0.296256 0.988148 0.207131
O79   O     O_R   0.684148 0.323677 0.005737 -0.405511
O80   O     O_R   0.596681 0.267551 0.038082 -0.399139
N11   N     N_R   0.552791 0.398946 0.074835 0.215635
O81   O     O_R   0.500456 0.399984 0.027045 -0.442646
O82   O     O_R   0.604475 0.433179 0.069533 -0.380530
N12   N     N_R   0.531611 0.925574 0.884069 0.237543
O83   O     O_R   0.587175 0.955167 0.897680 -0.327726
O84   O     O_R   0.467728 0.940257 0.905931 -0.324601
N13   N     N_R   0.930701 0.438806 0.711810 0.209953
O85   O     O_R   0.933326 0.480987 0.750511 -0.362587
O86   O     O_R   0.918379 0.442208 0.641685 -0.325994
N14   N     N_R   0.043054 0.912398 0.404005 0.207210
O87   O     O_R   0.090853 0.949563 0.402501 -0.395074
O88   O     O_R   0.993184 0.912977 0.454613 -0.436223
N15   N     N_R   0.003301 0.565158 0.635118 0.242143
O89   O     O_R   0.050884 0.528132 0.632911 -0.343910
O90   O     O_R   0.941524 0.558581 0.601996 -0.337392
N16   N     N_R   0.127744 0.214267 0.495678 0.203808
O91   O     O_R   0.078563 0.216679 0.546809 -0.421561
O92   O     O_R   0.193970 0.202929 0.514034 -0.450892

loop_
_geom_bond_atom_site_label_1
_geom_bond_atom_site_label_2
_geom_bond_distance
_ccdc_geom_bond_type
C174  C178  1.393905 A    
C198  H122  1.109190 S    
N15   O89   1.301670 A    
C48   C88   1.418841 A    
C156  C163  1.414983 A    
C32   C39   1.576598 S    
C129  C141  1.389309 A    
C90   C98   1.433048 A    
C21   C37   1.489217 S    
C182  H83   1.108432 S    
C94   C102  1.423749 A    
O26   C7    1.281578 A    
C166  C170  1.418273 A    
C23   C39   1.490763 S    
C75   C87   1.408764 A    
N2    O63   1.299937 A    
C199  H124  1.118415 S    
C154  C158  1.389920 A    
C109  C149  1.417456 A    
O30   C11   1.304517 A    
N16   O92   1.301482 A    
C26   N2    1.474007 S    
C189  H101  1.110881 S    
C52   C64   1.392938 A    
C202  C203  1.534464 S    
C53   C57   1.388518 A    
C194  C195  1.526751 S    
Zn12  O26   1.935254 S    
C29   C31   1.558620 S    
C189  H99   1.109499 S    
C154  H74   1.081439 S    
C55   C59   1.397063 A    
C43   C83   1.423452 A    
C192  H108  1.111085 S    
C29   H5    1.117095 S    
C110  C118  1.409155 A    
C47   C55   1.391472 A    
C204  H135  1.110323 S    
H26   C142  1.080834 S    
C52   H40   1.083073 S    
O11   C7    1.276275 A    
C53   H41   1.082261 S    
O34   C15   1.279778 A    
C61   N13   1.434176 S    
C87   C119  1.407128 A    
C148  H64   1.077911 S    
H16   C33   1.113522 S    
C49   H37   1.077419 S    
C27   N3    1.478550 S    
O54   C184  1.424585 S    
N3    O66   1.301645 A    
Zn1   O44   1.949396 S    
C25   H1    1.117101 S    
C169  C173  1.419951 A    
Zn2   O43   1.949393 S    
C155  C159  1.391889 A    
H23   C139  1.082652 S    
C161  C162  1.404183 A    
Zn5   O48   1.949396 S    
C57   C65   1.398048 A    
Zn6   O47   1.949393 S    
C11   C115  1.486803 S    
N11   O82   1.301640 A    
Zn7   O46   1.945627 S    
O16   C12   1.276883 A    
C49   C61   1.389445 A    
C15   C119  1.459863 S    
C163  C164  1.406082 A    
C161  C165  1.407440 A    
Zn16  O4    1.963243 S    
C133  H53   1.082954 S    
C187  H95   1.112472 S    
C108  C116  1.419304 A    
Zn1   O13   1.943584 S    
C22   C38   1.489641 S    
C141  C149  1.392182 A    
H18   C36   1.113651 S    
C26   C28   1.575434 S    
H24   C140  1.082827 S    
C139  C147  1.394154 A    
Zn4   O16   1.938802 S    
C181  H82   1.116468 S    
C72   C80   1.421892 A    
N6    O71   1.299792 A    
C46   C86   1.416319 A    
H28   C144  1.082506 S    
Zn6   O4    1.940215 S    
C170  C174  1.420426 A    
C182  C183  1.526516 S    
C93   C101  1.429982 A    
C200  H126  1.110325 S    
C7    C93   1.461964 S    
C155  H75   1.080811 S    
C183  H85   1.110943 S    
C111  C151  1.411464 A    
C79   C83   1.413119 A    
C31   C40   1.578536 S    
C162  C166  1.421677 A    
C30   H6    1.116606 S    
Zn10  O22   1.935254 S    
O25   C8    1.279864 A    
Zn13  O29   1.934501 S    
Zn10  O2    1.956857 S    
O44   C21   1.280439 A    
C124  O56   1.384449 S    
C44   C84   1.419981 A    
C63   C71   1.397767 A    
C134  C138  1.385094 A    
O29   C12   1.283556 A    
C45   C85   1.421383 A    
Zn15  O33   1.934501 S    
C88   C120  1.433533 A    
C26   H2    1.116456 S    
O37   C17   1.274954 A    
O48   C23   1.277361 A    
C122  C130  1.406922 A    
C195  H113  1.110776 S    
C196  H117  1.111132 S    
N12   O84   1.301741 A    
C31   N7    1.477977 S    
C171  C175  1.416124 A    
C30   N6    1.471405 S    
O55   C187  1.421527 S    
Zn16  O35   1.930866 S    
C99   C123  1.446137 A    
C35   C36   1.543434 S    
N5    O69   1.299688 A    
C97   C121  1.430563 A    
N15   O90   1.301592 A    
Zn7   O10   1.938760 S    
C59   N11   1.440933 S    
O33   C16   1.297948 A    
C132  C144  1.389617 A    
C101  C125  1.432636 A    
C130  H58   1.082973 S    
O40   C20   1.284259 A    
O56   C190  1.413261 S    
C200  H125  1.109162 S    
C106  C146  1.414915 A    
C187  C188  1.521092 S    
C136  C140  1.384037 A    
C82   C114  1.411447 A    
C84   C116  1.423840 A    
C193  H109  1.109066 S    
C154  C161  1.418935 A    
C191  H104  1.110267 S    
C13   C117  1.466280 S    
C65   H45   1.075131 S    
C197  H118  1.109112 S    
Zn5   O17   1.943584 S    
C102  C106  1.418000 A    
H71   C180  1.082484 S    
H72   C179  1.082577 S    
C1    C91   1.461392 S    
C2    C92   1.484143 S    
C12   C116  1.457982 S    
C128  O60   1.384303 S    
C64   C72   1.400194 A    
C25   C27   1.550162 S    
C47   H35   1.081561 S    
C74   C86   1.408971 A    
C107  C115  1.416652 A    
H25   C141  1.082623 S    
C3    C89   1.478780 S    
C183  H87   1.110859 S    
C105  C113  1.406819 A    
N1    O62   1.301801 A    
C27   H3    1.116482 S    
C193  H110  1.116707 S    
C184  H89   1.111420 S    
Zn14  O50   1.947307 S    
C32   H8    1.115587 S    
Zn8   O3    1.947745 S    
C97   C109  1.398891 A    
C135  H55   1.082844 S    
C56   C60   1.395309 A    
C8    C94   1.453530 S    
C61   C69   1.398824 A    
O38   C18   1.278107 A    
C96   C104  1.417766 A    
C59   C67   1.403170 A    
C19   C168  1.437405 S    
O5    C1    1.279802 A    
N10   O79   1.301505 A    
C193  C194  1.537916 S    
O32   C9    1.279605 A    
C100  C112  1.407926 A    
C112  C152  1.416045 A    
C33   C37   1.558314 S    
C35   C39   1.557304 S    
C104  C108  1.411322 A    
Zn15  O51   1.950679 S    
Zn11  O28   1.936097 S    
O53   C181  1.414312 S    
Zn12  O40   1.950636 S    
C189  H100  1.110424 S    
C191  C192  1.525488 S    
C203  H132  1.109263 S    
C125  O57   1.380935 S    
C138  C146  1.387744 A    
C195  H115  1.109614 S    
C197  H119  1.110871 S    
C188  H98   1.099236 S    
C190  C191  1.527608 S    
C50   H38   1.082616 S    
C60   N12   1.440265 S    
O8    C4    1.277648 A    
C71   C79   1.415906 A    
C201  H127  1.110965 S    
Zn9   O1    1.963549 S    
C198  H121  1.110399 S    
C68   C76   1.415458 A    
C58   C66   1.402358 A    
C185  H91   1.111220 S    
C42   H30   1.082099 S    
O50   C18   1.272239 A    
C62   N14   1.440839 S    
C173  C177  1.389101 A    
C50   C62   1.397871 A    
Zn1   O1    1.940217 S    
C46   H34   1.081804 S    
Zn13  O1    1.956551 S    
Zn2   O14   1.942351 S    
N2    O64   1.301584 A    
C48   C56   1.393652 A    
C28   N4    1.476587 S    
C186  H94   1.111623 S    
C48   H36   1.072708 S    
C27   C38   1.585061 S    
C131  H59   1.079131 S    
C42   C50   1.391881 A    
C197  C198  1.526175 S    
C165  C169  1.410591 A    
N6    O72   1.300684 A    
C146  H62   1.081475 S    
O9    C5    1.278588 A    
C202  H131  1.116473 S    
O39   C19   1.276306 A    
O36   C13   1.287715 A    
C194  H112  1.109584 S    
C150  H66   1.082401 S    
C80   C84   1.408241 A    
O13   C9    1.270606 A    
C185  H90   1.109035 S    
C126  C134  1.405832 A    
Zn1   O8    1.942306 S    
Zn2   O7    1.943541 S    
C129  H57   1.082841 S    
Zn3   O6    1.938760 S    
C135  C139  1.390802 A    
O18   C14   1.276071 A    
O31   C10   1.278732 A    
N7    O74   1.301712 A    
O6    C2    1.282432 A    
C168  C172  1.411354 A    
Zn4   O41   1.945630 S    
C121  C129  1.398364 A    
C17   C166  1.444649 S    
C192  H107  1.110656 S    
C122  O54   1.386449 S    
C204  H134  1.110857 S    
C126  O58   1.390038 S    
C191  H105  1.111273 S    
C136  H56   1.082972 S    
C164  C168  1.409733 A    
C63   N15   1.440169 S    
C44   H32   1.075930 S    
C25   N1    1.476072 S    
Zn14  O30   1.936351 S    
C132  H60   1.082842 S    
Zn15  O3    1.956551 S    
C68   H48   1.081702 S    
Zn11  O3    1.963549 S    
O41   C21   1.267401 A    
C41   C49   1.388407 A    
C110  C150  1.416359 A    
Zn16  O34   1.936351 S    
N9    O78   1.301380 A    
N4    O67   1.301293 A    
C123  O55   1.405962 S    
C124  C132  1.397145 A    
C143  C151  1.374133 A    
Zn8   O20   1.938802 S    
N13   O86   1.301082 A    
N8    O75   1.301394 A    
C181  C182  1.527531 S    
C153  H73   1.076186 S    
C190  H102  1.115547 S    
C67   C75   1.420924 A    
C78   C82   1.408595 A    
H20   C35   1.113696 S    
C55   H43   1.081239 S    
C36   C40   1.557423 S    
C56   H44   1.082877 S    
C30   C40   1.573052 S    
C109  C117  1.411638 A    
C134  H54   1.082340 S    
C103  C107  1.403664 A    
Zn8   O9    1.943987 S    
C57   N9    1.438497 S    
C108  C148  1.421339 A    
C127  C135  1.397727 A    
C182  H84   1.111667 S    
C70   C78   1.419254 A    
N11   O81   1.301739 A    
O7    C3    1.274329 A    
C199  H123  1.111474 S    
C183  H86   1.110502 S    
C181  H81   1.113438 S    
C89   C97   1.424628 A    
C186  H92   1.110939 S    
O19   C15   1.281647 A    
N16   O91   1.301200 A    
C169  C170  1.406072 A    
C149  H65   1.081622 S    
H22   C138  1.082066 S    
Zn9   O24   1.936097 S    
Zn6   O18   1.942351 S    
Zn10  O23   1.934250 S    
C47   C87   1.413936 A    
C159  C160  1.388808 A    
C127  O59   1.384110 S    
C66   C74   1.421526 A    
C185  C186  1.526525 S    
C131  C143  1.376598 A    
C74   C90   1.424900 A    
C111  C119  1.411579 A    
Zn15  O36   1.935508 S    
O15   C11   1.275229 A    
O42   C22   1.282318 A    
C73   C85   1.415999 A    
C33   C34   1.543045 S    
C78   C94   1.417255 A    
Zn4   O1    1.947745 S    
C204  H136  1.107547 S    
C30   C32   1.569718 S    
C103  C127  1.424273 A    
O12   C8    1.277083 A    
Zn11  O39   1.947265 S    
C62   C70   1.403153 A    
C195  H114  1.110701 S    
C196  H116  1.110359 S    
C159  H79   1.082639 S    
H9    C173  1.080443 S    
C71   H51   1.081784 S    
C41   H29   1.080706 S    
O59   C199  1.419208 S    
Zn5   O3    1.940217 S    
C31   H7    1.111723 S    
C175  C179  1.394372 A    
C176  C180  1.393560 A    
C45   H33   1.073434 S    
C46   C54   1.388491 A    
C72   H52   1.079787 S    
C66   H46   1.079727 S    
C160  H80   1.080108 S    
C167  C171  1.411215 A    
H70   C177  1.082886 S    
C153  C157  1.394020 A    
O28   C5    1.297750 A    
C25   C37   1.579013 S    
C29   N5    1.473867 S    
C73   C89   1.423597 A    
C179  C180  1.390491 A    
Zn3   O42   1.945627 S    
C156  C160  1.394889 A    
C99   C111  1.425325 A    
N14   O88   1.301681 A    
Zn7   O4    1.947747 S    
O21   C4    1.284376 A    
C125  C133  1.399304 A    
C144  C152  1.393566 A    
O60   C202  1.421768 S    
C123  C131  1.426808 A    
C58   N10   1.434241 S    
C76   C92   1.408421 A    
H12   C176  1.082494 S    
C200  C201  1.525234 S    
C121  O53   1.385260 S    
C171  C172  1.407881 A    
C130  C142  1.381453 A    
Zn2   O2    1.940215 S    
C157  C158  1.385215 A    
Zn14  O2    1.963243 S    
C199  C200  1.531010 S    
C29   C39   1.575993 S    
C51   C63   1.393604 A    
O58   C196  1.420624 S    
C44   C52   1.390741 A    
N1    O61   1.299305 A    
N14   O87   1.301798 A    
C45   C53   1.389006 A    
C198  H120  1.110759 S    
C98   C122  1.436716 A    
Zn13  O49   1.950679 S    
H19   C36   1.113272 S    
C43   C51   1.393330 A    
Zn12  O4    1.956857 S    
C51   H39   1.082949 S    
C102  C126  1.434227 A    
C95   C103  1.415152 A    
Zn12  O27   1.934250 S    
C128  C136  1.400728 A    
C79   C95   1.407425 A    
C187  H96   1.108554 S    
C80   C96   1.415588 A    
C107  C147  1.415921 A    
C69   C77   1.421700 A    
C83   C115  1.439887 A    
C158  H78   1.082580 S    
C105  C145  1.415553 A    
Zn3   O2    1.947747 S    
N10   O80   1.300712 A    
C81   C113  1.408952 A    
C41   C81   1.415673 A    
C147  H63   1.080978 S    
C14   C118  1.450248 S    
C18   C165  1.433681 S    
C188  H97   1.094037 S    
O46   C24   1.276345 A    
O47   C24   1.272334 A    
C202  H130  1.104002 S    
C101  C105  1.413851 A    
Zn16  O52   1.947307 S    
C203  H133  1.109508 S    
C9    C113  1.453210 S    
Zn8   O45   1.945630 S    
C196  C197  1.538487 S    
O27   C6    1.274701 A    
N12   O83   1.301607 A    
C112  C120  1.421613 A    
H15   C34   1.113652 S    
C133  C137  1.384531 A    
C190  H103  1.114055 S    
C142  C150  1.384526 A    
N13   O85   1.301687 A    
C106  C114  1.414966 A    
C24   C40   1.490274 S    
C100  C124  1.426284 A    
C70   H50   1.080997 S    
C201  H128  1.110479 S    
C26   C38   1.571826 S    
C98   C110  1.417535 A    
O24   C1    1.286908 A    
N5    O70   1.301096 A    
C64   N16   1.439893 S    
C104  C128  1.426315 A    
C203  C204  1.526450 S    
C151  H67   1.081783 S    
N3    O65   1.299152 A    
C152  H68   1.080957 S    
H69   C178  1.077826 S    
C163  C167  1.412632 A    
C172  C176  1.417014 A    
H21   C137  1.082242 S    
O43   C22   1.266348 A    
O14   C10   1.278570 A    
C34   C38   1.559319 S    
Zn3   O15   1.944031 S    
C186  H93   1.110342 S    
C201  H129  1.111025 S    
C76   C88   1.409548 A    
H11   C175  1.082462 S    
Zn6   O11   1.943541 S    
C77   C81   1.411363 A    
C4    C90   1.459889 S    
Zn9   O21   1.930616 S    
C69   H49   1.078042 S    
Zn5   O12   1.942306 S    
H13   C33   1.113612 S    
O35   C14   1.277305 A    
C60   C68   1.399359 A    
C194  H111  1.110475 S    
C5    C95   1.484040 S    
C67   H47   1.080615 S    
C6    C96   1.452245 S    
C137  C145  1.387532 A    
C54   H42   1.082927 S    
C156  H76   1.080601 S    
O52   C20   1.270874 A    
C42   C82   1.415323 A    
C192  H106  1.110853 S    
C184  C185  1.533490 S    
C10   C114  1.456900 S    
O22   C3    1.291679 A    
C91   C99   1.436345 A    
Zn7   O19   1.944031 S    
C43   H31   1.072998 S    
C145  H61   1.082354 S    
Zn13  O32   1.935508 S    
C85   C117  1.430234 A    
O49   C17   1.283851 A    
Zn14  O31   1.930866 S    
C32   N8    1.476668 S    
O51   C19   1.275956 A    
C75   C91   1.421271 A    
C140  C148  1.389971 A    
C28   H4    1.115568 S    
H17   C35   1.113790 S    
C65   C73   1.422469 A    
O57   C193  1.422446 S    
Zn4   O5    1.943987 S    
N9    O77   1.301663 A    
N4    O68   1.300481 A    
O20   C16   1.282465 A    
C77   C93   1.424794 A    
O10   C6    1.281787 A    
O23   C2    1.292530 A    
H27   C143  1.082738 S    
C28   C37   1.576591 S    
Zn11  O25   1.930616 S    
C157  H77   1.082747 S    
C177  C178  1.385094 A    
Zn10  O38   1.950636 S    
N8    O76   1.301149 A    
N7    O73   1.300797 A    
H14   C34   1.113622 S    
O45   C23   1.271131 A    
C188  C189  1.527093 S    
Zn9   O37   1.947265 S    
C92   C100  1.414196 A    
C20   C167  1.442665 S    
C54   C58   1.393177 A    
C86   C118  1.406397 A    
C184  H88   1.104738 S    
H10   C174  1.079502 S    
C153  C162  1.420969 A    
O17   C13   1.271769 A    
C16   C120  1.491091 S    
C155  C164  1.417184 A    
