data_mof_unit_24943.cif
_audit_creation_date              2012-12-11T15:06:35-0500
_audit_creation_method            fapswitch 2.2
_symmetry_space_group_name_H-M    P1
_symmetry_Int_Tables_number       1
_space_group_crystal_system       triclinic
_cell_length_a                    7.241445
_cell_length_b                    14.797724
_cell_length_c                    22.563485
_cell_angle_alpha                 90.001113
_cell_angle_beta                  90.010303
_cell_angle_gamma                 88.92343
_cell_volume                      2417.40636882

loop_
_atom_site_label
_atom_site_type_symbol
_atom_type_description
_atom_site_fract_x
_atom_site_fract_y
_atom_site_fract_z
_atom_type_partial_charge
O1    O     O_R   0.390810 0.844810 0.447340 -0.532827
O2    O     O_R   0.109190 0.155190 0.947340 -0.532831
O3    O     O_R   0.890810 0.655190 0.552660 -0.534995
O4    O     O_R   0.609190 0.344810 0.052660 -0.534981
O5    O     O_R   0.720550 0.655820 0.440420 -0.536811
O6    O     O_R   0.779450 0.344180 0.940420 -0.536818
O7    O     O_R   0.220550 0.844180 0.559580 -0.535617
O8    O     O_R   0.279450 0.155820 0.059580 -0.535609
C1    C     C_R   0.553647 0.626517 0.426193 0.676326
C2    C     C_R   0.946331 0.373485 0.926191 0.676317
C3    C     C_R   0.050782 0.873287 0.573803 0.677691
C4    C     C_R   0.449242 0.126710 0.073801 0.677666
O9    O     O_R   0.720530 0.844130 0.440420 -0.535752
O10   O     O_R   0.779470 0.155870 0.940420 -0.535747
O11   O     O_R   0.220530 0.655870 0.559580 -0.534828
O12   O     O_R   0.279470 0.344130 0.059580 -0.534824
O13   O     O_R   0.890830 0.844810 0.552660 -0.535035
O14   O     O_R   0.609170 0.155190 0.052660 -0.535029
O15   O     O_R   0.390830 0.655190 0.447340 -0.533731
O16   O     O_R   0.109170 0.344810 0.947340 -0.533741
C5    C     C_R   0.550801 0.873444 0.426318 0.674738
C6    C     C_R   0.949175 0.126553 0.926318 0.674759
C7    C     C_R   0.053714 0.626776 0.573975 0.671092
C8    C     C_R   0.446308 0.373230 0.073968 0.671105
O17   O     O_3   0.557310 0.749980 0.536820 -0.373262
O18   O     O_3   0.942690 0.250020 0.036820 -0.373244
O19   O     O_3   0.057310 0.750020 0.463180 -0.372486
O20   O     O_3   0.442690 0.249980 0.963180 -0.372500
V1    V     V_3+5 0.832160 0.749980 0.493170 1.427149
V2    V     V_3+5 0.667840 0.250020 0.993170 1.427205
V3    V     V_3+5 0.332160 0.750020 0.506830 1.431386
V4    V     V_3+5 0.167840 0.249980 0.006830 1.431367
C9    C     C_R   0.854461 0.601339 0.857418 -0.169728
C10   C     C_R   0.644774 0.398562 0.357486 -0.169685
C11   C     C_R   0.519438 0.893040 0.136061 -0.167506
C12   C     C_R   0.981507 0.107013 0.636072 -0.167450
H1    H     H_    0.826010 0.544090 0.944058 0.108947
H2    H     H_    0.673102 0.455801 0.444139 0.108903
H3    H     H_    0.491518 0.949923 0.049098 0.107181
H4    H     H_    0.009513 0.050133 0.549111 0.107167
H5    H     H_    0.822488 0.721551 0.771016 0.127212
H6    H     H_    0.676535 0.278299 0.271107 0.127235
H7    H     H_    0.581769 0.769499 0.218787 0.127132
H8    H     H_    0.919532 0.230597 0.718790 0.127123
H9    H     H_    0.796200 0.665917 0.871387 0.113352
H10   H     H_    0.702648 0.333925 0.371490 0.113373
H11   H     H_    0.540562 0.825243 0.118810 0.113537
H12   H     H_    0.960844 0.174844 0.618823 0.113539
C13   C     C_R   0.946807 0.448057 0.882731 -0.034616
C14   C     C_R   0.553087 0.551946 0.382735 -0.034527
C15   C     C_R   0.463841 0.052061 0.116863 -0.029541
C16   C     C_R   0.036274 0.947929 0.616872 -0.029519
C17   C     C_R   0.128438 0.468387 0.598108 -0.159050
C18   C     C_R   0.372111 0.531691 0.098048 -0.159154
C19   C     C_R   0.510633 0.036195 0.407220 -0.163239
C20   C     C_R   0.988697 0.963765 0.907214 -0.163286
C21   C     C_R   0.154023 0.397280 0.637650 -0.129426
C22   C     C_R   0.346798 0.602849 0.137565 -0.129384
C23   C     C_R   0.481271 0.109929 0.370003 -0.127452
C24   C     C_R   0.017765 0.890006 0.869997 -0.127397
C25   C     C_R   0.108737 0.407720 0.697260 -0.166928
C26   C     C_R   0.391931 0.592396 0.197192 -0.166913
C27   C     C_R   0.474951 0.098481 0.308748 -0.164732
C28   C     C_R   0.024303 0.901462 0.808747 -0.164691
C29   C     C_R   0.031543 0.489795 0.718904 0.079594
C30   C     C_R   0.468672 0.510246 0.218880 0.079575
C31   C     C_R   0.501498 0.012205 0.282733 0.078288
C32   C     C_R   0.998303 0.987777 0.782733 0.078263
C33   C     C_R   0.003795 0.562637 0.677743 0.072940
C34   C     C_R   0.496154 0.437356 0.177744 0.072947
C35   C     C_R   0.533723 0.936665 0.321353 0.072447
C36   C     C_R   0.966396 0.063347 0.821351 0.072433
C37   C     C_R   0.982803 0.502199 0.780055 0.073774
C38   C     C_R   0.517203 0.497815 0.280050 0.073794
C39   C     C_R   0.495799 0.998316 0.219819 0.074552
C40   C     C_R   0.004245 0.001675 0.719823 0.074544
C41   C     C_R   0.907024 0.587082 0.798241 0.145163
C42   C     C_R   0.592507 0.412859 0.298281 0.145140
C43   C     C_R   0.523575 0.909322 0.197339 0.143897
C44   C     C_R   0.977046 0.090713 0.697345 0.143875
C45   C     C_R   0.881663 0.657093 0.757255 -0.213006
C46   C     C_R   0.617674 0.342809 0.257314 -0.212989
C47   C     C_R   0.557137 0.837001 0.235956 -0.210047
C48   C     C_R   0.943753 0.163062 0.735960 -0.210000
C49   C     C_R   0.929900 0.645394 0.698119 -0.203849
C50   C     C_R   0.569638 0.354534 0.198159 -0.203761
C51   C     C_R   0.561198 0.850165 0.296893 -0.197608
C52   C     C_R   0.939443 0.149886 0.796893 -0.197504
C53   C     C_R   0.003238 0.433240 0.823819 -0.219907
C54   C     C_R   0.496983 0.566810 0.323793 -0.219880
C55   C     C_R   0.465686 0.069355 0.178136 -0.218579
C56   C     C_R   0.034074 0.930611 0.678141 -0.218548
C57   C     C_R   0.872311 0.532208 0.899011 -0.166214
C58   C     C_R   0.627079 0.467721 0.399065 -0.166292
C59   C     C_R   0.490642 0.963829 0.096252 -0.169232
C60   C     C_R   0.010081 0.036204 0.596263 -0.169275
C61   C     C_R   0.054442 0.551411 0.617177 -0.080671
C62   C     C_R   0.445680 0.448604 0.117161 -0.080585
C63   C     C_R   0.536380 0.949371 0.383846 -0.076149
C64   C     C_R   0.963494 0.050627 0.883842 -0.076139
H13   H     H_    0.056427 0.366665 0.813344 0.097865
H14   H     H_    0.444182 0.633438 0.313285 0.097810
H15   H     H_    0.446902 0.138802 0.191557 0.093607
H16   H     H_    0.052413 0.861136 0.691559 0.093575
H17   H     H_    0.169858 0.459120 0.552318 0.107522
H18   H     H_    0.330842 0.540976 0.052241 0.107485
H19   H     H_    0.510949 0.046744 0.454755 0.105921
H20   H     H_    0.988162 0.953203 0.954747 0.105908
H21   H     H_    0.138011 0.350487 0.725363 0.112072
H22   H     H_    0.362905 0.649682 0.225272 0.112106
H23   H     H_    0.447579 0.158505 0.283053 0.113068
H24   H     H_    0.051390 0.841411 0.783053 0.113075
H25   H     H_    0.212865 0.333743 0.622157 0.119766
H26   H     H_    0.288303 0.666442 0.122038 0.119783
H27   H     H_    0.460658 0.176668 0.388850 0.119259
H28   H     H_    0.037955 0.823235 0.888844 0.119254
H29   H     H_    0.907599 0.701886 0.668330 0.119021
H30   H     H_    0.591761 0.298008 0.168386 0.118887
H31   H     H_    0.587410 0.791801 0.324793 0.108259
H32   H     H_    0.913463 0.208274 0.824791 0.108159

loop_
_geom_bond_atom_site_label_1
_geom_bond_atom_site_label_2
_ccdc_geom_bond_type
O17   V3    S    
C47   C51   A    
C22   C26   A    
C19   C23   A    
O19   V1    S    
C9    H9    S    
O3    C7    A    
H6    C46   S    
C44   C48   A    
C25   H21   S    
C36   C64   A    
C29   C37   A    
O1    C5    A    
O5    C1    A    
C8    C62   S    
C28   C32   A    
O9    V1    S    
H4    C60   S    
C18   C22   A    
O4    C8    A    
C29   C33   A    
C28   H24   S    
C30   C38   A    
O1    V3    S    
H7    C47   S    
O2    V4    S    
O3    V1    S    
C12   C60   A    
C20   H20   S    
C3    C16   S    
C15   C55   A    
C1    O15   A    
C54   H14   S    
C2    O16   A    
O2    C6    A    
C16   C60   A    
O14   V2    S    
C52   H32   S    
C39   C55   A    
C53   H13   S    
O11   C7    A    
O15   V3    S    
O12   C8    A    
O10   V2    S    
C36   C52   A    
C14   C54   A    
O5    V1    S    
C27   C31   A    
O7    V3    S    
C18   H18   S    
H1    C57   S    
O8    V4    S    
C40   C44   A    
C6    C64   S    
C12   C44   A    
C13   C53   A    
C26   C30   A    
O18   V4    S    
C14   C58   A    
C21   H25   S    
C17   C61   A    
C46   C50   A    
C35   C63   A    
O11   V3    S    
C20   C24   A    
C19   H19   S    
C32   C36   A    
O7    C3    A    
C51   H31   S    
C25   C29   A    
C42   C46   A    
C26   H22   S    
C41   C45   A    
O8    C4    A    
H5    C45   S    
H2    C58   S    
O9    C5    A    
C50   H30   S    
C49   H29   S    
H3    C59   S    
C40   C56   A    
C10   H10   S    
C7    C61   S    
C10   C58   A    
C35   C51   A    
C16   C56   A    
C32   C40   A    
C20   C64   A    
C19   C63   A    
C34   C50   A    
C4    C15   S    
C33   C49   A    
O16   V4    S    
C3    O13   A    
C17   C21   A    
O6    V2    S    
C1    C14   S    
C48   C52   A    
C55   H15   S    
H8    C48   S    
C9    C57   A    
O6    C2    A    
C21   C25   A    
C11   C59   A    
O12   V4    S    
C23   C27   A    
C24   C28   A    
O10   C6    A    
O20   V2    S    
C37   C53   A    
O13   V1    S    
C10   C42   A    
C43   C47   A    
C9    C41   A    
C30   C34   A    
C5    C63   S    
C38   C54   A    
C11   C43   A    
C12   H12   S    
C31   C35   A    
C27   H23   S    
O4    V2    S    
C24   H28   S    
C56   H16   S    
C17   H17   S    
C31   C39   A    
C23   H27   S    
C38   C42   A    
C4    O14   A    
C22   H26   S    
C37   C41   A    
C18   C62   A    
C13   C57   A    
C11   H11   S    
C2    C13   S    
C39   C43   A    
C45   C49   A    
C34   C62   A    
C15   C59   A    
C33   C61   A    
